#    Name: 2lf1_NDP_1_INTS_M
#    Modification time : Tue Mar 25 21:18:39 2014

@<TRIPOS>MOLECULE
2lf1_NDP_1_INTS_M
   90     0     9     0     0
SMALL
NO_CHARGES


@<TRIPOS>ATOM
      1 N          -5.6610   -5.4020   -7.1635 N.am      1 SEC2        0.0000 
      2 N          -5.6320   -4.0350   -7.6720 N.am      7 SEL2        0.0000 
      3 N          -5.6900   -6.7690   -6.6550 N.am      4 SEP2        0.0000 
      4 N          -5.5320   -4.3530   -6.4475 N.am      1 SEC2        0.0000 
      5 N          -5.4320   -4.6710   -5.2230 N.am      4 SEP2        0.0000 
      6 NZ         -5.6370   -4.4530  -11.4370 N.4       2 LYC4        0.0000 
      7 NZ         -5.6950   -3.8270  -10.1840 N.4       8 LYL4        0.0000 
      8 NZ         -4.7690   -5.2900  -13.7260 N.4       5 LYP4        0.0000 
      9 N          -6.4450   -4.9610   -9.4900 N.am      1 SEC2        0.0000 
     10 N          -5.6950   -3.8270  -10.1840 N.am      7 SEL2        0.0000 
     11 N          -7.1950   -6.0950   -8.7960 N.am      4 SEP2        0.0000 
     12 N          -5.6370   -4.4530  -11.4370 N.am      1 SEC2        0.0000 
     13 N          -5.5790   -5.0790  -12.6900 N.am      4 SEP2        0.0000 
     14 N          -4.0815   -1.7670   -7.2660 N.am      1 SEC2        0.0000 
     15 N          -4.8220   -1.9070   -8.7810 N.am      7 SEL2        0.0000 
     16 N          -3.3410   -1.6270   -5.7510 N.am      4 SEP2        0.0000 
     17 CA         -5.2030   -0.3695   -8.0605 C.3       3 GLC5        0.0000 
     18 CA         -4.8510   -1.0670   -9.9480 C.3       9 GLL5        0.0000 
     19 CA         -5.5550    0.3280   -6.1730 C.3       6 GLP5        0.0000 
     20 CA         -7.6360    0.2265   -8.4865 C.3       3 GLC5        0.0000 
     21 CA         -8.2870   -0.2370  -10.4620 C.3       9 GLL5        0.0000 
     22 CA         -6.9850    0.6900   -6.5110 C.3       6 GLP5        0.0000 
     23 CA         -9.9685    5.8530   -7.8300 C.3       3 GLC5        0.0000 
     24 CA        -10.2020    3.9820   -8.9530 C.3       9 GLL5        0.0000 
     25 CA         -9.7350    7.7240   -6.7070 C.3       6 GLP5        0.0000 
     26 CA        -11.1705    2.0545   -7.7435 C.3       3 GLC5        0.0000 
     27 CA        -11.6800    2.4430   -9.8560 C.3       9 GLL5        0.0000 
     28 CA        -10.6610    1.6660   -5.6310 C.3       6 GLP5        0.0000 
     29 CA        -11.4105    1.3535  -11.3445 C.3       3 GLC5        0.0000 
     30 CA        -11.1410    0.2640  -12.8330 C.3       6 GLP5        0.0000 
     31 CA        -13.4410    2.2310   -8.7605 C.3       3 GLC5        0.0000 
     32 CA        -15.2020    2.0190   -7.6650 C.3       6 GLP5        0.0000 
     33 CA        -10.3515    1.0520  -11.3025 C.3       3 GLC5        0.0000 
     34 CA         -9.5620    1.8400   -9.7720 C.3       9 GLL5        0.0000 
     35 N          -4.2415   -4.9030   -6.0040 N.am      1 SEC2        0.0000 
     36 N          -3.0510   -5.1350   -6.7850 N.am      7 SEL2        0.0000 
     37 CA         -1.2030   -2.9820   -7.8895 C.3       3 GLC5        0.0000 
     38 CA         -0.3080   -4.1130   -9.3040 C.3       9 GLL5        0.0000 
     39 CA         -2.0980   -1.8510   -6.4750 C.3       6 GLP5        0.0000 
     40 CA          0.2975   -2.0015   -9.5070 C.3       3 GLC5        0.0000 
     41 CA          0.9030    0.1100   -9.7100 C.3       6 GLP5        0.0000 
     42 CA          2.0365   -3.7200   -8.0040 C.3       3 GLC5        0.0000 
     43 CA          0.8940   -4.9910   -9.0560 C.3       9 GLL5        0.0000 
     44 CA          3.1790   -2.4490   -6.9520 C.3       6 GLP5        0.0000 
     45 N           2.2340   -8.5280   -9.2120 N.am      1 SEC2        0.0000 
     46 N           2.8950   -7.2450   -8.7790 N.am      7 SEL2        0.0000 
     47 N           1.5730   -9.8110   -9.6450 N.am      4 SEP2        0.0000 
     48 CA          2.7510   -3.9460   -7.1025 C.3       3 GLC5        0.0000 
     49 CA          2.3230   -5.4430   -7.2530 C.3       9 GLL5        0.0000 
     50 CA          4.0275   -6.0270   -6.0635 C.3       3 GLC5        0.0000 
     51 CA          2.6730   -5.0510   -4.7770 C.3       9 GLL5        0.0000 
     52 CA          5.3820   -7.0030   -7.3500 C.3       6 GLP5        0.0000 
     53 CA          1.7860   -3.9105   -6.3400 C.3       3 GLC5        0.0000 
     54 CA          0.3930   -5.3720   -5.7280 C.3       9 GLL5        0.0000 
     55 CA          1.4495   -7.1500   -5.6170 C.3       3 GLC5        0.0000 
     56 CA          2.5060   -8.9280   -5.5060 C.3       6 GLP5        0.0000 
     57 NZ        -10.4935   -3.0425  -13.9100 N.4       2 LYC4        0.0000 
     58 NZ         -9.7520   -1.6660  -14.6630 N.4       8 LYL4        0.0000 
     59 NZ        -11.2350   -4.4190  -13.1570 N.4       5 LYP4        0.0000 
     60 NZ         -9.5745   -3.8525  -13.5810 N.4       2 LYC4        0.0000 
     61 NZ         -7.9140   -3.2860  -14.0050 N.4       8 LYL4        0.0000 
     62 NZ         -6.3415   -4.2880  -13.8655 N.4       2 LYC4        0.0000 
     63 CA         -4.7575    0.2153  -10.6670 C.3       3 GLC5        0.0000 
     64 CA         -6.1670   -1.2240  -10.6720 C.3       9 GLL5        0.0000 
     65 CA         -4.0060    1.5760  -11.0240 C.3       6 GLP5        0.0000 
     66 CA         -5.5728    0.6570  -11.4612 C.3       3 GLC5        0.0000 
     67 CA         -6.3800   -0.2920  -11.8540 C.3       9 GLL5        0.0000 
     68 CA         -9.6170    0.0148  -12.0177 C.3       3 GLC5        0.0000 
     69 CA         -7.8990   -0.2320  -11.9430 C.3       9 GLL5        0.0000 
     70 CA         -8.1788    1.5650   -7.9968 C.3       3 GLC5        0.0000 
     71 CA         -9.1830    3.0400   -9.1930 C.3       9 GLL5        0.0000 
     72 CA         -9.5271    2.6028   -7.6342 C.3       3 GLC5        0.0000 
     73 CA         -9.4270    2.5300   -5.8460 C.3       6 GLP5        0.0000 
     74 CA          1.6465   -3.9945   -9.8970 C.3       3 GLC5        0.0000 
     75 CA          3.0000   -3.4370  -10.6140 C.3       6 GLP5        0.0000 
     76 CA          0.9792   -8.4337   -8.3938 C.3       3 GLC5        0.0000 
     77 CA          0.5920   -6.3950   -8.5580 C.3       9 GLL5        0.0000 
     78 CA          0.7140  -10.2810   -8.5730 C.3       6 GLP5        0.0000 
     79 CA          3.7460   -6.5567   -7.4560 C.3       3 GLC5        0.0000 
     80 CA          2.1449   -7.4714   -6.6199 C.3       3 GLC5        0.0000 
     81 CA          2.3919   -4.7259   -9.1739 C.3       3 GLC5        0.0000 
     82 CA          1.8970   -6.7780   -7.8710 C.3       9 GLL5        0.0000 
     83 CA          2.8220   -3.7075   -5.5605 C.3       3 GLC5        0.0000 
     84 CA          2.4855   -6.9470   -4.8375 C.3       3 GLC5        0.0000 
     85 CA         -0.8562   -3.3915   -3.7755 C.3       3 GLC5        0.0000 
     86 CA         -0.0930   -5.1980   -4.4400 C.3       9 GLL5        0.0000 
     87 CA         -2.0530   -1.7090   -3.6730 C.3       6 GLP5        0.0000 
     88 CA         -0.9740   -3.5680   -5.7795 C.3       3 GLC5        0.0000 
     89 CA         -1.5921   -5.3910   -4.4395 C.3       3 GLC5        0.0000 
     90 CA         -3.5510   -5.5590   -4.0760 C.3       6 GLP5        0.0000 
@<TRIPOS>BOND
@<TRIPOS>SUBSTRUCTURE
     1 SEC2        1 GROUP        1 X    SEC  0     ROOT SEC X 2
     2 LYC4        6 GROUP        1 X    LYC  0     **** LYC X 4
     3 GLC5       17 GROUP        1 X    GLC  0     **** GLC X 6
     4 SEP2        3 GROUP        1 Y    SEP  0     ROOT SEP Y 9
     5 LYP4        8 GROUP        1 Y    LYP  0     **** LYP Y 11
     6 GLP5       19 GROUP        1 Y    GLP  0     **** GLP Y 13
     7 SEL2        2 GROUP        1 Z    SEL  0     ROOT SEL Z 16
     8 LYL4        7 GROUP        1 Z    LYL  0     **** LYL Z 18
     9 GLL5       18 GROUP        1 Z    GLL  0     **** GLL Z 20
@<TRIPOS>SET

