#    Name: 2lf1_NDP_1_ligand
#    Modification time : Tue Mar 25 21:18:39 2014

@<TRIPOS>MOLECULE
2lf1_NDP_1_ligand
   72    76     1     0     0
SMALL
NO_CHARGES


@<TRIPOS>ATOM
      1 PA         -5.0490   -3.4780   -8.9040 P.3       1 NDP170      0.0000 
      2 O1A        -5.6320   -4.0350   -7.6720 O.co2     1 NDP170      0.0000 
      3 O2A        -5.6950   -3.8270  -10.1840 O.co2     1 NDP170      0.0000 
      4 O5B        -4.8220   -1.9070   -8.7810 O.3       1 NDP170      0.0000 
      5 C5B        -4.8510   -1.0670   -9.9480 C.3       1 NDP170      0.0000 
      6 C4B        -6.1670   -1.2240  -10.6720 C.3       1 NDP170      0.0000 
      7 O4B        -7.2560   -0.9130   -9.7620 O.3       1 NDP170      0.0000 
      8 C3B        -6.3800   -0.2920  -11.8540 C.3       1 NDP170      0.0000 
      9 O3B        -5.8020   -0.8360  -13.0450 O.3       1 NDP170      0.0000 
     10 C2B        -7.8990   -0.2320  -11.9430 C.3       1 NDP170      0.0000 
     11 O2B        -8.4670   -1.3410  -12.6080 O.3       1 NDP170      0.0000 
     12 C1B        -8.2870   -0.2370  -10.4620 C.3       1 NDP170      0.0000 
     13 N9A        -8.4080    1.1070   -9.9000 N.pl3     1 NDP170      0.0000 
     14 C8A        -7.4040    1.8970   -9.3960 C.2       1 NDP170      0.0000 
     15 N7A        -7.8160    3.0620   -8.9600 N.2       1 NDP170      0.0000 
     16 C5A        -9.1830    3.0400   -9.1930 C.ar      1 NDP170      0.0000 
     17 C6A       -10.2020    3.9820   -8.9530 C.ar      1 NDP170      0.0000 
     18 N6A        -9.9890    5.1790   -8.4030 N.pl3     1 NDP170      0.0000 
     19 N1A       -11.4650    3.6460   -9.3040 N.ar      1 NDP170      0.0000 
     20 C2A       -11.6800    2.4430   -9.8560 C.ar      1 NDP170      0.0000 
     21 N3A       -10.8060    1.4750  -10.1320 N.ar      1 NDP170      0.0000 
     22 C4A        -9.5620    1.8400   -9.7720 C.ar      1 NDP170      0.0000 
     23 O3         -3.4660   -3.9320   -8.9790 O.3       1 NDP170      0.0000 
     24 PN         -2.5100   -4.9890   -8.1500 P.3       1 NDP170      0.0000 
     25 O1N        -3.0510   -5.1350   -6.7850 O.co2     1 NDP170      0.0000 
     26 O2N        -2.3620   -6.2140   -8.9600 O.co2     1 NDP170      0.0000 
     27 O5D        -1.1740   -4.1220   -8.1560 O.3       1 NDP170      0.0000 
     28 C5D        -0.3080   -4.1130   -9.3040 C.3       1 NDP170      0.0000 
     29 C4D         0.8940   -4.9910   -9.0560 C.3       1 NDP170      0.0000 
     30 O4D         1.7160   -4.4100   -8.0110 O.3       1 NDP170      0.0000 
     31 C3D         0.5920   -6.3950   -8.5580 C.3       1 NDP170      0.0000 
     32 O3D         0.3020   -7.2740   -9.6500 O.3       1 NDP170      0.0000 
     33 C2D         1.8970   -6.7780   -7.8710 C.3       1 NDP170      0.0000 
     34 O2D         2.8950   -7.2450   -8.7790 O.3       1 NDP170      0.0000 
     35 C1D         2.3230   -5.4430   -7.2530 C.3       1 NDP170      0.0000 
     36 N1N         1.9280   -5.2800   -5.8540 N.pl3     1 NDP170      0.0000 
     37 C2N         2.6730   -5.0510   -4.7770 C.2       1 NDP170      0.0000 
     38 C3N         2.2570   -4.8810   -3.5610 C.2       1 NDP170      0.0000 
     39 C7N         3.3750   -4.6690   -2.6810 C.2       1 NDP170      0.0000 
     40 O7N         2.8240   -4.3920   -1.5200 O.2       1 NDP170      0.0000 
     41 N7N         4.7090   -4.6720   -2.9230 N.am      1 NDP170      0.0000 
     42 C4N         0.7740   -4.9500   -3.3160 C.3       1 NDP170      0.0000 
     43 C5N        -0.0930   -5.1980   -4.4400 C.2       1 NDP170      0.0000 
     44 C6N         0.3930   -5.3720   -5.7280 C.2       1 NDP170      0.0000 
     45 P2B        -8.2500   -1.8080  -14.1970 P.3       1 NDP170      0.0000 
     46 O1X        -9.7520   -1.6660  -14.6630 O.co2     1 NDP170      0.0000 
     47 O2X        -7.4410   -0.6230  -14.7230 O.co2     1 NDP170      0.0000 
     48 O3X        -7.9140   -3.2860  -14.0050 O.co2     1 NDP170      0.0000 
     49 H          -4.0414   -1.3260  -10.6440 H         1 NDP170      0.0000 
     50 H          -4.7296   -0.0088   -9.6789 H         1 NDP170      0.0000 
     51 H          -6.2807   -2.2413  -11.0158 H         1 NDP170      0.0000 
     52 H          -6.0211    0.6648  -11.5934 H         1 NDP170      0.0000 
     53 H          -8.1720    0.7137  -12.3374 H         1 NDP170      0.0000 
     54 H          -9.2175   -0.7714  -10.3638 H         1 NDP170      0.0000 
     55 H          -6.4515    1.5809   -9.3778 H         1 NDP170      0.0000 
     56 H         -10.7853    5.7801   -8.3351 H         1 NDP170      0.0000 
     57 H          -9.0522    5.3673   -8.1081 H         1 NDP170      0.0000 
     58 H         -12.7353    2.2252  -10.1192 H         1 NDP170      0.0000 
     59 H           0.0462   -3.0972   -9.5262 H         1 NDP170      0.0000 
     60 H          -0.8287   -4.4845  -10.1971 H         1 NDP170      0.0000 
     61 H           1.4855   -5.0726   -9.9579 H         1 NDP170      0.0000 
     62 H          -0.1665   -6.3381   -7.8306 H         1 NDP170      0.0000 
     63 H           1.6782   -7.4422   -7.0780 H         1 NDP170      0.0000 
     64 H           3.4053   -5.3719   -7.3429 H         1 NDP170      0.0000 
     65 H           3.7601   -5.0027   -4.9497 H         1 NDP170      0.0000 
     66 H           0.4700   -3.9875   -2.7992 H         1 NDP170      0.0000 
     67 H           0.5983   -5.7316   -2.5134 H         1 NDP170      0.0000 
     68 H          -1.1130   -5.2440   -4.2565 H         1 NDP170      0.0000 
     69 H          -0.1223   -5.5401   -6.5287 H         1 NDP170      0.0000 
     70 H          -6.2391   -0.3393  -13.7949 H         1 NDP170      0.0000 
     71 H          -0.6927   -7.2448   -9.7485 H         1 NDP170      0.0000 
     72 H           2.8828   -6.5911   -9.5355 H         1 NDP170      0.0000 
@<TRIPOS>BOND
     1    2    1 ar   
     2    3    1 ar   
     3    4    1 1    
     4   23    1 1    
     5    5    4 1    
     6    6    5 1    
     7   49    5 1    
     8   50    5 1    
     9    7    6 1    
    10    8    6 1    
    11   51    6 1    
    12   12    7 1    
    13    9    8 1    
    14   10    8 1    
    15   52    8 1    
    16   70    9 1    
    17   11   10 1    
    18   12   10 1    
    19   53   10 1    
    20   45   11 1    
    21   13   12 1    
    22   54   12 1    
    23   14   13 1    
    24   22   13 1    
    25   15   14 2    
    26   55   14 1    
    27   16   15 1    
    28   17   16 ar   
    29   22   16 ar   
    30   18   17 1    
    31   19   17 ar   
    32   56   18 1    
    33   57   18 1    
    34   20   19 ar   
    35   21   20 ar   
    36   58   20 1    
    37   22   21 ar   
    38   24   23 1    
    39   25   24 ar   
    40   26   24 ar   
    41   27   24 1    
    42   28   27 1    
    43   29   28 1    
    44   59   28 1    
    45   60   28 1    
    46   30   29 1    
    47   31   29 1    
    48   61   29 1    
    49   35   30 1    
    50   32   31 1    
    51   33   31 1    
    52   62   31 1    
    53   71   32 1    
    54   34   33 1    
    55   35   33 1    
    56   63   33 1    
    57   72   34 1    
    58   36   35 1    
    59   64   35 1    
    60   37   36 1    
    61   44   36 1    
    62   38   37 2    
    63   65   37 1    
    64   39   38 1    
    65   42   38 1    
    66   40   39 2    
    67   41   39 am   
    68   43   42 1    
    69   66   42 1    
    70   67   42 1    
    71   44   43 2    
    72   68   43 1    
    73   69   44 1    
    74   46   45 ar   
    75   47   45 ar   
    76   48   45 ar   
@<TRIPOS>SUBSTRUCTURE
     1 NDP170      1 GROUP   
@<TRIPOS>SET

