#    Name: 2ehq_NAP_1_INTS_M
#    Modification time : Tue Mar 25 11:03:26 2014

@<TRIPOS>MOLECULE
2ehq_NAP_1_INTS_M
  123     0    12     0     0
SMALL
NO_CHARGES


@<TRIPOS>ATOM
      1 N          11.4385   35.2275   93.7940 N.am      2 SEC2        0.0000 
      2 N          10.4170   34.3400   93.4730 N.am     10 SEL2        0.0000 
      3 N          12.4600   36.1150   94.1150 N.am      6 SEP2        0.0000 
      4 N          10.0030   35.5310   93.8710 N.am      2 SEC2        0.0000 
      5 N           9.5890   36.7220   94.2690 N.am      6 SEP2        0.0000 
      6 CA         13.5355   31.2555   91.4945 C.3       4 GLC5        0.0000 
      7 CA         11.7530   31.6470   92.6940 C.3      12 GLL5        0.0000 
      8 CA         15.3180   30.8640   90.2950 C.3       8 GLP5        0.0000 
      9 CA         12.9930   33.0595   93.3805 C.3       4 GLC5        0.0000 
     10 CA         14.2330   34.4720   94.0670 C.3       8 GLP5        0.0000 
     11 CA         11.4560   28.3250   90.3070 C.3       4 GLC5        0.0000 
     12 CA         10.8310   29.4040   91.9250 C.3      12 GLL5        0.0000 
     13 CA         12.0810   27.2460   88.6890 C.3       8 GLP5        0.0000 
     14 N          10.3610   26.8880   91.6815 N.am      2 SEC2        0.0000 
     15 N          11.3070   28.0790   92.0400 N.am     10 SEL2        0.0000 
     16 N           9.4150   25.6970   91.3230 N.am      6 SEP2        0.0000 
     17 O          12.6095   28.4155   91.7555 O.2       1 ALC1        0.0000 
     18 O          11.3070   28.0790   92.0400 O.2       9 ALL1        0.0000 
     19 O          13.9120   28.7520   91.4710 O.2       5 ALP1        0.0000 
     20 N           9.0065   27.0420   91.5025 N.am      2 SEC2        0.0000 
     21 N           8.5980   28.3870   91.6820 N.am     10 SEL2        0.0000 
     22 CA         10.5910   28.5880   94.7190 C.3       4 GLC5        0.0000 
     23 CA          9.3540   29.3650   93.7170 C.3      12 GLL5        0.0000 
     24 CA         11.8280   27.8110   95.7210 C.3       8 GLP5        0.0000 
     25 CA          9.3820   27.5745   98.0470 C.3       4 GLC5        0.0000 
     26 CA          7.8080   28.6350   97.7450 C.3      12 GLL5        0.0000 
     27 CA         10.9560   26.5140   98.3490 C.3       8 GLP5        0.0000 
     28 CA          7.6260   26.6515   97.4885 C.3       4 GLC5        0.0000 
     29 CA          7.4440   24.6680   97.2320 C.3       8 GLP5        0.0000 
     30 CA          6.4890   27.4450   98.7945 C.3       4 GLC5        0.0000 
     31 CA          5.1700   26.2550   99.8440 C.3       8 GLP5        0.0000 
     32 CA          8.5600   27.8390   99.6160 C.3       4 GLC5        0.0000 
     33 CA          9.3120   27.0430  101.4870 C.3       8 GLP5        0.0000 
     34 CA          8.3025   30.6935   97.3790 C.3       4 GLC5        0.0000 
     35 CA          8.7970   32.7520   97.0130 C.3       8 GLP5        0.0000 
     36 CA          9.1835   29.6895   98.6950 C.3       4 GLC5        0.0000 
     37 CA         10.5590   30.7440   99.6450 C.3       8 GLP5        0.0000 
     38 CA          9.8110   28.7085   95.6650 C.3       4 GLC5        0.0000 
     39 CA          7.7940   29.6060   95.6090 C.3      12 GLL5        0.0000 
     40 N          12.0945   35.2170   92.7670 N.am      2 SEC2        0.0000 
     41 N          11.7290   34.3190   91.4190 N.am     10 SEL2        0.0000 
     42 N          13.7005   31.7930   88.7750 N.am      2 SEC2        0.0000 
     43 N          12.4350   32.6160   89.6580 N.am     10 SEL2        0.0000 
     44 N          14.9660   30.9700   87.8920 N.am      6 SEP2        0.0000 
     45 N          11.6970   34.3800   87.7390 N.am      2 SEC2        0.0000 
     46 N          11.3240   34.8540   89.0110 N.am     10 SEL2        0.0000 
     47 N          12.0700   33.9060   86.4670 N.am      6 SEP2        0.0000 
     48 CA         14.6110   37.0850   88.3575 C.3       4 GLC5        0.0000 
     49 CA         13.8370   36.1050   89.7290 C.3      12 GLL5        0.0000 
     50 CA         15.3850   38.0650   86.9860 C.3       8 GLP5        0.0000 
     51 CA         14.1200   35.6330   92.5730 C.3       4 GLC5        0.0000 
     52 CA         14.0070   36.7940   91.0790 C.3      12 GLL5        0.0000 
     53 CA         15.1915   37.5905   89.4900 C.3       4 GLC5        0.0000 
     54 CA         16.3760   38.3870   87.9010 C.3       8 GLP5        0.0000 
     55 O          13.8445   40.3275   91.8115 O.2       1 ALC1        0.0000 
     56 O          13.7520   39.0450   91.8790 O.2       9 ALL1        0.0000 
     57 O          13.9370   41.6100   91.7440 O.2       5 ALP1        0.0000 
     58 CA         16.0575   39.6415   92.8605 C.3       4 GLC5        0.0000 
     59 CA         15.9220   38.2000   91.2340 C.3      12 GLL5        0.0000 
     60 CA         16.1930   41.0830   94.4870 C.3       8 GLP5        0.0000 
     61 O          15.1960   40.5060   91.7425 O.2       1 ALC1        0.0000 
     62 O          16.4550   39.4020   91.7410 O.2       9 ALL1        0.0000 
     63 O          16.2470   40.7475   91.4855 O.2       1 ALC1        0.0000 
     64 O          16.0390   42.0930   91.2300 O.2       5 ALP1        0.0000 
     65 CA         15.1105   35.7855   93.1670 C.3       4 GLC5        0.0000 
     66 CA         15.9880   37.0990   92.2670 C.3      12 GLL5        0.0000 
     67 CA         17.1200   37.5860   95.2720 C.3       4 GLC5        0.0000 
     68 CA         18.1030   36.8410   93.4430 C.3      12 GLL5        0.0000 
     69 CA         16.1370   38.3310   97.1010 C.3       8 GLP5        0.0000 
     70 CA         18.9520   38.1050   92.6505 C.3       4 GLC5        0.0000 
     71 CA         19.8010   39.3690   91.8580 C.3       8 GLP5        0.0000 
     72 O          18.8925   38.4130   95.6595 O.2       1 ALC1        0.0000 
     73 O          19.9160   37.5620   95.5880 O.2       9 ALL1        0.0000 
     74 O          17.8690   39.2640   95.7310 O.2       5 ALP1        0.0000 
     75 O          20.6060   38.0335   96.9120 O.2       1 ALC1        0.0000 
     76 O          21.2960   38.5050   98.2360 O.2       5 ALP1        0.0000 
     77 CA         18.2525   33.4480   91.2145 C.3       4 GLC5        0.0000 
     78 CA         19.0890   35.2090   91.3960 C.3      12 GLL5        0.0000 
     79 CA         17.4160   31.6870   91.0330 C.3       8 GLP5        0.0000 
     80 CA         16.9460   33.9475   90.9480 C.3       4 GLC5        0.0000 
     81 CA         17.8080   35.7370   91.3290 C.3      12 GLL5        0.0000 
     82 CA         16.0840   32.1580   90.5670 C.3       8 GLP5        0.0000 
     83 CA         18.8045   37.5530   91.5935 C.3       4 GLC5        0.0000 
     84 NZ          9.1845   27.2235   90.2735 N.4       3 LYC4        0.0000 
     85 NZ          8.9540   28.7500   89.2240 N.4      11 LYL4        0.0000 
     86 NZ          9.4150   25.6970   91.3230 N.4       7 LYP4        0.0000 
     87 N           9.5465   27.8415   88.2510 N.am      2 SEC2        0.0000 
     88 N           8.9540   28.7500   89.2240 N.am     10 SEL2        0.0000 
     89 N          10.1390   26.9330   87.2780 N.am      6 SEP2        0.0000 
     90 NZ          8.2205   26.5400   90.7375 N.4       3 LYC4        0.0000 
     91 NZ          7.0260   27.3830   90.1520 N.4      11 LYL4        0.0000 
     92 N           6.5410   26.8220   91.3015 N.am      2 SEC2        0.0000 
     93 N           7.0260   27.3830   90.1520 N.am     10 SEL2        0.0000 
     94 N           6.0560   26.2610   92.4510 N.am      6 SEP2        0.0000 
     95 CA         11.8872   31.3717   94.7002 C.3       4 GLC5        0.0000 
     96 CA         11.4220   30.2080   93.0730 C.3      12 GLL5        0.0000 
     97 CA         12.1870   31.8160   96.5170 C.3       8 GLP5        0.0000 
     98 CA         11.4772   28.8085   94.1100 C.3       4 GLC5        0.0000 
     99 CA          7.9497   28.1220   93.3340 C.3       4 GLC5        0.0000 
    100 CA          9.3410   29.4570   92.2110 C.3      12 GLL5        0.0000 
    101 CA          6.5520   26.8330   93.7040 C.3       8 GLP5        0.0000 
    102 CA          9.7565   27.2754   92.7798 C.3       4 GLC5        0.0000 
    103 CA          9.7930   25.1530   92.6670 C.3       8 GLP5        0.0000 
    104 CA          6.8797   28.3957   94.7275 C.3       4 GLC5        0.0000 
    105 CA          4.8265   29.2165   95.8700 C.3       4 GLC5        0.0000 
    106 CA          6.6210   30.3110   95.8930 C.3      12 GLL5        0.0000 
    107 CA          3.3150   28.1930   95.2130 C.3       8 GLP5        0.0000 
    108 CA          7.9315   31.3375   96.5405 C.3       4 GLC5        0.0000 
    109 CA          6.0550   30.1690   97.1610 C.3      12 GLL5        0.0000 
    110 CA         13.0615   37.4855   92.6542 C.3       4 GLC5        0.0000 
    111 CA         11.9020   37.4500   94.3020 C.3       8 GLP5        0.0000 
    112 CA         15.8118   38.9550   89.7535 C.3       4 GLC5        0.0000 
    113 CA         14.4350   38.2480   90.9340 C.3      12 GLL5        0.0000 
    114 CA         16.4450   39.6860   88.4230 C.3       8 GLP5        0.0000 
    115 CA         17.8780   38.5092   91.8042 C.3       4 GLC5        0.0000 
    116 CA         18.7220   35.0245   93.9408 C.3       4 GLC5        0.0000 
    117 CA         18.6960   33.4660   94.3960 C.3       8 GLP5        0.0000 
    118 CA         20.6250   34.1022   91.7295 C.3       4 GLC5        0.0000 
    119 CA         19.8850   35.5120   92.5000 C.3      12 GLL5        0.0000 
    120 CA         21.7630   32.8440   91.5110 C.3       8 GLP5        0.0000 
    121 CA         20.3465   37.0079   92.0695 C.3       4 GLC5        0.0000 
    122 CA         21.3290   38.4520   91.9340 C.3       8 GLP5        0.0000 
    123 CA         18.6718   34.5074   93.0172 C.3       4 GLC5        0.0000 
@<TRIPOS>BOND
@<TRIPOS>SUBSTRUCTURE
     1 ALC1       17 GROUP        1 X    ALC  0     ROOT ALC X 1
     2 SEC2        1 GROUP        1 X    SEC  0     **** SEC X 2
     3 LYC4       84 GROUP        1 X    LYC  0     **** LYC X 4
     4 GLC5        6 GROUP        1 X    GLC  0     **** GLC X 6
     5 ALP1       19 GROUP        1 Y    ALP  0     ROOT ALP Y 8
     6 SEP2        3 GROUP        1 Y    SEP  0     **** SEP Y 9
     7 LYP4       86 GROUP        1 Y    LYP  0     **** LYP Y 11
     8 GLP5        8 GROUP        1 Y    GLP  0     **** GLP Y 13
     9 ALL1       18 GROUP        1 Z    ALL  0     ROOT ALL Z 15
    10 SEL2        2 GROUP        1 Z    SEL  0     **** SEL Z 16
    11 LYL4       85 GROUP        1 Z    LYL  0     **** LYL Z 18
    12 GLL5        7 GROUP        1 Z    GLL  0     **** GLL Z 20
@<TRIPOS>SET

