#    Name: 2ehq_NAP_1_ligand
#    Modification time : Tue Mar 25 11:03:26 2014

@<TRIPOS>MOLECULE
2ehq_NAP_1_ligand
   73    77     1     0     0
SMALL
NO_CHARGES


@<TRIPOS>ATOM
      1 PA         10.3780   33.7700   92.1100 P.3       1 NAP1518     0.0000 
      2 O1A         9.1500   34.0870   91.3760 O.co2     1 NAP1518     0.0000 
      3 O2A        10.4170   34.3400   93.4730 O.co2     1 NAP1518     0.0000 
      4 O5B        10.5950   32.1960   92.1060 O.3       1 NAP1518     0.0000 
      5 C5B        11.7530   31.6470   92.6940 C.3       1 NAP1518     0.0000 
      6 C4B        11.4220   30.2080   93.0730 C.3       1 NAP1518     0.0000 
      7 O4B        10.4580   30.1780   94.1130 O.3       1 NAP1518     0.0000 
      8 C3B        10.8310   29.4040   91.9250 C.3       1 NAP1518     0.0000 
      9 O3B        11.3070   28.0790   92.0400 O.3       1 NAP1518     0.0000 
     10 C2B         9.3410   29.4570   92.2110 C.3       1 NAP1518     0.0000 
     11 O2B         8.5980   28.3870   91.6820 O.3       1 NAP1518     0.0000 
     12 C1B         9.3540   29.3650   93.7170 C.3       1 NAP1518     0.0000 
     13 N9A         8.1450   29.9070   94.3300 N.pl3     1 NAP1518     0.0000 
     14 C8A         7.2210   30.8010   93.8330 C.2       1 NAP1518     0.0000 
     15 N7A         6.2920   31.0440   94.7910 N.2       1 NAP1518     0.0000 
     16 C5A         6.6210   30.3110   95.8930 C.ar      1 NAP1518     0.0000 
     17 C6A         6.0550   30.1690   97.1610 C.ar      1 NAP1518     0.0000 
     18 N6A         4.9800   30.8650   97.5400 N.pl3     1 NAP1518     0.0000 
     19 N1A         6.6640   29.3350   98.0670 N.ar      1 NAP1518     0.0000 
     20 C2A         7.8080   28.6350   97.7450 C.ar      1 NAP1518     0.0000 
     21 N3A         8.3750   28.7770   96.5030 N.ar      1 NAP1518     0.0000 
     22 C4A         7.7940   29.6060   95.6090 C.ar      1 NAP1518     0.0000 
     23 O3         11.7290   34.3190   91.4190 O.3       1 NAP1518     0.0000 
     24 PN         12.1980   34.0530   89.9030 P.3       1 NAP1518     0.0000 
     25 O1N        12.4350   32.6160   89.6580 O.co2     1 NAP1518     0.0000 
     26 O2N        11.3240   34.8540   89.0110 O.co2     1 NAP1518     0.0000 
     27 O5D        13.6630   34.7160   89.8980 O.3       1 NAP1518     0.0000 
     28 C5D        13.8370   36.1050   89.7290 C.3       1 NAP1518     0.0000 
     29 C4D        14.0070   36.7940   91.0790 C.3       1 NAP1518     0.0000 
     30 O4D        15.0510   36.1530   91.8010 O.3       1 NAP1518     0.0000 
     31 C3D        14.4350   38.2480   90.9340 C.3       1 NAP1518     0.0000 
     32 O3D        13.7520   39.0450   91.8790 O.3       1 NAP1518     0.0000 
     33 C2D        15.9220   38.2000   91.2340 C.3       1 NAP1518     0.0000 
     34 O2D        16.4550   39.4020   91.7410 O.3       1 NAP1518     0.0000 
     35 C1D        15.9880   37.0990   92.2670 C.3       1 NAP1518     0.0000 
     36 N1N        17.3370   36.5360   92.3480 N.pl3     1 NAP1518     0.0000 
     37 C2N        18.1030   36.8410   93.4430 C.ar      1 NAP1518     0.0000 
     38 C3N        19.3930   36.3250   93.5280 C.ar      1 NAP1518     0.0000 
     39 C7N        20.2890   36.6650   94.6810 C.2       1 NAP1518     0.0000 
     40 O7N        21.5150   36.0230   94.7560 O.2       1 NAP1518     0.0000 
     41 N7N        19.9160   37.5620   95.5880 N.am      1 NAP1518     0.0000 
     42 C4N        19.8850   35.5120   92.5000 C.ar      1 NAP1518     0.0000 
     43 C5N        19.0890   35.2090   91.3960 C.ar      1 NAP1518     0.0000 
     44 C6N        17.8080   35.7370   91.3290 C.ar      1 NAP1518     0.0000 
     45 P2B         7.8790   28.6300   90.2630 P.3       1 NAP1518     0.0000 
     46 O1X         8.9540   28.7500   89.2240 O.co2     1 NAP1518     0.0000 
     47 O2X         7.0260   27.3830   90.1520 O.co2     1 NAP1518     0.0000 
     48 O3X         7.0490   29.8830   90.3950 O.co2     1 NAP1518     0.0000 
     49 H          12.0467   32.1706   93.6012 H         1 NAP1518     0.0000 
     50 H          12.5968   31.6244   92.0078 H         1 NAP1518     0.0000 
     51 H          12.3323   29.7118   93.3910 H         1 NAP1518     0.0000 
     52 H          11.0401   29.8784   91.0304 H         1 NAP1518     0.0000 
     53 H           8.9853   30.4227   91.9562 H         1 NAP1518     0.0000 
     54 H           9.5186   28.3526   94.0004 H         1 NAP1518     0.0000 
     55 H           7.2426   31.1820   92.9515 H         1 NAP1518     0.0000 
     56 H           4.6258   30.6649   98.4535 H         1 NAP1518     0.0000 
     57 H           4.6258   31.5238   96.8762 H         1 NAP1518     0.0000 
     58 H           8.2367   28.0033   98.4420 H         1 NAP1518     0.0000 
     59 H          12.9743   36.5722   89.2261 H         1 NAP1518     0.0000 
     60 H          14.7280   36.3401   89.1237 H         1 NAP1518     0.0000 
     61 H          13.0868   36.7584   91.6177 H         1 NAP1518     0.0000 
     62 H          14.2973   38.5382   89.9321 H         1 NAP1518     0.0000 
     63 H          16.4196   37.8360   90.3552 H         1 NAP1518     0.0000 
     64 H          15.6815   37.5151   93.2045 H         1 NAP1518     0.0000 
     65 H          17.7409   37.4383   94.1920 H         1 NAP1518     0.0000 
     66 H          19.0211   37.9852   95.4462 H         1 NAP1518     0.0000 
     67 H          20.5639   37.7328   96.3303 H         1 NAP1518     0.0000 
     68 H          20.8414   35.1365   92.5618 H         1 NAP1518     0.0000 
     69 H          19.4456   34.6089   90.6519 H         1 NAP1518     0.0000 
     70 H          17.2110   35.5289   90.5142 H         1 NAP1518     0.0000 
     71 H          12.2904   28.1417   91.8698 H         1 NAP1518     0.0000 
     72 H          13.9883   39.9873   91.6417 H         1 NAP1518     0.0000 
     73 H          16.0057   40.1255   91.2170 H         1 NAP1518     0.0000 
@<TRIPOS>BOND
     1    2    1 ar   
     2    3    1 ar   
     3    4    1 1    
     4   23    1 1    
     5    5    4 1    
     6    6    5 1    
     7   49    5 1    
     8   50    5 1    
     9    7    6 1    
    10    8    6 1    
    11   51    6 1    
    12   12    7 1    
    13    9    8 1    
    14   10    8 1    
    15   52    8 1    
    16   71    9 1    
    17   11   10 1    
    18   12   10 1    
    19   53   10 1    
    20   45   11 1    
    21   13   12 1    
    22   54   12 1    
    23   14   13 1    
    24   22   13 1    
    25   15   14 2    
    26   55   14 1    
    27   16   15 1    
    28   17   16 ar   
    29   22   16 ar   
    30   18   17 1    
    31   19   17 ar   
    32   56   18 1    
    33   57   18 1    
    34   20   19 ar   
    35   21   20 ar   
    36   58   20 1    
    37   22   21 ar   
    38   24   23 1    
    39   25   24 ar   
    40   26   24 ar   
    41   27   24 1    
    42   28   27 1    
    43   29   28 1    
    44   59   28 1    
    45   60   28 1    
    46   30   29 1    
    47   31   29 1    
    48   61   29 1    
    49   35   30 1    
    50   32   31 1    
    51   33   31 1    
    52   62   31 1    
    53   72   32 1    
    54   34   33 1    
    55   35   33 1    
    56   63   33 1    
    57   73   34 1    
    58   36   35 1    
    59   64   35 1    
    60   37   36 ar   
    61   44   36 ar   
    62   38   37 ar   
    63   65   37 1    
    64   39   38 1    
    65   42   38 ar   
    66   40   39 2    
    67   41   39 am   
    68   66   41 1    
    69   67   41 1    
    70   43   42 ar   
    71   68   42 1    
    72   44   43 ar   
    73   69   43 1    
    74   70   44 1    
    75   46   45 ar   
    76   47   45 ar   
    77   48   45 ar   
@<TRIPOS>SUBSTRUCTURE
     1 NAP1518     1 GROUP   
@<TRIPOS>SET

