#    Name: 4ei4_0Q2_1_INTS_M
#    Modification time : Mon Mar 24 17:53:25 2014

@<TRIPOS>MOLECULE
4ei4_0Q2_1_INTS_M
   45     0     9     0     0
SMALL
NO_CHARGES


@<TRIPOS>ATOM
      1 CA          9.9680   60.2400    0.0910 C.3       3 GLC5        0.0000 
      2 CA          7.9630   59.5520   -0.2730 C.3       9 GLL5        0.0000 
      3 CA         11.9730   60.9280    0.4550 C.3       6 GLP5        0.0000 
      4 CA          7.6775   62.9095    0.0190 C.3       3 GLC5        0.0000 
      5 CA          7.4540   60.8580   -0.3970 C.3       9 GLL5        0.0000 
      6 CA          7.9010   64.9610    0.4350 C.3       6 GLP5        0.0000 
      7 N           6.4875   62.7485   -0.0400 N.am      2 SEC2        0.0000 
      8 N           6.2540   61.1740    0.0550 N.am      8 SEL2        0.0000 
      9 N           6.7210   64.3230   -0.1350 N.am      5 SEP2        0.0000 
     10 CA          5.9710   60.5170    2.3050 C.3       3 GLC5        0.0000 
     11 CA          5.4810   60.2620    0.6500 C.3       9 GLL5        0.0000 
     12 CA          6.4610   60.7720    3.9600 C.3       6 GLP5        0.0000 
     13 CA          6.7085   56.0500   -1.7815 C.3       3 GLC5        0.0000 
     14 CA          6.4090   55.4710    0.0820 C.3       9 GLL5        0.0000 
     15 CA          7.0080   56.6290   -3.6450 C.3       6 GLP5        0.0000 
     16 CA          4.9025   55.1425   -0.9265 C.3       3 GLC5        0.0000 
     17 CA          3.3960   54.8140   -1.9350 C.3       6 GLP5        0.0000 
     18 CA          7.9255   54.7865    4.9490 C.3       3 GLC5        0.0000 
     19 CA          7.0040   54.6900    2.9040 C.3       9 GLL5        0.0000 
     20 CA          8.8470   54.8830    6.9940 C.3       6 GLP5        0.0000 
     21 O           9.2105   54.3615    3.7560 O.2       1 ALC1        0.0000 
     22 O           8.2230   53.9390    2.9360 O.2       7 ALL1        0.0000 
     23 O          10.1980   54.7840    4.5760 O.2       4 ALP1        0.0000 
     24 CA          3.9690   57.2805   -0.2145 C.3       3 GLC5        0.0000 
     25 CA          4.8240   58.2190    1.5110 C.3       9 GLL5        0.0000 
     26 CA          3.1140   56.3420   -1.9400 C.3       6 GLP5        0.0000 
     27 CA          5.6425   59.4955    2.7355 C.3       3 GLC5        0.0000 
     28 CA          8.1113   59.8150    1.5050 C.3       3 GLC5        0.0000 
     29 CA          8.5140   59.4250    3.3450 C.3       6 GLP5        0.0000 
     30 CA          7.5322   59.0823    1.9705 C.3       3 GLC5        0.0000 
     31 CA          5.9140   58.9270    0.8260 C.3       9 GLL5        0.0000 
     32 CA          7.9790   57.7550    2.4880 C.3       3 GLC5        0.0000 
     33 CA          7.5940   56.0600    0.8720 C.3       9 GLL5        0.0000 
     34 CA          6.9905   53.4843   -1.1435 C.3       3 GLC5        0.0000 
     35 CA          7.7020   52.2210   -2.5920 C.3       6 GLP5        0.0000 
     36 CA          4.4535   54.0703    0.3090 C.3       3 GLC5        0.0000 
     37 CA          6.1490   54.0240    0.5280 C.3       9 GLL5        0.0000 
     38 CA          2.8660   54.1520   -0.6730 C.3       6 GLP5        0.0000 
     39 CA          5.2408   54.2252    4.1205 C.3       3 GLC5        0.0000 
     40 CA          5.9330   53.9530    2.0540 C.3       9 GLL5        0.0000 
     41 CA          4.0130   54.1290    5.7620 C.3       6 GLP5        0.0000 
     42 CA          3.9014   59.5664   -0.2888 C.3       3 GLC5        0.0000 
     43 CA          2.5420   60.2260   -1.7020 C.3       6 GLP5        0.0000 
     44 CA          6.2318   59.1872   -1.5726 C.3       3 GLC5        0.0000 
     45 CA          5.8910   58.8880   -3.5220 C.3       6 GLP5        0.0000 
@<TRIPOS>BOND
@<TRIPOS>SUBSTRUCTURE
     1 ALC1       21 GROUP        1 X    ALC  0     ROOT ALC X 1
     2 SEC2        7 GROUP        1 X    SEC  0     **** SEC X 2
     3 GLC5        1 GROUP        1 X    GLC  0     **** GLC X 6
     4 ALP1       23 GROUP        1 Y    ALP  0     ROOT ALP Y 8
     5 SEP2        9 GROUP        1 Y    SEP  0     **** SEP Y 9
     6 GLP5        3 GROUP        1 Y    GLP  0     **** GLP Y 13
     7 ALL1       22 GROUP        1 Z    ALL  0     ROOT ALL Z 15
     8 SEL2        8 GROUP        1 Z    SEL  0     **** SEL Z 16
     9 GLL5        2 GROUP        1 Z    GLL  0     **** GLL Z 20
@<TRIPOS>SET

