#    Name: 4ei4_0Q2_1_ligand
#    Modification time : Mon Mar 24 17:53:25 2014

@<TRIPOS>MOLECULE
4ei4_0Q2_1_ligand
   38    41     1     0     0
SMALL
NO_CHARGES


@<TRIPOS>ATOM
      1 C1         10.2940   56.7550   -0.5130 C.3       1 0Q21201     0.0000 
      2 C2          9.1330   57.7010   -0.2740 C.2       1 0Q21201     0.0000 
      3 N3          9.1270   58.9600   -0.6400 N.2       1 0Q21201     0.0000 
      4 C4          7.9630   59.5520   -0.2730 C.ar      1 0Q21201     0.0000 
      5 C5          7.4540   60.8580   -0.3970 C.ar      1 0Q21201     0.0000 
      6 N6          6.2540   61.1740    0.0550 N.ar      1 0Q21201     0.0000 
      7 C7          5.4810   60.2620    0.6500 C.ar      1 0Q21201     0.0000 
      8 C8          5.9140   58.9270    0.8260 C.ar      1 0Q21201     0.0000 
      9 C9          7.1870   58.5520    0.3660 C.ar      1 0Q21201     0.0000 
     10 N10         7.9500   57.3840    0.3400 N.pl3     1 0Q21201     0.0000 
     11 C11         7.5940   56.0600    0.8720 C.3       1 0Q21201     0.0000 
     12 C13         6.4090   55.4710    0.0820 C.3       1 0Q21201     0.0000 
     13 C14         6.1490   54.0240    0.5280 C.3       1 0Q21201     0.0000 
     14 C15         5.9330   53.9530    2.0540 C.3       1 0Q21201     0.0000 
     15 C16         7.0040   54.6900    2.9040 C.3       1 0Q21201     0.0000 
     16 C18         7.2940   56.1100    2.3900 C.3       1 0Q21201     0.0000 
     17 O19         8.2230   53.9390    2.9360 O.3       1 0Q21201     0.0000 
     18 C20         4.8240   58.2190    1.5110 C.3       1 0Q21201     0.0000 
     19 C21         3.8540   59.1060    1.7010 C.2       1 0Q21201     0.0000 
     20 N22         4.2330   60.3310    1.1940 N.2       1 0Q21201     0.0000 
     21 H           8.0683   61.5669   -0.8629 H         1 0Q21201     0.0000 
     22 H           8.4432   55.3753    0.7320 H         1 0Q21201     0.0000 
     23 H           6.6448   55.4839   -0.9746 H         1 0Q21201     0.0000 
     24 H           5.5255   56.0682    0.2687 H         1 0Q21201     0.0000 
     25 H           7.0022   53.4075    0.2618 H         1 0Q21201     0.0000 
     26 H           5.2624   53.6476    0.0268 H         1 0Q21201     0.0000 
     27 H           5.9110   52.8944    2.3620 H         1 0Q21201     0.0000 
     28 H           4.9441   54.3778    2.2941 H         1 0Q21201     0.0000 
     29 H           6.5993   54.7875    3.9180 H         1 0Q21201     0.0000 
     30 H           6.4309   56.7370    2.5583 H         1 0Q21201     0.0000 
     31 H           8.1537   56.5111    2.9062 H         1 0Q21201     0.0000 
     32 H           5.2293   57.7989    2.4469 H         1 0Q21201     0.0000 
     33 H           4.5258   57.3653    0.8794 H         1 0Q21201     0.0000 
     34 H           2.9950   58.9443    2.1301 H         1 0Q21201     0.0000 
     35 H          11.1310   57.0746   -0.0689 H         1 0Q21201     0.0000 
     36 H          10.1057   55.8390   -0.1588 H         1 0Q21201     0.0000 
     37 H          10.4983   56.6564   -1.4869 H         1 0Q21201     0.0000 
     38 H           8.8213   54.4433    3.5587 H         1 0Q21201     0.0000 
@<TRIPOS>BOND
     1    2    1 1    
     2   35    1 1    
     3   36    1 1    
     4   37    1 1    
     5    3    2 2    
     6   10    2 1    
     7    4    3 1    
     8    5    4 ar   
     9    9    4 ar   
    10    6    5 ar   
    11   21    5 1    
    12    7    6 ar   
    13    8    7 ar   
    14   20    7 1    
    15    9    8 ar   
    16   18    8 1    
    17   10    9 1    
    18   11   10 1    
    19   12   11 1    
    20   16   11 1    
    21   22   11 1    
    22   13   12 1    
    23   23   12 1    
    24   24   12 1    
    25   14   13 1    
    26   25   13 1    
    27   26   13 1    
    28   15   14 1    
    29   27   14 1    
    30   28   14 1    
    31   16   15 1    
    32   17   15 1    
    33   29   15 1    
    34   30   16 1    
    35   31   16 1    
    36   38   17 1    
    37   19   18 1    
    38   32   18 1    
    39   33   18 1    
    40   20   19 2    
    41   34   19 1    
@<TRIPOS>SUBSTRUCTURE
     1 0Q21201     1 GROUP   
@<TRIPOS>SET

