#    Name: 4i8x_6P3_7_INTS_M
#    Modification time : Tue Mar 25 02:35:25 2014

@<TRIPOS>MOLECULE
4i8x_6P3_7_INTS_M
   28     0     9     0     0
SMALL
NO_CHARGES


@<TRIPOS>ATOM
      1 CA         10.2990   51.0635  128.6925 C.3       3 GLC5        0.0000 
      2 CA          8.8900   51.6030  127.3480 C.3       9 GLL5        0.0000 
      3 CA         11.7080   50.5240  130.0370 C.3       6 GLP5        0.0000 
      4 CA          9.9170   50.0010  129.3195 C.3       3 GLC5        0.0000 
      5 CA          8.1260   49.4780  128.6020 C.3       9 GLL5        0.0000 
      6 CA          8.4965   46.4010  131.5980 C.3       3 GLC5        0.0000 
      7 CA          7.4990   47.6080  130.0170 C.3       9 GLL5        0.0000 
      8 CA          9.4940   45.1940  133.1790 C.3       6 GLP5        0.0000 
      9 CA          9.7905   46.5090  126.7480 C.3       3 GLC5        0.0000 
     10 CA          8.0490   47.1990  127.7010 C.3       9 GLL5        0.0000 
     11 CA         11.5320   45.8190  125.7950 C.3       6 GLP5        0.0000 
     12 NZ          7.7995   43.2875  130.3435 N.4       2 LYC4        0.0000 
     13 NZ          7.5550   44.7350  130.2440 N.4       8 LYL4        0.0000 
     14 NZ          7.5660   40.9550  129.5800 N.4       5 LYP4        0.0000 
     15 N           7.7995   43.2875  130.3435 N.am      1 SEC2        0.0000 
     16 N           7.5550   44.7350  130.2440 N.am      7 SEL2        0.0000 
     17 N           8.0440   41.8400  130.4430 N.am      4 SEP2        0.0000 
     18 N           8.4885   45.2875  131.0730 N.am      1 SEC2        0.0000 
     19 N           9.4220   45.8400  131.9020 N.am      4 SEP2        0.0000 
     20 NZ          6.8885   42.9535  128.3375 N.4       2 LYC4        0.0000 
     21 NZ          6.9750   44.5410  128.0980 N.4       8 LYL4        0.0000 
     22 N           6.8885   42.9535  128.3375 N.am      1 SEC2        0.0000 
     23 N           6.9750   44.5410  128.0980 N.am      7 SEL2        0.0000 
     24 N           6.8020   41.3660  128.5770 N.am      4 SEP2        0.0000 
     25 CA          9.9591   51.4120  129.6736 C.3       3 GLC5        0.0000 
     26 CA          8.3540   50.9730  128.5050 C.3       9 GLL5        0.0000 
     27 CA          8.6300   52.7238  125.5355 C.3       3 GLC5        0.0000 
     28 CA          8.2690   53.1420  123.7500 C.3       6 GLP5        0.0000 
@<TRIPOS>BOND
@<TRIPOS>SUBSTRUCTURE
     1 SEC2       15 GROUP        1 X    SEC  0     ROOT SEC X 2
     2 LYC4       12 GROUP        1 X    LYC  0     **** LYC X 4
     3 GLC5        1 GROUP        1 X    GLC  0     **** GLC X 6
     4 SEP2       17 GROUP        1 Y    SEP  0     ROOT SEP Y 9
     5 LYP4       14 GROUP        1 Y    LYP  0     **** LYP Y 11
     6 GLP5        3 GROUP        1 Y    GLP  0     **** GLP Y 13
     7 SEL2       16 GROUP        1 Z    SEL  0     ROOT SEL Z 16
     8 LYL4       13 GROUP        1 Z    LYL  0     **** LYL Z 18
     9 GLL5        2 GROUP        1 Z    GLL  0     **** GLL Z 20
@<TRIPOS>SET

