#    Name: 4i8x_6P3_7_ligand
#    Modification time : Tue Mar 25 02:35:26 2014

@<TRIPOS>MOLECULE
4i8x_6P3_7_ligand
   23    24     1     0     0
SMALL
NO_CHARGES


@<TRIPOS>ATOM
      1 C1          8.3540   50.9730  128.5050 C.ar      1 6P3401      0.0000 
      2 C2          8.0310   51.8050  129.6060 C.ar      1 6P3401      0.0000 
      3 C3          8.2280   53.2110  129.5650 C.ar      1 6P3401      0.0000 
      4 C4          8.7620   53.8200  128.4050 C.ar      1 6P3401      0.0000 
      5 C5          9.0920   53.0080  127.2940 C.ar      1 6P3401      0.0000 
      6 C6          8.8900   51.6030  127.3480 C.ar      1 6P3401      0.0000 
      7 C12         8.1260   49.4780  128.6020 C.ar      1 6P3401      0.0000 
      8 N13         7.7260   48.9420  129.8360 N.ar      1 6P3401      0.0000 
      9 C14         7.4990   47.6080  130.0170 C.ar      1 6P3401      0.0000 
     10 C15         7.6460   46.6840  128.9610 C.ar      1 6P3401      0.0000 
     11 C16         8.0490   47.1990  127.7010 C.ar      1 6P3401      0.0000 
     12 C17         8.2840   48.5850  127.5180 C.ar      1 6P3401      0.0000 
     13 C21         7.3950   45.2430  129.1750 C.2       1 6P3401      0.0000 
     14 O22         7.5550   44.7350  130.2440 O.co2     1 6P3401      0.0000 
     15 O23         6.9750   44.5410  128.0980 O.co2     1 6P3401      0.0000 
     16 H           7.6420   51.3788  130.4614 H         1 6P3401      0.0000 
     17 H           7.9831   53.7809  130.3751 H         1 6P3401      0.0000 
     18 H           8.9060   54.8221  128.3701 H         1 6P3401      0.0000 
     19 H           9.4773   53.4318  126.4484 H         1 6P3401      0.0000 
     20 H           9.1368   51.0272  126.5318 H         1 6P3401      0.0000 
     21 H           7.2101   47.2447  130.9480 H         1 6P3401      0.0000 
     22 H           8.1721   46.5564  126.9097 H         1 6P3401      0.0000 
     23 H           8.5671   48.9359  126.6030 H         1 6P3401      0.0000 
@<TRIPOS>BOND
     1    2    1 ar   
     2    6    1 ar   
     3    7    1 1    
     4    3    2 ar   
     5   16    2 1    
     6    4    3 ar   
     7   17    3 1    
     8    5    4 ar   
     9   18    4 1    
    10    6    5 ar   
    11   19    5 1    
    12   20    6 1    
    13    8    7 ar   
    14   12    7 ar   
    15    9    8 ar   
    16   10    9 ar   
    17   21    9 1    
    18   11   10 ar   
    19   13   10 1    
    20   12   11 ar   
    21   22   11 1    
    22   23   12 1    
    23   14   13 ar   
    24   15   13 ar   
@<TRIPOS>SUBSTRUCTURE
     1 6P3401      1 GROUP   
@<TRIPOS>SET

