#    Name: 2vke_TAC_1_INTS_M
#    Modification time : Tue Mar 25 02:03:33 2014

@<TRIPOS>MOLECULE
2vke_TAC_1_INTS_M
   50     0    12     0     0
SMALL
NO_CHARGES


@<TRIPOS>ATOM
      1 CA         17.0540   33.4250   34.8475 C.3       4 GLC5        0.0000 
      2 CA         18.5600   31.9310   34.8340 C.3      12 GLL5        0.0000 
      3 CA         15.5480   34.9190   34.8610 C.3       8 GLP5        0.0000 
      4 N          16.6240   30.8650   36.5070 N.am      2 SEC2        0.0000 
      5 N          16.8930   30.3490   35.0460 N.am     10 SEL2        0.0000 
      6 N          16.3550   31.3810   37.9680 N.am      6 SEP2        0.0000 
      7 N          19.0270   29.5690   37.6100 N.am      2 SEC2        0.0000 
      8 N          19.0340   30.3980   36.5410 N.am     10 SEL2        0.0000 
      9 N          19.0200   28.7400   38.6790 N.am      6 SEP2        0.0000 
     10 N          17.6945   30.8895   37.2545 N.am      2 SEC2        0.0000 
     11 O          18.9940   29.1600   35.8575 O.2       1 ALC1        0.0000 
     12 O          19.0340   30.3980   36.5410 O.2       9 ALL1        0.0000 
     13 O          18.9540   27.9220   35.1740 O.2       5 ALP1        0.0000 
     14 O          21.1790   30.7615   38.2020 O.2       1 ALC1        0.0000 
     15 O          21.4240   31.6390   37.2770 O.2       9 ALL1        0.0000 
     16 O          20.9340   29.8840   39.1270 O.2       5 ALP1        0.0000 
     17 CA         23.5960   30.3095   35.4620 C.3       4 GLC5        0.0000 
     18 CA         22.3980   31.0100   36.3550 C.3      12 GLL5        0.0000 
     19 CA         24.7940   29.6090   34.5690 C.3       8 GLP5        0.0000 
     20 CA         21.8525   34.2960   38.8235 C.3       4 GLC5        0.0000 
     21 CA         22.1210   32.5180   38.2610 C.3      12 GLL5        0.0000 
     22 CA         21.5840   36.0740   39.3860 C.3       8 GLP5        0.0000 
     23 CA         17.4915   38.4405   38.7080 C.3       4 GLC5        0.0000 
     24 CA         18.6750   37.6270   37.1370 C.3      12 GLL5        0.0000 
     25 CA         16.3080   39.2540   40.2790 C.3       8 GLP5        0.0000 
     26 CA         20.1295   36.8505   38.2615 C.3       4 GLC5        0.0000 
     27 Zn         22.0925   36.5565   31.7680 Zn        3 ZIC7        0.0000 
     28 Zn         21.6600   37.4260   32.2610 Zn       11 ZIL7        0.0000 
     29 Zn         22.5250   35.6870   31.2750 Zn        7 ZIP7        0.0000 
     30 Zn         21.9765   35.0985   31.7930 Zn        3 ZIC7        0.0000 
     31 Zn         21.4280   34.5100   32.3110 Zn       11 ZIL7        0.0000 
     32 CA         18.6872   29.6958   34.6628 C.3       4 GLC5        0.0000 
     33 CA         18.4500   27.6660   33.9300 C.3       8 GLP5        0.0000 
     34 CA         20.9424   35.7154   37.6028 C.3       4 GLC5        0.0000 
     35 CA         20.7310   33.7800   35.8760 C.3      12 GLL5        0.0000 
     36 CA         17.0042   36.7698   36.1253 C.3       4 GLC5        0.0000 
     37 CA         19.2200   37.3680   35.7260 C.3      12 GLL5        0.0000 
     38 CA         15.0610   36.0420   35.8190 C.3       8 GLP5        0.0000 
     39 CA         18.3179   38.7163   33.8708 C.3       4 GLC5        0.0000 
     40 CA         17.2570   38.4550   32.2760 C.3       8 GLP5        0.0000 
     41 CA         20.4995   40.9455   37.0392 C.3       4 GLC5        0.0000 
     42 CA         19.2940   39.9380   35.5210 C.3      12 GLL5        0.0000 
     43 CA         21.4740   41.3730   38.8990 C.3       8 GLP5        0.0000 
     44 CA         19.1895   40.0925   32.7930 C.3       4 GLC5        0.0000 
     45 CA         19.7560   41.0980   34.8380 C.3      12 GLL5        0.0000 
     46 CA         18.1980   39.1370   31.3120 C.3       8 GLP5        0.0000 
     47 CA         20.9013   41.1817   31.8415 C.3       4 GLC5        0.0000 
     48 CA         20.9690   39.7170   33.2620 C.3      12 GLL5        0.0000 
     49 CA         21.0150   42.0060   30.1970 C.3       8 GLP5        0.0000 
     50 CA         19.4823   39.1415   32.4600 C.3       4 GLC5        0.0000 
@<TRIPOS>BOND
@<TRIPOS>SUBSTRUCTURE
     1 ALC1       11 GROUP        1 X    ALC  0     ROOT ALC X 1
     2 SEC2        4 GROUP        1 X    SEC  0     **** SEC X 2
     3 ZIC7       27 GROUP        1 X    ZIC  0     **** ZIC X 5
     4 GLC5        1 GROUP        1 X    GLC  0     **** GLC X 6
     5 ALP1       13 GROUP        1 Y    ALP  0     ROOT ALP Y 8
     6 SEP2        6 GROUP        1 Y    SEP  0     **** SEP Y 9
     7 ZIP7       29 GROUP        1 Y    ZIP  0     **** ZIP Y 12
     8 GLP5        3 GROUP        1 Y    GLP  0     **** GLP Y 13
     9 ALL1       12 GROUP        1 Z    ALL  0     ROOT ALL Z 15
    10 SEL2        5 GROUP        1 Z    SEL  0     **** SEL Z 16
    11 ZIL7       28 GROUP        1 Z    ZIL  0     **** ZIL Z 19
    12 GLL5        2 GROUP        1 Z    GLL  0     **** GLL Z 20
@<TRIPOS>SET

