#    Name: 2vke_TAC_1_ligand
#    Modification time : Tue Mar 25 02:03:33 2014

@<TRIPOS>MOLECULE
2vke_TAC_1_ligand
   56    59     1     0     0
SMALL
NO_CHARGES


@<TRIPOS>ATOM
      1 C1         19.0210   33.1510   34.1440 C.2       1 TAC222      0.0000 
      2 O1         18.2590   33.6660   33.2460 O.2       1 TAC222      0.0000 
      3 C2         18.5600   31.9310   34.8340 C.2       1 TAC222      0.0000 
      4 C21        17.3730   31.2480   34.3340 C.2       1 TAC222      0.0000 
      5 O21        16.8930   30.3490   35.0460 O.2       1 TAC222      0.0000 
      6 N21        16.6610   31.7390   33.2850 N.am      1 TAC222      0.0000 
      7 C3         19.2890   31.5200   35.9570 C.2       1 TAC222      0.0000 
      8 O3         19.0340   30.3980   36.5410 O.3       1 TAC222      0.0000 
      9 C4         20.3450   32.4170   36.6050 C.3       1 TAC222      0.0000 
     10 N4         21.4240   31.6390   37.2770 N.4       1 TAC222      0.0000 
     11 C42        22.3980   31.0100   36.3550 C.3       1 TAC222      0.0000 
     12 C43        22.1210   32.5180   38.2610 C.3       1 TAC222      0.0000 
     13 C41        20.7310   33.7800   35.8760 C.3       1 TAC222      0.0000 
     14 C5         19.8420   35.0010   36.2100 C.3       1 TAC222      0.0000 
     15 C51        20.3150   36.3230   35.5960 C.3       1 TAC222      0.0000 
     16 C6         19.2200   37.3680   35.7260 C.3       1 TAC222      0.0000 
     17 C62        18.6750   37.6270   37.1370 C.3       1 TAC222      0.0000 
     18 O6         18.0570   36.8680   34.9890 O.3       1 TAC222      0.0000 
     19 C61        19.7070   38.6660   35.0940 C.ar      1 TAC222      0.0000 
     20 C7         19.2940   39.9380   35.5210 C.ar      1 TAC222      0.0000 
     21 C8         19.7560   41.0980   34.8380 C.ar      1 TAC222      0.0000 
     22 C9         20.6060   40.9980   33.7100 C.ar      1 TAC222      0.0000 
     23 C10        20.9690   39.7170   33.2620 C.ar      1 TAC222      0.0000 
     24 O10        21.7410   39.5110   32.1890 O.3       1 TAC222      0.0000 
     25 C1A        20.5640   38.5750   33.9540 C.ar      1 TAC222      0.0000 
     26 C11        21.1040   37.3310   33.4270 C.2       1 TAC222      0.0000 
     27 O11        21.6600   37.4260   32.2610 O.2       1 TAC222      0.0000 
     28 C1B        20.8300   36.1220   34.1210 C.2       1 TAC222      0.0000 
     29 C12        20.9590   34.8060   33.5660 C.2       1 TAC222      0.0000 
     30 O12        21.4280   34.5100   32.3110 O.3       1 TAC222      0.0000 
     31 C1C        20.5310   33.5760   34.3740 C.3       1 TAC222      0.0000 
     32 O1C        21.3910   32.5330   33.8750 O.3       1 TAC222      0.0000 
     33 H          15.8516   31.2154   33.0190 H         1 TAC222      0.0000 
     34 H          17.0095   32.5804   32.8720 H         1 TAC222      0.0000 
     35 H          19.7164   32.8475   37.5686 H         1 TAC222      0.0000 
     36 H          20.9349   30.8315   37.8681 H         1 TAC222      0.0000 
     37 H          21.7455   34.0060   36.0509 H         1 TAC222      0.0000 
     38 H          19.7955   35.1099   37.3065 H         1 TAC222      0.0000 
     39 H          18.8158   34.7909   35.8649 H         1 TAC222      0.0000 
     40 H          21.1809   36.6621   36.1922 H         1 TAC222      0.0000 
     41 H          18.6653   40.0396   36.3168 H         1 TAC222      0.0000 
     42 H          19.4651   42.0254   35.1727 H         1 TAC222      0.0000 
     43 H          20.9397   41.8286   33.2435 H         1 TAC222      0.0000 
     44 H          22.8689   31.6894   35.7922 H         1 TAC222      0.0000 
     45 H          23.1020   30.5004   36.8497 H         1 TAC222      0.0000 
     46 H          21.9557   30.3671   35.7296 H         1 TAC222      0.0000 
     47 H          22.8541   32.0332   38.7380 H         1 TAC222      0.0000 
     48 H          22.5349   33.3142   37.8198 H         1 TAC222      0.0000 
     49 H          21.4945   32.8629   38.9599 H         1 TAC222      0.0000 
     50 H          19.3921   37.9376   37.7609 H         1 TAC222      0.0000 
     51 H          17.9625   38.3287   37.1369 H         1 TAC222      0.0000 
     52 H          18.2747   36.8028   37.5376 H         1 TAC222      0.0000 
     53 H          19.0435   29.7171   35.8086 H         1 TAC222      0.0000 
     54 H          18.3586   36.0045   34.5848 H         1 TAC222      0.0000 
     55 H          21.1534   39.0342   31.5352 H         1 TAC222      0.0000 
     56 H          21.7392   32.8795   33.0040 H         1 TAC222      0.0000 
@<TRIPOS>BOND
     1    2    1 2    
     2    3    1 1    
     3   31    1 1    
     4    4    3 1    
     5    7    3 2    
     6    5    4 2    
     7    6    4 am   
     8   33    6 1    
     9   34    6 1    
    10    8    7 1    
    11    9    7 1    
    12   53    8 1    
    13   10    9 1    
    14   13    9 1    
    15   35    9 1    
    16   11   10 1    
    17   12   10 1    
    18   36   10 1    
    19   44   11 1    
    20   45   11 1    
    21   46   11 1    
    22   47   12 1    
    23   48   12 1    
    24   49   12 1    
    25   14   13 1    
    26   31   13 1    
    27   37   13 1    
    28   15   14 1    
    29   38   14 1    
    30   39   14 1    
    31   16   15 1    
    32   28   15 1    
    33   40   15 1    
    34   17   16 1    
    35   18   16 1    
    36   19   16 1    
    37   50   17 1    
    38   51   17 1    
    39   52   17 1    
    40   54   18 1    
    41   20   19 ar   
    42   25   19 ar   
    43   21   20 ar   
    44   41   20 1    
    45   22   21 ar   
    46   42   21 1    
    47   23   22 ar   
    48   43   22 1    
    49   24   23 1    
    50   25   23 ar   
    51   55   24 1    
    52   26   25 1    
    53   27   26 2    
    54   28   26 1    
    55   29   28 2    
    56   30   29 1    
    57   31   29 1    
    58   32   31 1    
    59   56   32 1    
@<TRIPOS>SUBSTRUCTURE
     1 TAC222      1 GROUP   
@<TRIPOS>SET

