#    Name: 3nxy_D2H_1_INTS_M
#    Modification time : Tue Mar 25 02:56:36 2014

@<TRIPOS>MOLECULE
3nxy_D2H_1_INTS_M
   79     0     9     0     0
SMALL
NO_CHARGES


@<TRIPOS>ATOM
      1 N          -4.0075   16.9480   21.0700 N.am      2 SEC2        0.0000 
      2 N          -3.5790   17.7280   22.1300 N.am      8 SEL2        0.0000 
      3 N          -4.4360   16.1680   20.0100 N.am      5 SEP2        0.0000 
      4 CA         -1.7280   20.5565   21.8080 C.3       3 GLC5        0.0000 
      5 CA         -3.0620   18.9700   21.9340 C.3       9 GLL5        0.0000 
      6 CA         -0.3940   22.1430   21.6820 C.3       6 GLP5        0.0000 
      7 CA         -3.7845   20.8780   22.6010 C.3       3 GLC5        0.0000 
      8 CA         -4.5070   22.7860   23.2680 C.3       6 GLP5        0.0000 
      9 CA         -4.8900   19.0065   21.5500 C.3       3 GLC5        0.0000 
     10 CA         -6.7180   19.0430   21.1660 C.3       6 GLP5        0.0000 
     11 CA         -1.3975   17.8545   21.9320 C.3       3 GLC5        0.0000 
     12 CA          0.2670   16.7390   21.9300 C.3       6 GLP5        0.0000 
     13 CA         -3.7020   21.0730   23.7495 C.3       3 GLC5        0.0000 
     14 CA         -2.8970   19.3600   24.2310 C.3       9 GLL5        0.0000 
     15 CA         -5.2495   18.1520   22.2585 C.3       3 GLC5        0.0000 
     16 CA         -3.7810   17.2610   23.3510 C.3       9 GLL5        0.0000 
     17 CA         -1.7570   17.0000   22.6405 C.3       3 GLC5        0.0000 
     18 CA          0.2180   17.6515   27.5380 C.3       3 GLC5        0.0000 
     19 CA         -0.8550   17.4740   29.0600 C.3       9 GLL5        0.0000 
     20 CA          1.2910   17.8290   26.0160 C.3       6 GLP5        0.0000 
     21 CA          0.0780   16.1350   30.5970 C.3       3 GLC5        0.0000 
     22 CA          1.0110   14.7960   32.1340 C.3       6 GLP5        0.0000 
     23 CA          1.2965   16.8905   29.0770 C.3       3 GLC5        0.0000 
     24 CA          3.4480   16.3070   29.0940 C.3       6 GLP5        0.0000 
     25 CA         -0.0575   19.0155   29.4115 C.3       3 GLC5        0.0000 
     26 CA          0.7400   20.5570   29.7630 C.3       6 GLP5        0.0000 
     27 CA         -5.9525   13.0655   24.6060 C.3       3 GLC5        0.0000 
     28 CA         -4.5560   12.0980   24.9900 C.3       9 GLL5        0.0000 
     29 CA         -7.3490   14.0330   24.2220 C.3       6 GLP5        0.0000 
     30 CA         -2.8465   12.5465   24.2115 C.3       3 GLC5        0.0000 
     31 CA         -1.1370   12.9950   23.4330 C.3       6 GLP5        0.0000 
     32 CA          0.2740   15.5065   26.5965 C.3       3 GLC5        0.0000 
     33 CA         -1.0830   14.4590   27.6530 C.3       9 GLL5        0.0000 
     34 CA          1.6310   16.5540   25.5400 C.3       6 GLP5        0.0000 
     35 CA         -0.7215   14.3100   29.8510 C.3       3 GLC5        0.0000 
     36 CA         -0.3600   14.1610   32.0490 C.3       6 GLP5        0.0000 
     37 CA          1.1140   14.2240   27.9705 C.3       3 GLC5        0.0000 
     38 CA          3.3110   13.9890   28.2880 C.3       6 GLP5        0.0000 
     39 O          -3.3990   18.6040   19.6820 O.2       1 ALC1        0.0000 
     40 O          -2.9040   19.3590   20.6910 O.2       7 ALL1        0.0000 
     41 O          -3.8940   17.8490   18.6730 O.2       4 ALP1        0.0000 
     42 O          -2.7220   20.7440   19.7995 O.2       1 ALC1        0.0000 
     43 O          -2.5400   22.1290   18.9080 O.2       4 ALP1        0.0000 
     44 O          -4.3580   16.1010   21.7325 O.2       1 ALC1        0.0000 
     45 O          -4.2800   16.0340   23.4550 O.2       7 ALL1        0.0000 
     46 O          -4.4360   16.1680   20.0100 O.2       4 ALP1        0.0000 
     47 CA         -5.9225   16.2380   26.1845 C.3       3 GLC5        0.0000 
     48 CA         -4.0280   16.7440   26.4830 C.3       9 GLL5        0.0000 
     49 CA         -7.8170   15.7320   25.8860 C.3       6 GLP5        0.0000 
     50 CA         -5.2260   18.1415   26.8445 C.3       3 GLC5        0.0000 
     51 CA         -6.4240   19.5390   27.2060 C.3       6 GLP5        0.0000 
     52 CA         -8.2660   12.9075   29.4300 C.3       3 GLC5        0.0000 
     53 CA         -6.2900   12.9560   28.7530 C.3       9 GLL5        0.0000 
     54 CA        -10.2420   12.8590   30.1070 C.3       6 GLP5        0.0000 
     55 CA         -1.3295   20.0360   27.3935 C.3       3 GLC5        0.0000 
     56 CA         -3.0360   19.0220   26.4340 C.3       9 GLL5        0.0000 
     57 CA          0.3770   21.0500   28.3530 C.3       6 GLP5        0.0000 
     58 CA         -1.0885   15.2425   30.5290 C.3       3 GLC5        0.0000 
     59 CA         -1.8170   16.3240   29.0090 C.3       9 GLL5        0.0000 
     60 N          -4.2655   20.0890   25.2205 N.am      2 SEC2        0.0000 
     61 N          -2.6460   19.9440   25.4640 N.am      8 SEL2        0.0000 
     62 N          -5.8850   20.2340   24.9770 N.am      5 SEP2        0.0000 
     63 CA         -0.3035   16.7905   26.8070 C.3       3 GLC5        0.0000 
     64 CA         -1.8980   15.7520   27.5980 C.3       9 GLL5        0.0000 
     65 CA         -2.0070   17.9335   30.5682 C.3       3 GLC5        0.0000 
     66 CA         -2.6780   18.9680   32.1020 C.3       6 GLP5        0.0000 
     67 CA         -0.9253   14.0922   26.0998 C.3       3 GLC5        0.0000 
     68 CA         -0.3600   13.0790   24.5740 C.3       6 GLP5        0.0000 
     69 CA         -5.7100   14.4645   31.2415 C.3       3 GLC5        0.0000 
     70 CA         -5.0000   14.9970   28.9450 C.3       9 GLL5        0.0000 
     71 CA         -5.9480   14.3720   33.2800 C.3       6 GLP5        0.0000 
     72 CA         -6.5240   15.8800   30.1365 C.3       3 GLC5        0.0000 
     73 CA         -5.9440   14.1170   29.4610 C.3       9 GLL5        0.0000 
     74 CA         -7.5760   17.2030   31.0700 C.3       6 GLP5        0.0000 
     75 CA         -6.7093   13.7333   26.5376 C.3       3 GLC5        0.0000 
     76 CA         -5.6860   12.6780   27.5280 C.3       9 GLL5        0.0000 
     77 CA         -8.0510   14.2780   25.5070 C.3       6 GLP5        0.0000 
     78 CA         -6.3688   15.1898   27.1728 C.3       3 GLC5        0.0000 
     79 CA         -4.3690   14.7380   27.7160 C.3       9 GLL5        0.0000 
@<TRIPOS>BOND
@<TRIPOS>SUBSTRUCTURE
     1 ALC1       39 GROUP        1 X    ALC  0     ROOT ALC X 1
     2 SEC2        1 GROUP        1 X    SEC  0     **** SEC X 2
     3 GLC5        4 GROUP        1 X    GLC  0     **** GLC X 6
     4 ALP1       41 GROUP        1 Y    ALP  0     ROOT ALP Y 8
     5 SEP2        3 GROUP        1 Y    SEP  0     **** SEP Y 9
     6 GLP5        6 GROUP        1 Y    GLP  0     **** GLP Y 13
     7 ALL1       40 GROUP        1 Z    ALL  0     ROOT ALL Z 15
     8 SEL2        2 GROUP        1 Z    SEL  0     **** SEL Z 16
     9 GLL5        5 GROUP        1 Z    GLL  0     **** GLL Z 20
@<TRIPOS>SET

