#    Name: 3nxy_D2H_1_ligand
#    Modification time : Tue Mar 25 02:56:36 2014

@<TRIPOS>MOLECULE
3nxy_D2H_1_ligand
   47    49     1     0     0
SMALL
NO_CHARGES


@<TRIPOS>ATOM
      1 N1         -3.5790   17.7280   22.1300 N.ar      1 D2H188      0.0000 
      2 C2         -3.0620   18.9700   21.9340 C.ar      1 D2H188      0.0000 
      3 N3         -2.7110   19.7740   22.9700 N.ar      1 D2H188      0.0000 
      4 C4         -2.8970   19.3600   24.2310 C.ar      1 D2H188      0.0000 
      5 C5         -3.4440   18.0800   24.4520 C.ar      1 D2H188      0.0000 
      6 C6         -3.7810   17.2610   23.3510 C.ar      1 D2H188      0.0000 
      7 CAA        -0.8550   17.4740   29.0600 C.3       1 D2H188      0.0000 
      8 CAB        -4.5560   12.0980   24.9900 C.3       1 D2H188      0.0000 
      9 CAC        -1.0830   14.4590   27.6530 C.3       1 D2H188      0.0000 
     10 NAD        -2.9040   19.3590   20.6910 N.pl3     1 D2H188      0.0000 
     11 NAE        -4.2800   16.0340   23.4550 N.pl3     1 D2H188      0.0000 
     12 CAF        -4.0280   16.7440   26.4830 C.2       1 D2H188      0.0000 
     13 CAG        -6.2900   12.9560   28.7530 C.ar      1 D2H188      0.0000 
     14 CAH        -5.9440   14.1170   29.4610 C.ar      1 D2H188      0.0000 
     15 CAI        -5.6860   12.6780   27.5280 C.ar      1 D2H188      0.0000 
     16 CAJ        -5.0000   14.9970   28.9450 C.ar      1 D2H188      0.0000 
     17 CAK        -3.0360   19.0220   26.4340 C.2       1 D2H188      0.0000 
     18 CAL        -1.8170   16.3240   29.0090 C.3       1 D2H188      0.0000 
     19 OAO        -4.1590   13.2660   25.7870 O.3       1 D2H188      0.0000 
     20 OAP        -2.6460   19.9440   25.4640 O.3       1 D2H188      0.0000 
     21 CAQ        -3.4290   15.6940   27.2170 C.2       1 D2H188      0.0000 
     22 CAS        -3.4840   17.8970   25.8380 C.2       1 D2H188      0.0000 
     23 CAU        -4.7470   13.5600   26.9960 C.ar      1 D2H188      0.0000 
     24 CAV        -4.3690   14.7380   27.7160 C.ar      1 D2H188      0.0000 
     25 CAY        -1.8980   15.7520   27.5980 C.3       1 D2H188      0.0000 
     26 H          -3.1637   18.6982   19.9868 H         1 D2H188      0.0000 
     27 H          -2.5383   20.2807   20.5615 H         1 D2H188      0.0000 
     28 H          -4.4729   15.5630   22.5942 H         1 D2H188      0.0000 
     29 H          -4.4176   15.6923   24.3847 H         1 D2H188      0.0000 
     30 H          -5.1289   16.6609   26.3872 H         1 D2H188      0.0000 
     31 H          -6.9895   12.3130   29.1413 H         1 D2H188      0.0000 
     32 H          -6.3939   14.3123   30.3647 H         1 D2H188      0.0000 
     33 H          -5.9333   11.8216   27.0164 H         1 D2H188      0.0000 
     34 H          -4.7545   15.8535   29.4657 H         1 D2H188      0.0000 
     35 H          -2.9837   19.1872   27.3838 H         1 D2H188      0.0000 
     36 H          -2.8109   16.6575   29.3131 H         1 D2H188      0.0000 
     37 H          -1.4914   15.5369   29.6916 H         1 D2H188      0.0000 
     38 H          -1.4062   16.4666   26.9517 H         1 D2H188      0.0000 
     39 H           0.0680   17.1983   28.7916 H         1 D2H188      0.0000 
     40 H          -1.1293   18.2151   28.4472 H         1 D2H188      0.0000 
     41 H          -0.7892   17.8627   29.9790 H         1 D2H188      0.0000 
     42 H          -4.0277   12.0289   24.1437 H         1 D2H188      0.0000 
     43 H          -4.4204   11.2431   25.4908 H         1 D2H188      0.0000 
     44 H          -5.5211   12.1359   24.7308 H         1 D2H188      0.0000 
     45 H          -0.1321   14.6301   27.9108 H         1 D2H188      0.0000 
     46 H          -1.4557   13.8132   28.3193 H         1 D2H188      0.0000 
     47 H          -1.0676   13.9918   26.7690 H         1 D2H188      0.0000 
@<TRIPOS>BOND
     1    2    1 ar   
     2    6    1 ar   
     3    3    2 ar   
     4   10    2 1    
     5    4    3 ar   
     6    5    4 ar   
     7   20    4 1    
     8    6    5 ar   
     9   22    5 1    
    10   11    6 1    
    11   18    7 1    
    12   39    7 1    
    13   40    7 1    
    14   41    7 1    
    15   19    8 1    
    16   42    8 1    
    17   43    8 1    
    18   44    8 1    
    19   25    9 1    
    20   45    9 1    
    21   46    9 1    
    22   47    9 1    
    23   26   10 1    
    24   27   10 1    
    25   28   11 1    
    26   29   11 1    
    27   21   12 2    
    28   22   12 1    
    29   30   12 1    
    30   14   13 ar   
    31   15   13 ar   
    32   31   13 1    
    33   16   14 ar   
    34   32   14 1    
    35   23   15 ar   
    36   33   15 1    
    37   24   16 ar   
    38   34   16 1    
    39   20   17 1    
    40   22   17 2    
    41   35   17 1    
    42   25   18 1    
    43   36   18 1    
    44   37   18 1    
    45   23   19 1    
    46   24   21 1    
    47   25   21 1    
    48   24   23 ar   
    49   38   25 1    
@<TRIPOS>SUBSTRUCTURE
     1 D2H188      1 GROUP   
@<TRIPOS>SET

