#    Name: 3hqp_ATP_14_INTS_M
#    Modification time : Tue Mar 25 14:52:19 2014

@<TRIPOS>MOLECULE
3hqp_ATP_14_INTS_M
   67     0    12     0     0
SMALL
NO_CHARGES


@<TRIPOS>ATOM
      1 Zn         21.4520   23.9045  -31.4355 Zn        3 ZIC7        0.0000 
      2 Zn         21.3580   24.2840  -30.4500 Zn       11 ZIL7        0.0000 
      3 Zn         21.5460   23.5250  -32.4210 Zn        7 ZIP7        0.0000 
      4 Zn         19.5010   24.2905  -27.7450 Zn        3 ZIC7        0.0000 
      5 Zn         20.5110   24.1410  -28.0570 Zn       11 ZIL7        0.0000 
      6 Zn         18.4910   24.4400  -27.4330 Zn        7 ZIP7        0.0000 
      7 NZ         22.3195   26.8265  -29.3445 N.4       2 LYC4        0.0000 
      8 NZ         22.5000   25.6120  -28.5970 N.4      10 LYL4        0.0000 
      9 NZ         22.7770   28.8410  -30.9340 N.4       6 LYP4        0.0000 
     10 N          22.3195   26.8265  -29.3445 N.am      1 SEC2        0.0000 
     11 N          22.5000   25.6120  -28.5970 N.am      9 SEL2        0.0000 
     12 N          22.1390   28.0410  -30.0920 N.am      5 SEP2        0.0000 
     13 Zn         22.1535   22.9505  -31.7795 Zn        3 ZIC7        0.0000 
     14 Zn         22.7610   22.3760  -31.1380 Zn       11 ZIL7        0.0000 
     15 NZ         24.2030   20.9330  -27.9805 N.4       2 LYC4        0.0000 
     16 NZ         24.3920   21.3760  -29.3720 N.4      10 LYL4        0.0000 
     17 NZ         23.6090   21.3860  -25.6980 N.4       6 LYP4        0.0000 
     18 N          24.2030   20.9330  -27.9805 N.am      1 SEC2        0.0000 
     19 N          24.3920   21.3760  -29.3720 N.am      9 SEL2        0.0000 
     20 N          24.0140   20.4900  -26.5890 N.am      5 SEP2        0.0000 
     21 N          22.9275   22.8590  -27.4155 N.am      1 SEC2        0.0000 
     22 N          22.6990   23.1560  -28.7210 N.am      9 SEL2        0.0000 
     23 N          23.1560   22.5620  -26.1100 N.am      5 SEP2        0.0000 
     24 Zn         22.4925   23.9895  -32.3510 Zn        3 ZIC7        0.0000 
     25 Zn         23.4390   24.4540  -32.2810 Zn       11 ZIL7        0.0000 
     26 N          22.8170   25.2260  -33.5560 N.am      1 SEC2        0.0000 
     27 N          23.4390   24.4540  -32.2810 N.am      9 SEL2        0.0000 
     28 N          22.1950   25.9980  -34.8310 N.am      5 SEP2        0.0000 
     29 NZ         24.2835   27.2145  -31.4355 N.4       2 LYC4        0.0000 
     30 NZ         25.0070   26.1170  -31.0080 N.4      10 LYL4        0.0000 
     31 N          24.2835   27.2145  -31.4355 N.am      1 SEC2        0.0000 
     32 N          25.0070   26.1170  -31.0080 N.am      9 SEL2        0.0000 
     33 N          23.5600   28.3120  -31.8630 N.am      5 SEP2        0.0000 
     34 CA         24.5675   24.1620  -34.3200 C.3       4 GLC5        0.0000 
     35 CA         25.9070   22.9790  -33.0900 C.3      12 GLL5        0.0000 
     36 CA         23.2280   25.3450  -35.5500 C.3       8 GLP5        0.0000 
     37 N          28.1535   19.1460  -33.2095 N.am      1 SEC2        0.0000 
     38 N          27.1400   19.9830  -32.1590 N.am      9 SEL2        0.0000 
     39 N          29.1670   18.3090  -34.2600 N.am      5 SEP2        0.0000 
     40 CA         28.7660   21.7305  -29.0780 C.3       4 GLC5        0.0000 
     41 CA         28.7740   21.5760  -31.3010 C.3      12 GLL5        0.0000 
     42 CA         28.7580   21.8850  -26.8550 C.3       8 GLP5        0.0000 
     43 N          28.9440   19.1720  -30.5505 N.am      1 SEC2        0.0000 
     44 N          29.5890   20.4160  -31.5080 N.am      9 SEL2        0.0000 
     45 N          28.2990   17.9280  -29.5930 N.am      5 SEP2        0.0000 
     46 CA         29.4570   24.3735  -33.3160 C.3       4 GLC5        0.0000 
     47 CA         29.3360   22.7420  -32.1030 C.3      12 GLL5        0.0000 
     48 CA         29.5780   26.0050  -34.5290 C.3       8 GLP5        0.0000 
     49 CA         29.9750   21.4375  -33.6215 C.3       4 GLC5        0.0000 
     50 CA         30.6140   20.1330  -35.1400 C.3       8 GLP5        0.0000 
     51 CA         33.6825   24.5950  -31.3615 C.3       4 GLC5        0.0000 
     52 CA         33.0240   24.0300  -29.8350 C.3      12 GLL5        0.0000 
     53 CA         34.3410   25.1600  -32.8880 C.3       8 GLP5        0.0000 
     54 CA         31.4880   24.1035  -28.2115 C.3       4 GLC5        0.0000 
     55 CA         29.9520   24.1770  -26.5880 C.3       8 GLP5        0.0000 
     56 CA         32.5665   24.6495  -31.7440 C.3       4 GLC5        0.0000 
     57 CA         30.7920   24.1390  -30.6000 C.3      12 GLL5        0.0000 
     58 CA         26.7075   23.0895  -34.8818 C.3       4 GLC5        0.0000 
     59 CA         27.2330   22.2170  -33.0670 C.3      12 GLL5        0.0000 
     60 CA         26.8450   23.5810  -36.6850 C.3       8 GLP5        0.0000 
     61 CA         28.6301   20.5971  -33.5067 C.3       4 GLC5        0.0000 
     62 CA         29.2240   19.5130  -35.1410 C.3       8 GLP5        0.0000 
     63 CA         32.0512   26.6715  -31.1058 C.3       4 GLC5        0.0000 
     64 CA         30.6040   25.3810  -29.8230 C.3      12 GLL5        0.0000 
     65 CA         32.9140   27.7140  -32.7770 C.3       8 GLP5        0.0000 
     66 CA         30.4711   24.5305  -28.3026 C.3       4 GLC5        0.0000 
     67 CA         31.7730   25.8770  -29.0460 C.3      12 GLL5        0.0000 
@<TRIPOS>BOND
@<TRIPOS>SUBSTRUCTURE
     1 SEC2       10 GROUP        1 X    SEC  0     ROOT SEC X 2
     2 LYC4        7 GROUP        1 X    LYC  0     **** LYC X 4
     3 ZIC7        1 GROUP        1 X    ZIC  0     **** ZIC X 5
     4 GLC5       34 GROUP        1 X    GLC  0     **** GLC X 6
     5 SEP2       12 GROUP        1 Y    SEP  0     ROOT SEP Y 9
     6 LYP4        9 GROUP        1 Y    LYP  0     **** LYP Y 11
     7 ZIP7        3 GROUP        1 Y    ZIP  0     **** ZIP Y 12
     8 GLP5       36 GROUP        1 Y    GLP  0     **** GLP Y 13
     9 SEL2       11 GROUP        1 Z    SEL  0     ROOT SEL Z 16
    10 LYL4        8 GROUP        1 Z    LYL  0     **** LYL Z 18
    11 ZIL7        2 GROUP        1 Z    ZIL  0     **** ZIL Z 19
    12 GLL5       35 GROUP        1 Z    GLL  0     **** GLL Z 20
@<TRIPOS>SET

