#    Name: 3hqp_ATP_14_ligand
#    Modification time : Tue Mar 25 14:52:19 2014

@<TRIPOS>MOLECULE
3hqp_ATP_14_ligand
   43    45     1     0     0
SMALL
NO_CHARGES


@<TRIPOS>ATOM
      1 PG         21.6890   24.3920  -28.9740 P.3       1 ATP1001     0.0000 
      2 O1G        21.3580   24.2840  -30.4500 O.co2     1 ATP1001     0.0000 
      3 O2G        20.5110   24.1410  -28.0570 O.co2     1 ATP1001     0.0000 
      4 O3G        22.5000   25.6120  -28.5970 O.co2     1 ATP1001     0.0000 
      5 PB         23.6240   22.5600  -29.9080 P.3       1 ATP1001     0.0000 
      6 O1B        22.7610   22.3760  -31.1380 O.co2     1 ATP1001     0.0000 
      7 O2B        24.3920   21.3760  -29.3720 O.co2     1 ATP1001     0.0000 
      8 O3B        22.6990   23.1560  -28.7210 O.3       1 ATP1001     0.0000 
      9 PA         24.6940   24.7110  -31.4700 P.3       1 ATP1001     0.0000 
     10 O1A        23.4390   24.4540  -32.2810 O.co2     1 ATP1001     0.0000 
     11 O2A        25.0070   26.1170  -31.0080 O.co2     1 ATP1001     0.0000 
     12 O3A        24.6860   23.7570  -30.1590 O.3       1 ATP1001     0.0000 
     13 O5'        25.9740   24.1620  -32.2900 O.3       1 ATP1001     0.0000 
     14 C5'        25.9070   22.9790  -33.0900 C.3       1 ATP1001     0.0000 
     15 C4'        27.2330   22.2170  -33.0670 C.3       1 ATP1001     0.0000 
     16 O4'        28.3620   23.1010  -33.0920 O.3       1 ATP1001     0.0000 
     17 C3'        27.3640   21.3560  -31.8210 C.3       1 ATP1001     0.0000 
     18 O3'        27.1400   19.9830  -32.1590 O.3       1 ATP1001     0.0000 
     19 C2'        28.7740   21.5760  -31.3010 C.3       1 ATP1001     0.0000 
     20 O2'        29.5890   20.4160  -31.5080 O.3       1 ATP1001     0.0000 
     21 C1'        29.3360   22.7420  -32.1030 C.3       1 ATP1001     0.0000 
     22 N9         29.6220   23.8940  -31.2050 N.pl3     1 ATP1001     0.0000 
     23 C8         28.7550   24.8700  -30.8620 C.2       1 ATP1001     0.0000 
     24 N7         29.3320   25.7750  -30.0290 N.2       1 ATP1001     0.0000 
     25 C5         30.6040   25.3810  -29.8230 C.ar      1 ATP1001     0.0000 
     26 C6         31.7730   25.8770  -29.0460 C.ar      1 ATP1001     0.0000 
     27 N6         31.6950   27.0060  -28.3000 N.pl3     1 ATP1001     0.0000 
     28 N1         32.9230   25.1600  -29.1030 N.ar      1 ATP1001     0.0000 
     29 C2         33.0240   24.0300  -29.8350 C.ar      1 ATP1001     0.0000 
     30 N3         32.0070   23.5250  -30.5640 N.ar      1 ATP1001     0.0000 
     31 C4         30.7920   24.1390  -30.6000 C.ar      1 ATP1001     0.0000 
     32 H          25.6760   23.2135  -34.1419 H         1 ATP1001     0.0000 
     33 H          25.1222   22.2922  -32.7332 H         1 ATP1001     0.0000 
     34 H          27.2600   21.5502  -33.9273 H         1 ATP1001     0.0000 
     35 H          26.6713   21.7174  -31.0927 H         1 ATP1001     0.0000 
     36 H          28.7221   21.8676  -30.2793 H         1 ATP1001     0.0000 
     37 H          30.2493   22.4107  -32.5695 H         1 ATP1001     0.0000 
     38 H          27.8239   24.9235  -31.1727 H         1 ATP1001     0.0000 
     39 H          32.5204   27.2573  -27.7946 H         1 ATP1001     0.0000 
     40 H          30.8189   27.4877  -28.3211 H         1 ATP1001     0.0000 
     41 H          33.9538   23.5110  -29.8369 H         1 ATP1001     0.0000 
     42 H          26.8609   19.5481  -31.3029 H         1 ATP1001     0.0000 
     43 H          28.9670   19.7253  -31.8767 H         1 ATP1001     0.0000 
@<TRIPOS>BOND
     1    2    1 ar   
     2    3    1 ar   
     3    4    1 ar   
     4    8    1 1    
     5    6    5 ar   
     6    7    5 ar   
     7    8    5 1    
     8   12    5 1    
     9   10    9 ar   
    10   11    9 ar   
    11   12    9 1    
    12   13    9 1    
    13   14   13 1    
    14   15   14 1    
    15   32   14 1    
    16   33   14 1    
    17   16   15 1    
    18   17   15 1    
    19   34   15 1    
    20   21   16 1    
    21   18   17 1    
    22   19   17 1    
    23   35   17 1    
    24   42   18 1    
    25   20   19 1    
    26   21   19 1    
    27   36   19 1    
    28   43   20 1    
    29   22   21 1    
    30   37   21 1    
    31   23   22 1    
    32   31   22 1    
    33   24   23 2    
    34   38   23 1    
    35   25   24 1    
    36   26   25 ar   
    37   31   25 ar   
    38   27   26 1    
    39   28   26 ar   
    40   39   27 1    
    41   40   27 1    
    42   29   28 ar   
    43   30   29 ar   
    44   41   29 1    
    45   31   30 ar   
@<TRIPOS>SUBSTRUCTURE
     1 ATP1001     1 GROUP   
@<TRIPOS>SET

