#    Name: 3i7g_732_1_INTS_M
#    Modification time : Tue Mar 25 15:58:47 2014

@<TRIPOS>MOLECULE
3i7g_732_1_INTS_M
   57     0     9     0     0
SMALL
NO_CHARGES


@<TRIPOS>ATOM
      1 CA         -4.8950   29.3675   51.2755 C.3       3 GLC5        0.0000 
      2 CA         -6.7270   28.1890   51.2790 C.3       9 GLL5        0.0000 
      3 CA         -3.0630   30.5460   51.2720 C.3       6 GLP5        0.0000 
      4 CA         -8.5605   26.0600   47.2445 C.3       3 GLC5        0.0000 
      5 CA         -8.8490   27.9920   47.9060 C.3       9 GLL5        0.0000 
      6 CA         -8.2720   24.1280   46.5830 C.3       6 GLP5        0.0000 
      7 CA         -7.5580   26.5760   56.9710 C.3       3 GLC5        0.0000 
      8 CA         -6.1360   26.1780   55.3780 C.3       9 GLL5        0.0000 
      9 CA         -8.9800   26.9740   58.5640 C.3       6 GLP5        0.0000 
     10 CA         -6.6330   24.5955   56.7290 C.3       3 GLC5        0.0000 
     11 CA         -7.1300   23.0130   58.0800 C.3       6 GLP5        0.0000 
     12 CA         -8.0950   27.8860   56.0810 C.3       3 GLC5        0.0000 
     13 CA         -6.2220   27.5510   55.4750 C.3       9 GLL5        0.0000 
     14 CA         -9.9680   28.2210   56.6870 C.3       6 GLP5        0.0000 
     15 N          -6.4585   27.8770   58.9720 N.am      2 SEC2        0.0000 
     16 N          -5.6190   28.1520   57.7110 N.am      8 SEL2        0.0000 
     17 N          -7.2980   27.6020   60.2330 N.am      5 SEP2        0.0000 
     18 CA         -7.8820   29.6535   57.5465 C.3       3 GLC5        0.0000 
     19 CA         -6.3750   30.9430   56.9880 C.3       9 GLL5        0.0000 
     20 CA         -9.3890   28.3640   58.1050 C.3       6 GLP5        0.0000 
     21 N          -8.2250   31.6275   53.7890 N.am      2 SEC2        0.0000 
     22 N          -7.8640   31.8920   55.3500 N.am      8 SEL2        0.0000 
     23 N          -8.5860   31.3630   52.2280 N.am      5 SEP2        0.0000 
     24 O          -8.1435   31.4025   58.8830 O.2       1 ALC1        0.0000 
     25 O          -8.5980   31.8840   57.4610 O.2       7 ALL1        0.0000 
     26 O          -7.6890   30.9210   60.3050 O.2       4 ALP1        0.0000 
     27 CA        -10.1425   30.7185   58.0615 C.3       3 GLC5        0.0000 
     28 CA         -9.8590   32.5210   57.0520 C.3       9 GLL5        0.0000 
     29 CA        -10.4260   28.9160   59.0710 C.3       6 GLP5        0.0000 
     30 CA        -11.5215   31.4800   57.3595 C.3       3 GLC5        0.0000 
     31 CA        -13.1840   30.4390   57.6670 C.3       6 GLP5        0.0000 
     32 CA         -4.6815   34.2960   54.2490 C.3       3 GLC5        0.0000 
     33 CA         -4.1290   34.0070   56.2850 C.3       9 GLL5        0.0000 
     34 CA         -5.2340   34.5850   52.2130 C.3       6 GLP5        0.0000 
     35 CA         -3.4730   30.5860   59.7690 C.3       3 GLC5        0.0000 
     36 CA         -4.1030   31.5010   57.8200 C.3       9 GLL5        0.0000 
     37 CA         -2.8430   29.6710   61.7180 C.3       6 GLP5        0.0000 
     38 CA         -9.4372   24.9345   51.8155 C.3       3 GLC5        0.0000 
     39 CA         -8.4590   26.5590   51.5890 C.3       9 GLL5        0.0000 
     40 CA        -10.1910   23.1940   52.6820 C.3       6 GLP5        0.0000 
     41 CA         -8.8640   28.7793   51.8550 C.3       3 GLC5        0.0000 
     42 CA         -9.8130   30.6490   51.8730 C.3       6 GLP5        0.0000 
     43 CA         -6.6760   30.3392   51.2228 C.3       3 GLC5        0.0000 
     44 CA         -6.3990   32.3740   51.8110 C.3       6 GLP5        0.0000 
     45 CA         -8.3830   29.4768   51.2537 C.3       3 GLC5        0.0000 
     46 CA         -6.2105   26.3686   50.8210 C.3       3 GLC5        0.0000 
     47 CA         -7.1790   28.4200   49.9900 C.3       9 GLL5        0.0000 
     48 CA         -5.3070   24.6650   50.8060 C.3       6 GLP5        0.0000 
     49 CA         -7.4596   25.4903   50.3047 C.3       3 GLC5        0.0000 
     50 CA         -6.4450   23.7850   50.3800 C.3       6 GLP5        0.0000 
     51 CA         -9.1998   28.9513   50.8912 C.3       3 GLC5        0.0000 
     52 CA         -8.9080   26.7910   50.3090 C.3       9 GLL5        0.0000 
     53 CA         -7.8963   24.7215   54.9060 C.3       3 GLC5        0.0000 
     54 CA         -6.7010   25.8480   54.1300 C.3       9 GLL5        0.0000 
     55 CA         -9.3740   23.4300   55.0580 C.3       6 GLP5        0.0000 
     56 CA         -5.4934   25.4716   53.2470 C.3       3 GLC5        0.0000 
     57 CA         -4.5200   24.6350   51.9090 C.3       6 GLP5        0.0000 
@<TRIPOS>BOND
@<TRIPOS>SUBSTRUCTURE
     1 ALC1       24 GROUP        1 X    ALC  0     ROOT ALC X 1
     2 SEC2       15 GROUP        1 X    SEC  0     **** SEC X 2
     3 GLC5        1 GROUP        1 X    GLC  0     **** GLC X 6
     4 ALP1       26 GROUP        1 Y    ALP  0     ROOT ALP Y 8
     5 SEP2       17 GROUP        1 Y    SEP  0     **** SEP Y 9
     6 GLP5        3 GROUP        1 Y    GLP  0     **** GLP Y 13
     7 ALL1       25 GROUP        1 Z    ALL  0     ROOT ALL Z 15
     8 SEL2       16 GROUP        1 Z    SEL  0     **** SEL Z 16
     9 GLL5        2 GROUP        1 Z    GLL  0     **** GLL Z 20
@<TRIPOS>SET

