#    Name: 3i7g_732_1_ligand
#    Modification time : Tue Mar 25 15:58:47 2014

@<TRIPOS>MOLECULE
3i7g_732_1_ligand
   49    51     1     0     0
SMALL
NO_CHARGES


@<TRIPOS>ATOM
      1 C1         -8.4590   26.5590   51.5890 C.ar      1 732999      0.0000 
      2 C2         -7.3710   27.2600   52.0850 C.ar      1 732999      0.0000 
      3 C3         -6.7270   28.1890   51.2790 C.ar      1 732999      0.0000 
      4 C4         -7.1790   28.4200   49.9900 C.ar      1 732999      0.0000 
      5 C5         -8.2650   27.7160   49.5100 C.ar      1 732999      0.0000 
      6 C6         -8.9080   26.7910   50.3090 C.ar      1 732999      0.0000 
      7 C7         -6.8940   27.0290   53.4540 C.2       1 732999      0.0000 
      8 CL8        -8.8490   27.9920   47.9060 Cl        1 732999      0.0000 
      9 C9         -6.7010   25.8480   54.1300 C.2       1 732999      0.0000 
     10 C10        -6.1360   26.1780   55.3780 C.2       1 732999      0.0000 
     11 C11        -6.2220   27.5510   55.4750 C.2       1 732999      0.0000 
     12 O12        -6.6190   28.0270   54.2870 O.3       1 732999      0.0000 
     13 C13        -6.0240   28.4680   56.5890 C.2       1 732999      0.0000 
     14 O14        -5.6190   28.1520   57.7110 O.2       1 732999      0.0000 
     15 N15        -6.3620   29.7190   56.2060 N.am      1 732999      0.0000 
     16 C16        -6.3750   30.9430   56.9880 C.3       1 732999      0.0000 
     17 C17        -5.1070   31.7480   56.6810 C.3       1 732999      0.0000 
     18 C18        -7.6530   31.6220   56.5350 C.2       1 732999      0.0000 
     19 O19        -7.8640   31.8920   55.3500 O.2       1 732999      0.0000 
     20 N20        -8.5980   31.8840   57.4610 N.am      1 732999      0.0000 
     21 C21        -9.8590   32.5210   57.0520 C.3       1 732999      0.0000 
     22 C22        -5.4230   33.2420   56.5690 C.3       1 732999      0.0000 
     23 C23        -4.1290   34.0070   56.2850 C.3       1 732999      0.0000 
     24 C24        -3.1640   33.8010   57.4540 C.3       1 732999      0.0000 
     25 C25        -2.8220   32.3130   57.6040 C.3       1 732999      0.0000 
     26 C26        -4.1030   31.5010   57.8200 C.3       1 732999      0.0000 
     27 H          -8.9316   25.8606   52.1859 H         1 732999      0.0000 
     28 H          -5.9131   28.7059   51.6406 H         1 732999      0.0000 
     29 H          -6.7061   29.1133   49.3952 H         1 732999      0.0000 
     30 H          -9.7241   26.2755   49.9445 H         1 732999      0.0000 
     31 H          -6.9003   24.9786   53.8351 H         1 732999      0.0000 
     32 H          -5.7825   25.5793   55.9965 H         1 732999      0.0000 
     33 H          -6.6738   29.8679   55.1716 H         1 732999      0.0000 
     34 H          -6.4377   30.7207   58.0187 H         1 732999      0.0000 
     35 H          -4.6829   31.3975   55.7672 H         1 732999      0.0000 
     36 H          -8.4914   31.6631   58.4516 H         1 732999      0.0000 
     37 H          -5.8491   33.5892   57.4996 H         1 732999      0.0000 
     38 H          -6.1202   33.4013   55.7586 H         1 732999      0.0000 
     39 H          -4.3491   35.0596   56.1821 H         1 732999      0.0000 
     40 H          -3.6801   33.6294   55.3778 H         1 732999      0.0000 
     41 H          -3.6269   34.1549   58.3697 H         1 732999      0.0000 
     42 H          -2.2520   34.3601   57.2708 H         1 732999      0.0000 
     43 H          -2.1653   32.1812   58.4562 H         1 732999      0.0000 
     44 H          -2.3254   31.9678   56.7044 H         1 732999      0.0000 
     45 H          -3.8567   30.4425   57.8533 H         1 732999      0.0000 
     46 H          -4.5581   31.7911   58.7639 H         1 732999      0.0000 
     47 H          -9.7043   33.4155   56.6325 H         1 732999      0.0000 
     48 H         -10.3559   31.9663   56.3846 H         1 732999      0.0000 
     49 H         -10.4721   32.6638   57.8290 H         1 732999      0.0000 
@<TRIPOS>BOND
     1    2    1 ar   
     2    6    1 ar   
     3   27    1 1    
     4    3    2 ar   
     5    7    2 1    
     6    4    3 ar   
     7   28    3 1    
     8    5    4 ar   
     9   29    4 1    
    10    6    5 ar   
    11    8    5 1    
    12   30    6 1    
    13    9    7 2    
    14   12    7 1    
    15   10    9 1    
    16   31    9 1    
    17   11   10 2    
    18   32   10 1    
    19   12   11 1    
    20   13   11 1    
    21   14   13 2    
    22   15   13 am   
    23   16   15 1    
    24   33   15 1    
    25   17   16 1    
    26   18   16 1    
    27   34   16 1    
    28   22   17 1    
    29   26   17 1    
    30   35   17 1    
    31   19   18 2    
    32   20   18 am   
    33   21   20 1    
    34   36   20 1    
    35   47   21 1    
    36   48   21 1    
    37   49   21 1    
    38   23   22 1    
    39   37   22 1    
    40   38   22 1    
    41   24   23 1    
    42   39   23 1    
    43   40   23 1    
    44   25   24 1    
    45   41   24 1    
    46   42   24 1    
    47   26   25 1    
    48   43   25 1    
    49   44   25 1    
    50   45   26 1    
    51   46   26 1    
@<TRIPOS>SUBSTRUCTURE
     1 732999      1 GROUP   
@<TRIPOS>SET

