#    Name: 2a87_FAD_2_INTS_M
#    Modification time : Mon Mar 24 18:38:00 2014

@<TRIPOS>MOLECULE
2a87_FAD_2_INTS_M
  104     0     9     0     0
SMALL
NO_CHARGES


@<TRIPOS>ATOM
      1 N          22.6335   29.1820   20.7035 N.am      2 SEC2        0.0000 
      2 N          22.0190   28.0080   20.9740 N.am      8 SEL2        0.0000 
      3 N          23.2480   30.3560   20.4330 N.am      5 SEP2        0.0000 
      4 N          21.8335   25.4365   17.7110 N.am      2 SEC2        0.0000 
      5 N          21.8160   26.5250   18.8860 N.am      8 SEL2        0.0000 
      6 N          21.8510   24.3480   16.5360 N.am      5 SEP2        0.0000 
      7 CA         23.2805   26.5085   23.5795 C.3       3 GLC5        0.0000 
      8 CA         24.2190   26.0120   21.8920 C.3       9 GLL5        0.0000 
      9 CA         22.3420   27.0050   25.2670 C.3       6 GLP5        0.0000 
     10 CA         25.3045   24.8935   24.0690 C.3       3 GLC5        0.0000 
     11 CA         25.5790   25.3260   21.9230 C.3       9 GLL5        0.0000 
     12 CA         25.0300   24.4610   26.2150 C.3       6 GLP5        0.0000 
     13 N          25.5795   23.6685   23.9395 N.am      2 SEC2        0.0000 
     14 N          25.7450   24.0490   22.4160 N.am      8 SEL2        0.0000 
     15 N          25.4140   23.2880   25.4630 N.am      5 SEP2        0.0000 
     16 CA         25.6320   27.4775   21.7670 C.3       3 GLC5        0.0000 
     17 CA         26.8860   25.9510   21.3980 C.3       9 GLL5        0.0000 
     18 CA         24.3780   29.0040   22.1360 C.3       6 GLP5        0.0000 
     19 N          26.3585   28.1185   22.5765 N.am      2 SEC2        0.0000 
     20 N          27.2080   27.2050   22.0490 N.am      8 SEL2        0.0000 
     21 N          25.5090   29.0320   23.1040 N.am      5 SEP2        0.0000 
     22 O          28.9985   24.5475   23.9460 O.2       1 ALC1        0.0000 
     23 O          28.9770   25.2890   22.5510 O.2       7 ALL1        0.0000 
     24 O          29.0200   23.8060   25.3410 O.2       4 ALP1        0.0000 
     25 CA         26.1685   22.3520   23.4505 C.3       3 GLC5        0.0000 
     26 CA         27.1580   23.6470   22.3310 C.3       9 GLL5        0.0000 
     27 CA         25.1790   21.0570   24.5700 C.3       6 GLP5        0.0000 
     28 CA         26.6945   24.5145   24.3300 C.3       3 GLC5        0.0000 
     29 CA         26.2310   25.3820   26.3290 C.3       6 GLP5        0.0000 
     30 CA         26.4195   19.9825   20.5205 C.3       3 GLC5        0.0000 
     31 CA         28.2310   20.2960   21.2180 C.3       9 GLL5        0.0000 
     32 CA         24.6080   19.6690   19.8230 C.3       6 GLP5        0.0000 
     33 CA         29.3410   17.3980   21.9020 C.3       3 GLC5        0.0000 
     34 CA         28.8760   19.1040   21.5240 C.3       9 GLL5        0.0000 
     35 CA         29.8060   15.6920   22.2800 C.3       6 GLP5        0.0000 
     36 CA         27.9570   18.3320   23.5120 C.3       3 GLC5        0.0000 
     37 CA         29.2810   19.9690   23.7430 C.3       9 GLL5        0.0000 
     38 CA         26.6330   16.6950   23.2810 C.3       6 GLP5        0.0000 
     39 CA         27.2300   20.5130   24.1565 C.3       3 GLC5        0.0000 
     40 CA         29.4555   18.9220   25.5320 C.3       3 GLC5        0.0000 
     41 CA         29.6300   17.8750   27.3210 C.3       6 GLP5        0.0000 
     42 CA         30.3590   21.2905   24.1915 C.3       3 GLC5        0.0000 
     43 CA         31.4370   22.6120   24.6400 C.3       6 GLP5        0.0000 
     44 CA         26.6570   21.1735   23.3770 C.3       3 GLC5        0.0000 
     45 CA         28.1350   21.2900   22.1840 C.3       9 GLL5        0.0000 
     46 CA         29.7860   21.9510   23.4120 C.3       3 GLC5        0.0000 
     47 N          14.9865   32.5865   21.4565 N.am      2 SEC2        0.0000 
     48 N          15.4360   33.9010   20.8540 N.am      8 SEL2        0.0000 
     49 N          14.5370   31.2720   22.0590 N.am      5 SEP2        0.0000 
     50 N          14.0570   32.5765   22.1790 N.am      2 SEC2        0.0000 
     51 N          13.5770   33.8810   22.2990 N.am      8 SEL2        0.0000 
     52 CA         23.2410   36.8970   17.5530 C.3       3 GLC5        0.0000 
     53 CA         21.4350   37.4890   16.9280 C.3       9 GLL5        0.0000 
     54 CA         25.0470   36.3050   18.1780 C.3       6 GLP5        0.0000 
     55 CA         23.3515   35.4460   17.4015 C.3       3 GLC5        0.0000 
     56 CA         21.6560   34.5870   16.6250 C.3       9 GLL5        0.0000 
     57 CA         16.4605   34.2095   17.8250 C.3       3 GLC5        0.0000 
     58 CA         17.3970   32.5920   19.0270 C.3       9 GLL5        0.0000 
     59 CA         15.5240   35.8270   16.6230 C.3       6 GLP5        0.0000 
     60 CA         15.4805   31.8720   19.4295 C.3       3 GLC5        0.0000 
     61 CA         13.5640   31.1520   19.8320 C.3       6 GLP5        0.0000 
     62 CA         18.9095   33.3525   21.0905 C.3       3 GLC5        0.0000 
     63 CA         18.0290   31.7700   20.1470 C.3       9 GLL5        0.0000 
     64 CA         19.7900   34.9350   22.0340 C.3       6 GLP5        0.0000 
     65 CA         16.6060   31.2860   21.7115 C.3       3 GLC5        0.0000 
     66 CA         15.1830   30.8020   23.2760 C.3       6 GLP5        0.0000 
     67 O          17.3250   28.5580   18.9685 O.2       1 ALC1        0.0000 
     68 O          16.8110   29.6210   19.7380 O.2       7 ALL1        0.0000 
     69 O          17.8390   27.4950   18.1990 O.2       4 ALP1        0.0000 
     70 N          21.8045   30.1940   20.6665 N.am      2 SEC2        0.0000 
     71 N          20.3610   30.0320   20.9000 N.am      8 SEL2        0.0000 
     72 CA         18.4665   26.5965   18.9585 C.3       3 GLC5        0.0000 
     73 CA         19.0150   27.9880   20.6090 C.3       9 GLL5        0.0000 
     74 CA         17.9180   25.2050   17.3080 C.3       6 GLP5        0.0000 
     75 CA         17.4590   27.2765   21.6510 C.3       3 GLC5        0.0000 
     76 CA         15.9030   26.5650   22.6930 C.3       6 GLP5        0.0000 
     77 N          18.9880   25.1965   24.2425 N.am      2 SEC2        0.0000 
     78 N          19.7550   25.1370   22.9650 N.am      8 SEL2        0.0000 
     79 N          18.2210   25.2560   25.5200 N.am      5 SEP2        0.0000 
     80 N          18.0760   24.4705   19.7825 N.am      2 SEC2        0.0000 
     81 N          19.0060   25.2540   20.5120 N.am      8 SEL2        0.0000 
     82 N          17.1460   23.6870   19.0530 N.am      5 SEP2        0.0000 
     83 CA         24.6385   27.3365   22.0217 C.3       3 GLC5        0.0000 
     84 CA         27.5933   18.1975   22.3260 C.3       3 GLC5        0.0000 
     85 CA         19.3035   35.8100   20.2995 C.3       3 GLC5        0.0000 
     86 CA         18.3330   36.2720   18.8560 C.3       9 GLL5        0.0000 
     87 CA         19.6155   37.8430   19.6715 C.3       3 GLC5        0.0000 
     88 CA         20.4140   39.0010   20.7780 C.3       6 GLP5        0.0000 
     89 CA         17.2875   37.1490   17.6525 C.3       3 GLC5        0.0000 
     90 CA         19.3010   37.0980   18.2740 C.3       9 GLL5        0.0000 
     91 CA         15.7580   37.6130   16.7400 C.3       6 GLP5        0.0000 
     92 CA         20.6585   38.0125   19.0090 C.3       3 GLC5        0.0000 
     93 CA         20.3710   36.5590   17.5520 C.3       9 GLL5        0.0000 
     94 CA         21.0778   32.9944   18.0779 C.3       3 GLC5        0.0000 
     95 CA         20.4720   35.1740   17.4120 C.3       9 GLL5        0.0000 
     96 CA         21.8730   31.3780   18.6510 C.3       6 GLP5        0.0000 
     97 CA         19.3760   34.7720   20.1960 C.3       3 GLC5        0.0000 
     98 CA         19.5010   34.3410   17.9910 C.3       9 GLL5        0.0000 
     99 CA         17.2430   35.2180   17.4905 C.3       3 GLC5        0.0000 
    100 CA         18.4230   34.8770   18.7250 C.3       9 GLL5        0.0000 
    101 CA         19.5070   28.6290   22.7213 C.3       3 GLC5        0.0000 
    102 CA         19.0070   29.5060   20.8680 C.3       9 GLL5        0.0000 
    103 CA         20.0030   28.5110   24.7040 C.3       6 GLP5        0.0000 
    104 CA         20.2069   30.8180   19.5395 C.3       3 GLC5        0.0000 
@<TRIPOS>BOND
@<TRIPOS>SUBSTRUCTURE
     1 ALC1       22 GROUP        1 X    ALC  0     ROOT ALC X 1
     2 SEC2        1 GROUP        1 X    SEC  0     **** SEC X 2
     3 GLC5        7 GROUP        1 X    GLC  0     **** GLC X 6
     4 ALP1       24 GROUP        1 Y    ALP  0     ROOT ALP Y 8
     5 SEP2        3 GROUP        1 Y    SEP  0     **** SEP Y 9
     6 GLP5        9 GROUP        1 Y    GLP  0     **** GLP Y 13
     7 ALL1       23 GROUP        1 Z    ALL  0     ROOT ALL Z 15
     8 SEL2        2 GROUP        1 Z    SEL  0     **** SEL Z 16
     9 GLL5        8 GROUP        1 Z    GLL  0     **** GLL Z 20
@<TRIPOS>SET

