#    Name: 2a87_FAD_2_ligand
#    Modification time : Mon Mar 24 18:38:00 2014

@<TRIPOS>MOLECULE
2a87_FAD_2_ligand
   84    89     1     0     0
SMALL
NO_CHARGES


@<TRIPOS>ATOM
      1 PA         22.1760   26.6830   20.3260 P.3       1 FAD448      0.0000 
      2 O1A        22.0190   28.0080   20.9740 O.co2     1 FAD448      0.0000 
      3 O2A        21.8160   26.5250   18.8860 O.co2     1 FAD448      0.0000 
      4 O5B        23.7500   26.2720   20.5550 O.3       1 FAD448      0.0000 
      5 C5B        24.2190   26.0120   21.8920 C.3       1 FAD448      0.0000 
      6 C4B        25.5790   25.3260   21.9230 C.3       1 FAD448      0.0000 
      7 O4B        25.7450   24.0490   22.4160 O.3       1 FAD448      0.0000 
      8 C3B        26.8860   25.9510   21.3980 C.3       1 FAD448      0.0000 
      9 O3B        27.2080   27.2050   22.0490 O.3       1 FAD448      0.0000 
     10 C2B        27.9320   24.8380   21.6690 C.3       1 FAD448      0.0000 
     11 O2B        28.9770   25.2890   22.5510 O.3       1 FAD448      0.0000 
     12 C1B        27.1580   23.6470   22.3310 C.3       1 FAD448      0.0000 
     13 N9A        27.4750   22.3200   21.6330 N.pl3     1 FAD448      0.0000 
     14 C8A        27.1790   21.9830   20.3720 C.2       1 FAD448      0.0000 
     15 N7A        27.6340   20.7520   20.1220 N.2       1 FAD448      0.0000 
     16 C5A        28.2310   20.2960   21.2180 C.ar      1 FAD448      0.0000 
     17 C6A        28.8760   19.1040   21.5240 C.ar      1 FAD448      0.0000 
     18 N6A        28.9730   18.1440   20.6100 N.pl3     1 FAD448      0.0000 
     19 N1A        29.4100   18.9350   22.8100 N.ar      1 FAD448      0.0000 
     20 C2A        29.2810   19.9690   23.7430 C.ar      1 FAD448      0.0000 
     21 N3A        28.6610   21.0950   23.4150 N.ar      1 FAD448      0.0000 
     22 C4A        28.1350   21.2900   22.1840 C.ar      1 FAD448      0.0000 
     23 N1         15.4360   33.9010   20.8540 N.2       1 FAD448      0.0000 
     24 C2         14.4270   34.5210   21.6580 C.2       1 FAD448      0.0000 
     25 O2         13.5770   33.8810   22.2990 O.2       1 FAD448      0.0000 
     26 N3         14.4030   35.9130   21.7320 N.am      1 FAD448      0.0000 
     27 C4         15.3540   36.6820   21.0220 C.2       1 FAD448      0.0000 
     28 O4         15.3420   37.9140   21.0860 O.2       1 FAD448      0.0000 
     29 C4X        16.3260   36.0620   20.2390 C.2       1 FAD448      0.0000 
     30 N5         17.2650   36.8630   19.5620 N.2       1 FAD448      0.0000 
     31 C5X        18.3330   36.2720   18.8560 C.ar      1 FAD448      0.0000 
     32 C6         19.3010   37.0980   18.2740 C.ar      1 FAD448      0.0000 
     33 C7         20.3710   36.5590   17.5520 C.ar      1 FAD448      0.0000 
     34 C7M        21.4350   37.4890   16.9280 C.3       1 FAD448      0.0000 
     35 C8         20.4720   35.1740   17.4120 C.ar      1 FAD448      0.0000 
     36 C8M        21.6560   34.5870   16.6250 C.3       1 FAD448      0.0000 
     37 C9         19.5010   34.3410   17.9910 C.ar      1 FAD448      0.0000 
     38 C9A        18.4230   34.8770   18.7250 C.ar      1 FAD448      0.0000 
     39 N10        17.4080   34.0570   19.3200 N.pl3     1 FAD448      0.0000 
     40 C10        16.3920   34.6640   20.1440 C.2       1 FAD448      0.0000 
     41 C1'        17.3970   32.5920   19.0270 C.3       1 FAD448      0.0000 
     42 C2'        18.0290   31.7700   20.1470 C.3       1 FAD448      0.0000 
     43 O2'        19.3450   32.2840   20.3550 O.3       1 FAD448      0.0000 
     44 C3'        18.1200   30.2500   19.8290 C.3       1 FAD448      0.0000 
     45 O3'        16.8110   29.6210   19.7380 O.3       1 FAD448      0.0000 
     46 C4'        19.0070   29.5060   20.8680 C.3       1 FAD448      0.0000 
     47 O4'        20.3610   30.0320   20.9000 O.3       1 FAD448      0.0000 
     48 C5'        19.0150   27.9880   20.6090 C.3       1 FAD448      0.0000 
     49 O5'        19.6860   27.2760   21.6620 O.3       1 FAD448      0.0000 
     50 P          19.8720   25.7160   21.6060 P.3       1 FAD448      0.0000 
     51 O1P        19.7550   25.1370   22.9650 O.co2     1 FAD448      0.0000 
     52 O2P        19.0060   25.2540   20.5120 O.co2     1 FAD448      0.0000 
     53 O3P        21.3860   25.5380   21.1830 O.3       1 FAD448      0.0000 
     54 H          23.5048   25.3699   22.4459 H         1 FAD448      0.0000 
     55 H          24.3022   26.9521   22.4739 H         1 FAD448      0.0000 
     56 H          25.8573   25.8815   23.2227 H         1 FAD448      0.0000 
     57 H          26.7902   26.0385   20.3328 H         1 FAD448      0.0000 
     58 H          28.3019   24.4913   20.7300 H         1 FAD448      0.0000 
     59 H          27.5720   23.5949   23.3663 H         1 FAD448      0.0000 
     60 H          26.7038   22.5503   19.7342 H         1 FAD448      0.0000 
     61 H          28.5499   18.3353   19.7243 H         1 FAD448      0.0000 
     62 H          29.4603   17.3170   20.8905 H         1 FAD448      0.0000 
     63 H          29.6845   19.8230   24.6911 H         1 FAD448      0.0000 
     64 H          13.6956   36.3901   22.3018 H         1 FAD448      0.0000 
     65 H          19.2240   38.1229   18.3794 H         1 FAD448      0.0000 
     66 H          19.5755   33.3187   17.8788 H         1 FAD448      0.0000 
     67 H          17.9446   32.3933   18.0946 H         1 FAD448      0.0000 
     68 H          16.3631   32.2480   18.8804 H         1 FAD448      0.0000 
     69 H          17.4329   31.8912   21.0396 H         1 FAD448      0.0000 
     70 H          18.6404   30.1590   18.8590 H         1 FAD448      0.0000 
     71 H          18.5302   29.6569   21.8523 H         1 FAD448      0.0000 
     72 H          19.5016   27.8221   19.6350 H         1 FAD448      0.0000 
     73 H          17.9670   27.6652   20.5069 H         1 FAD448      0.0000 
     74 H          21.9025   38.0366   17.6219 H         1 FAD448      0.0000 
     75 H          22.1383   36.9731   16.4389 H         1 FAD448      0.0000 
     76 H          21.0316   38.1281   16.2731 H         1 FAD448      0.0000 
     77 H          22.5338   34.8355   17.0345 H         1 FAD448      0.0000 
     78 H          21.6207   33.5882   16.5910 H         1 FAD448      0.0000 
     79 H          21.6712   34.9121   15.6795 H         1 FAD448      0.0000 
     80 H          28.0392   27.0186   22.5729 H         1 FAD448      0.0000 
     81 H          28.8560   24.7567   23.3889 H         1 FAD448      0.0000 
     82 H          19.6011   32.7001   19.4825 H         1 FAD448      0.0000 
     83 H          16.9543   28.8055   19.1773 H         1 FAD448      0.0000 
     84 H          20.3118   30.9029   20.4110 H         1 FAD448      0.0000 
@<TRIPOS>BOND
     1    2    1 ar   
     2    3    1 ar   
     3    4    1 1    
     4   53    1 1    
     5    5    4 1    
     6    6    5 1    
     7   54    5 1    
     8   55    5 1    
     9    7    6 1    
    10    8    6 1    
    11   56    6 1    
    12   12    7 1    
    13    9    8 1    
    14   10    8 1    
    15   57    8 1    
    16   80    9 1    
    17   11   10 1    
    18   12   10 1    
    19   58   10 1    
    20   81   11 1    
    21   13   12 1    
    22   59   12 1    
    23   14   13 1    
    24   22   13 1    
    25   15   14 2    
    26   60   14 1    
    27   16   15 1    
    28   17   16 ar   
    29   22   16 ar   
    30   18   17 1    
    31   19   17 ar   
    32   61   18 1    
    33   62   18 1    
    34   20   19 ar   
    35   21   20 ar   
    36   63   20 1    
    37   22   21 ar   
    38   24   23 1    
    39   40   23 2    
    40   25   24 2    
    41   26   24 am   
    42   27   26 am   
    43   64   26 1    
    44   28   27 2    
    45   29   27 1    
    46   30   29 2    
    47   40   29 1    
    48   31   30 1    
    49   32   31 ar   
    50   38   31 ar   
    51   33   32 ar   
    52   65   32 1    
    53   34   33 1    
    54   35   33 ar   
    55   74   34 1    
    56   75   34 1    
    57   76   34 1    
    58   36   35 1    
    59   37   35 ar   
    60   77   36 1    
    61   78   36 1    
    62   79   36 1    
    63   38   37 ar   
    64   66   37 1    
    65   39   38 1    
    66   40   39 1    
    67   41   39 1    
    68   42   41 1    
    69   67   41 1    
    70   68   41 1    
    71   43   42 1    
    72   44   42 1    
    73   69   42 1    
    74   82   43 1    
    75   45   44 1    
    76   46   44 1    
    77   70   44 1    
    78   83   45 1    
    79   47   46 1    
    80   48   46 1    
    81   71   46 1    
    82   84   47 1    
    83   49   48 1    
    84   72   48 1    
    85   73   48 1    
    86   50   49 1    
    87   51   50 ar   
    88   52   50 ar   
    89   53   50 1    
@<TRIPOS>SUBSTRUCTURE
     1 FAD448      1 GROUP   
@<TRIPOS>SET

