#    Name: 3hlv_J2Z_2_INTS_M
#    Modification time : Tue Mar 25 14:31:09 2014

@<TRIPOS>MOLECULE
3hlv_J2Z_2_INTS_M
   58     0     9     0     0
SMALL
NO_CHARGES


@<TRIPOS>ATOM
      1 CA         -6.7210   -5.6320   14.9840 C.3       3 GLC5        0.0000 
      2 CA         -6.1070   -5.3640   16.9660 C.3       9 GLL5        0.0000 
      3 CA         -7.3350   -5.9000   13.0020 C.3       6 GLP5        0.0000 
      4 CA         -7.1640   -3.4920   16.3500 C.3       3 GLC5        0.0000 
      5 CA         -8.2210   -1.6200   15.7340 C.3       6 GLP5        0.0000 
      6 CA         -2.8530   -5.2370   17.4770 C.3       3 GLC5        0.0000 
      7 CA         -4.8680   -5.5970   17.8230 C.3       9 GLL5        0.0000 
      8 CA         -0.8380   -4.8770   17.1310 C.3       6 GLP5        0.0000 
      9 CA         -4.0085   -2.4985   19.2655 C.3       3 GLC5        0.0000 
     10 CA         -6.0140   -3.1670   19.0820 C.3       9 GLL5        0.0000 
     11 CA         -2.0030   -1.8300   19.4490 C.3       6 GLP5        0.0000 
     12 CA         -7.0135   -1.5085   18.3035 C.3       3 GLC5        0.0000 
     13 CA         -8.0130    0.1500   17.5250 C.3       6 GLP5        0.0000 
     14 CA         -4.3415   -7.1565   22.6165 C.3       3 GLC5        0.0000 
     15 CA         -5.0950   -5.4250   21.6240 C.3       9 GLL5        0.0000 
     16 CA         -3.5880   -8.8880   23.6090 C.3       6 GLP5        0.0000 
     17 CA         -6.4195   -3.0100   23.2045 C.3       3 GLC5        0.0000 
     18 CA         -6.3990   -4.6240   21.7650 C.3       9 GLL5        0.0000 
     19 CA         -6.4400   -1.3960   24.6440 C.3       6 GLP5        0.0000 
     20 CA         -9.1930   -3.8470   21.1335 C.3       3 GLC5        0.0000 
     21 CA         -7.3370   -4.7210   20.5530 C.3       9 GLL5        0.0000 
     22 CA        -11.0490   -2.9730   21.7140 C.3       6 GLP5        0.0000 
     23 CA         -1.9805   -5.4630   18.6670 C.3       3 GLC5        0.0000 
     24 CA         -3.1230   -6.0490   20.2030 C.3       9 GLL5        0.0000 
     25 CA         -0.6580   -5.0345   20.3385 C.3       3 GLC5        0.0000 
     26 CA         -2.1370   -5.8040   21.3410 C.3       9 GLL5        0.0000 
     27 CA          0.8210   -4.2650   19.3360 C.3       6 GLP5        0.0000 
     28 N          -0.6980   -4.6825   27.0640 N.am      2 SEC2        0.0000 
     29 N          -1.7900   -4.4550   26.0660 N.am      8 SEL2        0.0000 
     30 N           0.3940   -4.9100   28.0620 N.am      5 SEP2        0.0000 
     31 O          -2.0630   -3.5375   26.8495 O.2       1 ALC1        0.0000 
     32 O          -1.7900   -4.4550   26.0660 O.2       7 ALL1        0.0000 
     33 O          -2.3360   -2.6200   27.6330 O.2       4 ALP1        0.0000 
     34 CA         -4.7265   -5.3870   26.6720 C.3       3 GLC5        0.0000 
     35 CA         -3.9210   -4.5240   25.0590 C.3       9 GLL5        0.0000 
     36 CA         -5.5320   -6.2500   28.2850 C.3       6 GLP5        0.0000 
     37 CA         -5.8555   -6.6405   24.1935 C.3       3 GLC5        0.0000 
     38 CA         -4.7280   -4.7640   23.9580 C.3       9 GLL5        0.0000 
     39 CA         -6.9830   -8.5170   24.4290 C.3       6 GLP5        0.0000 
     40 CA         -4.5918   -4.8988   15.7282 C.3       3 GLC5        0.0000 
     41 CA         -3.6960   -4.3170   14.0620 C.3       6 GLP5        0.0000 
     42 CA         -5.8079   -7.3439   18.3576 C.3       3 GLC5        0.0000 
     43 CA         -6.1840   -9.1590   18.3930 C.3       6 GLP5        0.0000 
     44 CA         -8.4497   -5.8670   19.8387 C.3       3 GLC5        0.0000 
     45 CA         -6.5260   -4.5950   19.2560 C.3       9 GLL5        0.0000 
     46 CA         -9.9680   -7.0760   19.7730 C.3       6 GLP5        0.0000 
     47 CA         -7.6330   -5.8604   22.3849 C.3       3 GLC5        0.0000 
     48 CA         -8.7240   -6.8480   23.6460 C.3       6 GLP5        0.0000 
     49 CA         -3.1090   -7.4073   22.1905 C.3       3 GLC5        0.0000 
     50 CA         -1.4705   -7.4958   19.9540 C.3       3 GLC5        0.0000 
     51 CA         -0.3110   -9.0650   19.1360 C.3       6 GLP5        0.0000 
     52 CA         -2.4726   -3.7708   20.1238 C.3       3 GLC5        0.0000 
     53 CA         -1.3145   -3.0533   23.8027 C.3       3 GLC5        0.0000 
     54 CA         -1.9820   -5.1080   23.7570 C.3       9 GLL5        0.0000 
     55 CA         -0.3630   -1.2030   23.2460 C.3       6 GLP5        0.0000 
     56 CA         -1.1856   -6.8696   22.9246 C.3       3 GLC5        0.0000 
     57 CA         -0.1480   -8.3950   22.9750 C.3       6 GLP5        0.0000 
     58 CA         -5.3822   -3.0200   24.5763 C.3       3 GLC5        0.0000 
@<TRIPOS>BOND
@<TRIPOS>SUBSTRUCTURE
     1 ALC1       31 GROUP        1 X    ALC  0     ROOT ALC X 1
     2 SEC2       28 GROUP        1 X    SEC  0     **** SEC X 2
     3 GLC5        1 GROUP        1 X    GLC  0     **** GLC X 6
     4 ALP1       33 GROUP        1 Y    ALP  0     ROOT ALP Y 8
     5 SEP2       30 GROUP        1 Y    SEP  0     **** SEP Y 9
     6 GLP5        3 GROUP        1 Y    GLP  0     **** GLP Y 13
     7 ALL1       32 GROUP        1 Z    ALL  0     ROOT ALL Z 15
     8 SEL2       29 GROUP        1 Z    SEL  0     **** SEL Z 16
     9 GLL5        2 GROUP        1 Z    GLL  0     **** GLL Z 20
@<TRIPOS>SET

