#    Name: 3hlv_J2Z_2_ligand
#    Modification time : Tue Mar 25 14:31:10 2014

@<TRIPOS>MOLECULE
3hlv_J2Z_2_ligand
   43    46     1     0     0
SMALL
NO_CHARGES


@<TRIPOS>ATOM
      1 O1         -8.3810   -4.9730   17.7320 O.2       1 J2Z2        0.0000 
      2 C7         -7.1760   -4.9760   17.9540 C.2       1 J2Z2        0.0000 
      3 C8         -6.1070   -5.3640   16.9660 C.3       1 J2Z2        0.0000 
      4 O2         -6.3840   -6.5830   16.2730 O.3       1 J2Z2        0.0000 
      5 C9         -4.8680   -5.5970   17.8230 C.3       1 J2Z2        0.0000 
      6 C10        -5.3760   -5.5770   19.2500 C.3       1 J2Z2        0.0000 
      7 C5         -6.5260   -4.5950   19.2560 C.3       1 J2Z2        0.0000 
      8 C6         -6.0140   -3.1670   19.0820 C.3       1 J2Z2        0.0000 
      9 C12        -4.3720   -5.1890   20.3090 C.3       1 J2Z2        0.0000 
     10 C2         -5.0950   -5.4250   21.6240 C.3       1 J2Z2        0.0000 
     11 C3         -6.3990   -4.6240   21.7650 C.3       1 J2Z2        0.0000 
     12 C4         -7.3370   -4.7210   20.5530 C.3       1 J2Z2        0.0000 
     13 C14        -3.1230   -6.0490   20.2030 C.3       1 J2Z2        0.0000 
     14 C15        -2.1370   -5.8040   21.3410 C.3       1 J2Z2        0.0000 
     15 C16        -2.7920   -5.3570   22.6420 C.ar      1 J2Z2        0.0000 
     16 C21        -4.1710   -5.1660   22.7520 C.ar      1 J2Z2        0.0000 
     17 C17        -1.9820   -5.1080   23.7570 C.ar      1 J2Z2        0.0000 
     18 C18        -2.5500   -4.6990   24.9620 C.ar      1 J2Z2        0.0000 
     19 O3         -1.7900   -4.4550   26.0660 O.3       1 J2Z2        0.0000 
     20 C19        -3.9210   -4.5240   25.0590 C.ar      1 J2Z2        0.0000 
     21 C20        -4.7280   -4.7640   23.9580 C.ar      1 J2Z2        0.0000 
     22 H          -5.9021   -4.5495   16.3207 H         1 J2Z2        0.0000 
     23 H          -4.1732   -4.8029   17.6717 H         1 J2Z2        0.0000 
     24 H          -4.4506   -6.5515   17.5974 H         1 J2Z2        0.0000 
     25 H          -5.7954   -6.5545   19.4803 H         1 J2Z2        0.0000 
     26 H          -4.1384   -4.1635   20.2154 H         1 J2Z2        0.0000 
     27 H          -5.3693   -6.5012   21.6556 H         1 J2Z2        0.0000 
     28 H          -6.1479   -3.5644   21.9368 H         1 J2Z2        0.0000 
     29 H          -6.9370   -4.9763   22.6604 H         1 J2Z2        0.0000 
     30 H          -7.8425   -5.6785   20.5678 H         1 J2Z2        0.0000 
     31 H          -8.0651   -3.9208   20.5993 H         1 J2Z2        0.0000 
     32 H          -2.6231   -5.8434   19.2467 H         1 J2Z2        0.0000 
     33 H          -3.4130   -7.1085   20.2035 H         1 J2Z2        0.0000 
     34 H          -1.4089   -5.0382   21.0244 H         1 J2Z2        0.0000 
     35 H          -1.5674   -6.7303   21.5260 H         1 J2Z2        0.0000 
     36 H          -0.9633   -5.2285   23.6830 H         1 J2Z2        0.0000 
     37 H          -4.3399   -4.2162   25.9474 H         1 J2Z2        0.0000 
     38 H          -5.7506   -4.6431   24.0347 H         1 J2Z2        0.0000 
     39 H          -5.5650   -2.8300   19.9096 H         1 J2Z2        0.0000 
     40 H          -5.3482   -3.0991   18.3390 H         1 J2Z2        0.0000 
     41 H          -6.7552   -2.5299   18.8705 H         1 J2Z2        0.0000 
     42 H          -5.5210   -6.8327   15.8338 H         1 J2Z2        0.0000 
     43 H          -2.2524   -3.7041   26.5376 H         1 J2Z2        0.0000 
@<TRIPOS>BOND
     1    2    1 2    
     2    3    2 1    
     3    7    2 1    
     4    4    3 1    
     5    5    3 1    
     6   22    3 1    
     7   42    4 1    
     8    6    5 1    
     9   23    5 1    
    10   24    5 1    
    11    7    6 1    
    12    9    6 1    
    13   25    6 1    
    14    8    7 1    
    15   12    7 1    
    16   39    8 1    
    17   40    8 1    
    18   41    8 1    
    19   10    9 1    
    20   13    9 1    
    21   26    9 1    
    22   11   10 1    
    23   16   10 1    
    24   27   10 1    
    25   12   11 1    
    26   28   11 1    
    27   29   11 1    
    28   30   12 1    
    29   31   12 1    
    30   14   13 1    
    31   32   13 1    
    32   33   13 1    
    33   15   14 1    
    34   34   14 1    
    35   35   14 1    
    36   16   15 ar   
    37   17   15 ar   
    38   21   16 ar   
    39   18   17 ar   
    40   36   17 1    
    41   19   18 1    
    42   20   18 ar   
    43   43   19 1    
    44   21   20 ar   
    45   37   20 1    
    46   38   21 1    
@<TRIPOS>SUBSTRUCTURE
     1 J2Z2        1 GROUP   
@<TRIPOS>SET

