#    Name: 3v2y_ML5_1_INTS_M
#    Modification time : Mon Mar 24 23:55:22 2014

@<TRIPOS>MOLECULE
3v2y_ML5_1_INTS_M
   70     0    15     0     0
SMALL
NO_CHARGES


@<TRIPOS>ATOM
      1 N           1.9765   16.9145  -15.8905 N.am      2 SEC2        0.0000 
      2 N           1.8590   15.4060  -15.1120 N.am     12 SEL2        0.0000 
      3 N           2.0940   18.4230  -16.6690 N.am      7 SEP2        0.0000 
      4 NZ          5.5120   15.6625  -15.9955 N.4       4 LYC4        0.0000 
      5 NZ          4.2570   16.2230  -14.9610 N.4      14 LYL4        0.0000 
      6 NZ          6.7670   15.1020  -17.0300 N.4       9 LYP4        0.0000 
      7 N           5.5120   15.6625  -15.9955 N.am      2 SEC2        0.0000 
      8 N           4.2570   16.2230  -14.9610 N.am     12 SEL2        0.0000 
      9 N           6.7670   15.1020  -17.0300 N.am      7 SEP2        0.0000 
     10 NZ          0.9060   17.9480  -13.1425 N.4       4 LYC4        0.0000 
     11 NZ          2.5130   17.1000  -13.3430 N.4      14 LYL4        0.0000 
     12 NZ         -0.7010   18.7960  -12.9420 N.4       9 LYP4        0.0000 
     13 OD1         1.8770   17.3415  -10.7715 O.co2     3 ASC3        0.0000 
     14 OD1         2.0270   15.8240  -10.9290 O.co2    13 ASL3        0.0000 
     15 OD1         1.7270   18.8590  -10.6140 O.co2     8 ASP3        0.0000 
     16 O           0.7300   16.4895  -10.1570 O.2       1 ALC1        0.0000 
     17 O           2.0270   15.8240  -10.9290 O.2      11 ALL1        0.0000 
     18 O          -0.5670   17.1550   -9.3850 O.2       6 ALP1        0.0000 
     19 O           1.8770   17.3415  -10.7715 O.2       1 ALC1        0.0000 
     20 O           1.7270   18.8590  -10.6140 O.2       6 ALP1        0.0000 
     21 CA          3.8705   18.4700   -6.6995 C.3       5 GLC5        0.0000 
     22 CA          5.1830   17.1830   -7.8380 C.3      15 GLL5        0.0000 
     23 CA          2.5580   19.7570   -5.5610 C.3      10 GLP5        0.0000 
     24 CA          4.6335   15.1630   -4.2245 C.3       5 GLC5        0.0000 
     25 CA          5.4090   16.4960   -5.5170 C.3      15 GLL5        0.0000 
     26 CA          3.8580   13.8300   -2.9320 C.3      10 GLP5        0.0000 
     27 CA          6.7635   16.7255   -8.2205 C.3       5 GLC5        0.0000 
     28 CA          5.8560   18.3720   -7.5300 C.3      15 GLL5        0.0000 
     29 CA          7.6710   15.0790   -8.9110 C.3      10 GLP5        0.0000 
     30 CA          5.3950   20.2230   -5.4915 C.3       5 GLC5        0.0000 
     31 CA          6.9960   19.9360   -5.9240 C.3      15 GLL5        0.0000 
     32 CA          3.7940   20.5100   -5.0590 C.3      10 GLP5        0.0000 
     33 CA          6.9605   21.7890   -6.5485 C.3       5 GLC5        0.0000 
     34 CA          6.9250   23.6420   -7.1730 C.3      10 GLP5        0.0000 
     35 CA          8.0575   21.3790   -6.8420 C.3       5 GLC5        0.0000 
     36 CA          8.4380   19.7060   -5.4920 C.3      15 GLL5        0.0000 
     37 CA          7.6770   23.0520   -8.1920 C.3      10 GLP5        0.0000 
     38 CA          9.6840   18.1465   -5.6670 C.3       5 GLC5        0.0000 
     39 CA         10.9300   16.5870   -5.8420 C.3      10 GLP5        0.0000 
     40 CA         10.7205   18.6835   -6.1380 C.3       5 GLC5        0.0000 
     41 CA         10.5110   20.7800   -6.4340 C.3      15 GLL5        0.0000 
     42 CA         13.0105   20.0105   -4.1225 C.3       5 GLC5        0.0000 
     43 CA         11.7500   21.0170   -5.5820 C.3      15 GLL5        0.0000 
     44 CA         14.2710   19.0040   -2.6630 C.3      10 GLP5        0.0000 
     45 CA         12.9670   23.9655   -6.1670 C.3       5 GLC5        0.0000 
     46 CA         12.5270   22.2210   -6.0670 C.3      15 GLL5        0.0000 
     47 CA         13.4070   25.7100   -6.2670 C.3      10 GLP5        0.0000 
     48 CA         13.0400   23.2035   -4.2225 C.3       5 GLC5        0.0000 
     49 CA         13.5530   24.1860   -2.3780 C.3      10 GLP5        0.0000 
     50 CA          5.3415   14.4205  -10.9035 C.3       5 GLC5        0.0000 
     51 CA          3.4980   16.0700  -10.9530 C.3      15 GLL5        0.0000 
     52 CA          6.8200   13.2350  -10.3630 C.3      10 GLP5        0.0000 
     53 CA          3.9460   17.0712   -4.8895 C.3       5 GLC5        0.0000 
     54 CA          4.9710   16.2390   -6.8210 C.3      15 GLL5        0.0000 
     55 CA          2.7020   17.7750   -3.6100 C.3      10 GLP5        0.0000 
     56 CA          6.4570   15.8412   -7.6671 C.3       5 GLC5        0.0000 
     57 CA          4.9086   19.3874   -5.8434 C.3       5 GLC5        0.0000 
     58 CA          6.0670   17.6940   -5.2180 C.3      15 GLL5        0.0000 
     59 CA          9.7450   20.9970   -3.9700 C.3       5 GLC5        0.0000 
     60 CA         10.6500   21.6420   -2.3850 C.3      10 GLP5        0.0000 
     61 CA          9.2800   19.0955   -4.0455 C.3       5 GLC5        0.0000 
     62 CA          9.2420   20.9980   -5.6180 C.3      15 GLL5        0.0000 
     63 CA          9.7200   17.8390   -2.5360 C.3      10 GLP5        0.0000 
     64 CA          9.4553   22.0830   -7.1460 C.3       5 GLC5        0.0000 
     65 CA          9.0340   23.2770   -8.2660 C.3      10 GLP5        0.0000 
     66 CA         10.8957   22.8435   -6.5732 C.3       5 GLC5        0.0000 
     67 CA          9.6530   24.0680   -7.3220 C.3      10 GLP5        0.0000 
     68 CA         11.2394   21.6009   -4.2112 C.3       5 GLC5        0.0000 
     69 CA         12.5589   20.3179   -7.0297 C.3       5 GLC5        0.0000 
     70 CA         13.2890   19.0760   -8.0220 C.3      10 GLP5        0.0000 
@<TRIPOS>BOND
@<TRIPOS>SUBSTRUCTURE
     1 ALC1       16 GROUP        1 X    ALC  0     ROOT ALC X 1
     2 SEC2        1 GROUP        1 X    SEC  0     **** SEC X 2
     3 ASC3       13 GROUP        1 X    ASC  0     **** ASC X 3
     4 LYC4        4 GROUP        1 X    LYC  0     **** LYC X 4
     5 GLC5       21 GROUP        1 X    GLC  0     **** GLC X 6
     6 ALP1       18 GROUP        1 Y    ALP  0     ROOT ALP Y 8
     7 SEP2        3 GROUP        1 Y    SEP  0     **** SEP Y 9
     8 ASP3       15 GROUP        1 Y    ASP  0     **** ASP Y 10
     9 LYP4        6 GROUP        1 Y    LYP  0     **** LYP Y 11
    10 GLP5       23 GROUP        1 Y    GLP  0     **** GLP Y 13
    11 ALL1       17 GROUP        1 Z    ALL  0     ROOT ALL Z 15
    12 SEL2        2 GROUP        1 Z    SEL  0     **** SEL Z 16
    13 ASL3       14 GROUP        1 Z    ASL  0     **** ASL Z 17
    14 LYL4        5 GROUP        1 Z    LYL  0     **** LYL Z 18
    15 GLL5       22 GROUP        1 Z    GLL  0     **** GLL Z 20
@<TRIPOS>SET

