#    Name: 3v2y_ML5_1_ligand
#    Modification time : Mon Mar 24 23:55:23 2014

@<TRIPOS>MOLECULE
3v2y_ML5_1_ligand
   49    49     1     0     0
SMALL
NO_CHARGES


@<TRIPOS>ATOM
      1 O4          1.8590   15.4060  -15.1120 O.co2     1 ML51201     0.0000 
      2 P1          2.9580   15.9610  -14.2300 P.3       1 ML51201     0.0000 
      3 O2          4.2570   16.2230  -14.9610 O.co2     1 ML51201     0.0000 
      4 O3          2.5130   17.1000  -13.3430 O.co2     1 ML51201     0.0000 
      5 C16         3.3390   14.6200  -13.0650 C.3       1 ML51201     0.0000 
      6 C15         4.2280   15.1420  -11.9350 C.3       1 ML51201     0.0000 
      7 C14         3.4980   16.0700  -10.9530 C.3       1 ML51201     0.0000 
      8 N2          2.0270   15.8240  -10.9290 N.4       1 ML51201     0.0000 
      9 C13         4.1040   15.9180   -9.5860 C.2       1 ML51201     0.0000 
     10 O1          3.9740   14.8630   -8.9840 O.2       1 ML51201     0.0000 
     11 N1          4.7920   16.9770   -9.1330 N.am      1 ML51201     0.0000 
     12 C5          5.1830   17.1830   -7.8380 C.ar      1 ML51201     0.0000 
     13 C4          4.9710   16.2390   -6.8210 C.ar      1 ML51201     0.0000 
     14 C3          5.4090   16.4960   -5.5170 C.ar      1 ML51201     0.0000 
     15 C2          6.0670   17.6940   -5.2180 C.ar      1 ML51201     0.0000 
     16 C6          5.8560   18.3720   -7.5300 C.ar      1 ML51201     0.0000 
     17 C1          6.3140   18.6210   -6.2330 C.ar      1 ML51201     0.0000 
     18 C7          6.9960   19.9360   -5.9240 C.3       1 ML51201     0.0000 
     19 C8          8.4380   19.7060   -5.4920 C.3       1 ML51201     0.0000 
     20 C9          9.2420   20.9980   -5.6180 C.3       1 ML51201     0.0000 
     21 C10        10.5110   20.7800   -6.4340 C.3       1 ML51201     0.0000 
     22 C11        11.7500   21.0170   -5.5820 C.3       1 ML51201     0.0000 
     23 C12        12.5270   22.2210   -6.0670 C.3       1 ML51201     0.0000 
     24 H           3.8162   13.9058  -13.6881 H         1 ML51201     0.0000 
     25 H           2.3743   14.3167  -12.7436 H         1 ML51201     0.0000 
     26 H           5.0794   15.6861  -12.3705 H         1 ML51201     0.0000 
     27 H           4.6377   14.2870  -11.3767 H         1 ML51201     0.0000 
     28 H           3.6818   17.1000  -11.2880 H         1 ML51201     0.0000 
     29 H           5.0667   17.7408   -9.8460 H         1 ML51201     0.0000 
     30 H           4.4923   15.3567   -7.0367 H         1 ML51201     0.0000 
     31 H           5.2468   15.8027   -4.7769 H         1 ML51201     0.0000 
     32 H           6.3659   17.8894   -4.2582 H         1 ML51201     0.0000 
     33 H           6.0151   19.0721   -8.2704 H         1 ML51201     0.0000 
     34 H           6.4595   20.4459   -5.1233 H         1 ML51201     0.0000 
     35 H           6.9849   20.5700   -6.8111 H         1 ML51201     0.0000 
     36 H           8.8866   18.9417   -6.1220 H         1 ML51201     0.0000 
     37 H           8.4565   19.3717   -4.4576 H         1 ML51201     0.0000 
     38 H           9.5105   21.3519   -4.6218 H         1 ML51201     0.0000 
     39 H           8.6272   21.7570   -6.1036 H         1 ML51201     0.0000 
     40 H          10.5173   21.4678   -7.2793 H         1 ML51201     0.0000 
     41 H          10.5236   19.7583   -6.8129 H         1 ML51201     0.0000 
     42 H          12.3878   20.1306   -5.6236 H         1 ML51201     0.0000 
     43 H          11.4459   21.1733   -4.5440 H         1 ML51201     0.0000 
     44 H           1.6912   15.4940  -11.8113 H         1 ML51201     0.0000 
     45 H           1.7762   15.1389  -10.2451 H         1 ML51201     0.0000 
     46 H           1.5149   16.6553  -10.7127 H         1 ML51201     0.0000 
     47 H          13.3418   22.3857   -5.5111 H         1 ML51201     0.0000 
     48 H          12.8346   22.1085   -7.0118 H         1 ML51201     0.0000 
     49 H          11.9769   23.0555   -6.0352 H         1 ML51201     0.0000 
@<TRIPOS>BOND
     1    2    1 ar   
     2    3    2 ar   
     3    4    2 ar   
     4    5    2 1    
     5    6    5 1    
     6   24    5 1    
     7   25    5 1    
     8    7    6 1    
     9   26    6 1    
    10   27    6 1    
    11    8    7 1    
    12    9    7 1    
    13   28    7 1    
    14   44    8 1    
    15   45    8 1    
    16   46    8 1    
    17   10    9 2    
    18   11    9 am   
    19   12   11 1    
    20   29   11 1    
    21   13   12 ar   
    22   16   12 ar   
    23   14   13 ar   
    24   30   13 1    
    25   15   14 ar   
    26   31   14 1    
    27   17   15 ar   
    28   32   15 1    
    29   17   16 ar   
    30   33   16 1    
    31   18   17 1    
    32   19   18 1    
    33   34   18 1    
    34   35   18 1    
    35   20   19 1    
    36   36   19 1    
    37   37   19 1    
    38   21   20 1    
    39   38   20 1    
    40   39   20 1    
    41   22   21 1    
    42   40   21 1    
    43   41   21 1    
    44   23   22 1    
    45   42   22 1    
    46   43   22 1    
    47   47   23 1    
    48   48   23 1    
    49   49   23 1    
@<TRIPOS>SUBSTRUCTURE
     1 ML51201     1 GROUP   
@<TRIPOS>SET

