#    Name: 4mcb_21W_1_INTS_M
#    Modification time : Tue Mar 25 12:07:52 2014

@<TRIPOS>MOLECULE
4mcb_21W_1_INTS_M
   55     0    12     0     0
SMALL
NO_CHARGES


@<TRIPOS>ATOM
      1 CA         22.1560   41.3070   -0.4360 C.3       4 GLC5        0.0000 
      2 CA         20.2110   41.6750   -0.1930 C.3      12 GLL5        0.0000 
      3 CA         24.1010   40.9390   -0.6790 C.3       8 GLP5        0.0000 
      4 CA         21.5100   40.0445    0.7775 C.3       4 GLC5        0.0000 
      5 CA         19.5810   40.9840    0.8310 C.3      12 GLL5        0.0000 
      6 CA         23.4390   39.1050    0.7240 C.3       8 GLP5        0.0000 
      7 CA         21.4155   46.1220   -2.0230 C.3       4 GLC5        0.0000 
      8 CA         22.7400   44.7020   -2.3960 C.3      12 GLL5        0.0000 
      9 CA         20.0910   47.5420   -1.6500 C.3       8 GLP5        0.0000 
     10 N          28.1790   40.9850   -9.4970 N.am      2 SEC2        0.0000 
     11 N          28.2990   40.0290   -8.4170 N.am     10 SEL2        0.0000 
     12 N          28.0590   41.9410  -10.5770 N.am      6 SEP2        0.0000 
     13 N          18.1420   38.9285    1.8165 N.am      2 SEC2        0.0000 
     14 N          18.8630   39.8370    0.7390 N.am     10 SEL2        0.0000 
     15 N          17.4210   38.0200    2.8940 N.am      6 SEP2        0.0000 
     16 O          19.3095   39.2640   -2.7685 O.2       1 ALC1        0.0000 
     17 O          19.3540   39.9540   -1.5690 O.2       9 ALL1        0.0000 
     18 O          19.2650   38.5740   -3.9680 O.2       5 ALP1        0.0000 
     19 OD1        27.9250   43.8675   -6.2860 O.co2     3 ASC3        0.0000 
     20 OD1        27.5010   42.0200   -5.9030 O.co2    11 ASL3        0.0000 
     21 OD1        28.3490   45.7150   -6.6690 O.co2     7 ASP3        0.0000 
     22 OD1        28.2625   43.1320   -5.5400 O.co2     3 ASC3        0.0000 
     23 OD1        29.0240   44.2440   -5.1770 O.co2     7 ASP3        0.0000 
     24 N          19.9670   41.8565   -3.8675 N.am      2 SEC2        0.0000 
     25 N          20.5660   41.6140   -2.5490 N.am     10 SEL2        0.0000 
     26 N          19.3680   42.0990   -5.1860 N.am      6 SEP2        0.0000 
     27 CA         21.6555   41.6360    3.0405 C.3       4 GLC5        0.0000 
     28 CA         19.8250   41.6980    2.3820 C.3      12 GLL5        0.0000 
     29 CA         23.4860   41.5740    3.6990 C.3       8 GLP5        0.0000 
     30 CA         27.2653   45.3173   -2.9375 C.3       4 GLC5        0.0000 
     31 CA         25.1930   44.2490   -2.5680 C.3      12 GLL5        0.0000 
     32 CA         28.8050   46.7450   -3.0510 C.3       8 GLP5        0.0000 
     33 CA         23.1485   41.9447   -5.6273 C.3       4 GLC5        0.0000 
     34 CA         23.6750   42.8880   -3.8210 C.3      12 GLL5        0.0000 
     35 CA         22.0880   41.3680   -7.1860 C.3       8 GLP5        0.0000 
     36 CA         29.7647   37.4248   -9.1167 C.3       4 GLC5        0.0000 
     37 CA         28.1150   38.6900   -8.6670 C.3      12 GLL5        0.0000 
     38 CA         31.3780   36.5300  -10.1450 C.3       8 GLP5        0.0000 
     39 CA         27.5757   36.4903   -8.4518 C.3       4 GLC5        0.0000 
     40 CA         27.0000   34.6610   -8.8150 C.3       8 GLP5        0.0000 
     41 CA         20.0678   43.3032    3.6843 C.3       4 GLC5        0.0000 
     42 CA         20.7320   42.9490    1.6530 C.3      12 GLL5        0.0000 
     43 CA         19.8570   44.2830    5.3510 C.3       8 GLP5        0.0000 
     44 CA         22.1475   42.2350    2.3350 C.3       4 GLC5        0.0000 
     45 CA         22.5375   42.1545    0.8500 C.3       4 GLC5        0.0000 
     46 CA         24.2660   41.4130    0.7290 C.3       8 GLP5        0.0000 
     47 CA         19.9905   44.7045    1.4360 C.3       4 GLC5        0.0000 
     48 CA         20.8860   42.8430    0.2890 C.3      12 GLL5        0.0000 
     49 CA         19.1720   46.5130    1.9010 C.3       8 GLP5        0.0000 
     50 CA         23.7097   42.6295   -1.6763 C.3       4 GLC5        0.0000 
     51 CA         19.6835   39.6415    2.7582 C.3       4 GLC5        0.0000 
     52 CA         19.6640   37.9420    3.9100 C.3       8 GLP5        0.0000 
     53 CA         24.5731   41.8964   -2.2051 C.3       4 GLC5        0.0000 
     54 CA         18.4494   42.5537    1.4352 C.3       4 GLC5        0.0000 
     55 CA         16.8100   43.2020    1.3570 C.3       8 GLP5        0.0000 
@<TRIPOS>BOND
@<TRIPOS>SUBSTRUCTURE
     1 ALC1       16 GROUP        1 X    ALC  0     ROOT ALC X 1
     2 SEC2       10 GROUP        1 X    SEC  0     **** SEC X 2
     3 ASC3       19 GROUP        1 X    ASC  0     **** ASC X 3
     4 GLC5        1 GROUP        1 X    GLC  0     **** GLC X 6
     5 ALP1       18 GROUP        1 Y    ALP  0     ROOT ALP Y 8
     6 SEP2       12 GROUP        1 Y    SEP  0     **** SEP Y 9
     7 ASP3       21 GROUP        1 Y    ASP  0     **** ASP Y 10
     8 GLP5        3 GROUP        1 Y    GLP  0     **** GLP Y 13
     9 ALL1       17 GROUP        1 Z    ALL  0     ROOT ALL Z 15
    10 SEL2       11 GROUP        1 Z    SEL  0     **** SEL Z 16
    11 ASL3       20 GROUP        1 Z    ASL  0     **** ASL Z 17
    12 GLL5        2 GROUP        1 Z    GLL  0     **** GLL Z 20
@<TRIPOS>SET

