#    Name: 4mcb_21W_1_ligand
#    Modification time : Tue Mar 25 12:07:52 2014

@<TRIPOS>MOLECULE
4mcb_21W_1_ligand
   45    48     1     0     0
SMALL
NO_CHARGES


@<TRIPOS>ATOM
      1 C2         25.1930   44.2490   -2.5680 C.ar      1 21W303      0.0000 
      2 C4         23.6750   42.8880   -3.8210 C.ar      1 21W303      0.0000 
      3 C1         26.2580   43.5300   -3.0800 C.ar      1 21W303      0.0000 
      4 C5         24.7430   42.1550   -4.3160 C.ar      1 21W303      0.0000 
      5 C13        28.1150   38.6900   -8.6670 C.2       1 21W303      0.0000 
      6 C12        28.1880   37.9490   -7.5100 C.2       1 21W303      0.0000 
      7 C20        20.7320   42.9490    1.6530 C.2       1 21W303      0.0000 
      8 C23        20.2110   41.6750   -0.1930 C.2       1 21W303      0.0000 
      9 C19        20.8860   42.8430    0.2890 C.2       1 21W303      0.0000 
     10 C3         23.8970   43.9380   -2.9510 C.ar      1 21W303      0.0000 
     11 C6         26.0370   42.4830   -3.9640 C.ar      1 21W303      0.0000 
     12 C22        19.5810   40.9840    0.8310 C.2       1 21W303      0.0000 
     13 C10        28.4870   40.1180   -7.1160 C.2       1 21W303      0.0000 
     14 C27        18.7750   39.3570   -0.4630 C.2       1 21W303      0.0000 
     15 C24        20.0810   41.1260   -1.5360 C.2       1 21W303      0.0000 
     16 C17        21.6720   43.8880   -0.3510 C.2       1 21W303      0.0000 
     17 C15        22.7400   44.7020   -2.3960 C.3       1 21W303      0.0000 
     18 C7         27.1800   41.6800   -4.5210 C.3       1 21W303      0.0000 
     19 C9         28.7280   41.3440   -6.3280 C.3       1 21W303      0.0000 
     20 N14        28.2990   40.0290   -8.4170 N.2       1 21W303      0.0000 
     21 N28        18.8630   39.8370    0.7390 N.2       1 21W303      0.0000 
     22 N11        28.4280   38.8790   -6.5360 N.pl3     1 21W303      0.0000 
     23 N26        19.3540   39.9540   -1.5690 N.am      1 21W303      0.0000 
     24 N16        21.8120   43.8280   -1.7050 N.am      1 21W303      0.0000 
     25 N8         27.5010   42.0200   -5.9030 N.4       1 21W303      0.0000 
     26 O25        20.5660   41.6140   -2.5490 O.2       1 21W303      0.0000 
     27 O18        22.1960   44.7710    0.3220 O.2       1 21W303      0.0000 
     28 S21        19.8250   41.6980    2.3820 S.3       1 21W303      0.0000 
     29 H          25.3611   45.0166   -1.9014 H         1 21W303      0.0000 
     30 H          22.7128   42.6468   -4.1046 H         1 21W303      0.0000 
     31 H          27.2231   43.7717   -2.8045 H         1 21W303      0.0000 
     32 H          24.5666   41.3598   -4.9513 H         1 21W303      0.0000 
     33 H          27.9533   38.3126   -9.5514 H         1 21W303      0.0000 
     34 H          28.0951   37.0296   -7.4170 H         1 21W303      0.0000 
     35 H          21.0397   43.5975    2.2788 H         1 21W303      0.0000 
     36 H          18.2336   38.4528   -0.6465 H         1 21W303      0.0000 
     37 H          22.2326   45.2283   -3.2229 H         1 21W303      0.0000 
     38 H          23.1228   45.4783   -1.7112 H         1 21W303      0.0000 
     39 H          26.9250   40.6035   -4.4401 H         1 21W303      0.0000 
     40 H          28.0664   41.8342   -3.8722 H         1 21W303      0.0000 
     41 H          29.3528   42.0449   -6.9267 H         1 21W303      0.0000 
     42 H          29.3424   41.0882   -5.4352 H         1 21W303      0.0000 
     43 H          28.5372   38.6943   -5.6000 H         1 21W303      0.0000 
     44 H          19.2288   39.4742   -2.5100 H         1 21W303      0.0000 
     45 H          21.2695   43.1670   -2.2788 H         1 21W303      0.0000 
@<TRIPOS>BOND
     1    3    1 ar   
     2   10    1 ar   
     3   29    1 1    
     4    4    2 ar   
     5   10    2 ar   
     6   30    2 1    
     7   11    3 ar   
     8   31    3 1    
     9   11    4 ar   
    10   32    4 1    
    11    6    5 2    
    12   20    5 1    
    13   33    5 1    
    14   22    6 1    
    15   34    6 1    
    16    9    7 2    
    17   28    7 1    
    18   35    7 1    
    19    9    8 1    
    20   12    8 2    
    21   15    8 1    
    22   16    9 1    
    23   17   10 1    
    24   18   11 1    
    25   21   12 1    
    26   28   12 1    
    27   19   13 1    
    28   20   13 2    
    29   22   13 1    
    30   21   14 2    
    31   23   14 1    
    32   36   14 1    
    33   23   15 am   
    34   26   15 2    
    35   24   16 am   
    36   27   16 2    
    37   24   17 1    
    38   37   17 1    
    39   38   17 1    
    40   25   18 1    
    41   39   18 1    
    42   40   18 1    
    43   25   19 1    
    44   41   19 1    
    45   42   19 1    
    46   43   22 1    
    47   44   23 1    
    48   45   24 1    
@<TRIPOS>SUBSTRUCTURE
     1 21W303      1 GROUP   
@<TRIPOS>SET

