#    Name: 2xtz_GSP_3_INTS_M
#    Modification time : Tue Mar 25 06:37:18 2014

@<TRIPOS>MOLECULE
2xtz_GSP_3_INTS_M
   85     0    15     0     0
SMALL
NO_CHARGES


@<TRIPOS>ATOM
      1 N         -25.2015  -68.0570  -16.7230 N.am      2 SEC2        0.0000 
      2 N         -25.6650  -69.2960  -17.2800 N.am     12 SEL2        0.0000 
      3 N         -24.7380  -66.8180  -16.1660 N.am      7 SEP2        0.0000 
      4 CA        -24.1340  -67.1600  -18.6120 C.3       5 GLC5        0.0000 
      5 CA        -23.7390  -69.0090  -19.1720 C.3      15 GLL5        0.0000 
      6 CA        -24.5290  -65.3110  -18.0520 C.3      10 GLP5        0.0000 
      7 CA        -22.0210  -69.7065  -19.2765 C.3       5 GLC5        0.0000 
      8 CA        -20.3030  -70.4040  -19.3810 C.3      10 GLP5        0.0000 
      9 CA        -22.6190  -67.3885  -20.0340 C.3       5 GLC5        0.0000 
     10 CA        -21.4990  -65.7680  -20.8960 C.3      10 GLP5        0.0000 
     11 N         -27.4790  -67.6090  -19.0865 N.am      2 SEC2        0.0000 
     12 N         -26.2250  -68.1790  -19.5600 N.am     12 SEL2        0.0000 
     13 N         -28.7330  -67.0390  -18.6130 N.am      7 SEP2        0.0000 
     14 Zn        -26.4160  -71.3050  -19.1320 Zn        4 ZIC7        0.0000 
     15 Zn        -25.7670  -70.6410  -19.5220 Zn       14 ZIL7        0.0000 
     16 Zn        -27.0650  -71.9690  -18.7420 Zn        9 ZIP7        0.0000 
     17 N         -24.8925  -71.5090  -20.4390 N.am      2 SEC2        0.0000 
     18 N         -25.7670  -70.6410  -19.5220 N.am     12 SEL2        0.0000 
     19 N         -24.0180  -72.3770  -21.3560 N.am      7 SEP2        0.0000 
     20 NZ        -28.3455  -67.8940  -17.4935 N.4       3 LYC4        0.0000 
     21 NZ        -27.9580  -68.7490  -16.3740 N.4      13 LYL4        0.0000 
     22 NZ        -28.7330  -67.0390  -18.6130 N.4       8 LYP4        0.0000 
     23 N         -28.2855  -68.5305  -14.9365 N.am      2 SEC2        0.0000 
     24 N         -27.9580  -68.7490  -16.3740 N.am     12 SEL2        0.0000 
     25 N         -28.6130  -68.3120  -13.4990 N.am      7 SEP2        0.0000 
     26 N         -29.1525  -69.2390  -15.7370 N.am      2 SEC2        0.0000 
     27 N         -30.3470  -69.7290  -15.1000 N.am      7 SEP2        0.0000 
     28 N         -28.3455  -67.8940  -17.4935 N.am      2 SEC2        0.0000 
     29 Zn        -27.3140  -71.5105  -17.9375 Zn        4 ZIC7        0.0000 
     30 Zn        -27.5630  -71.0520  -17.1330 Zn       14 ZIL7        0.0000 
     31 N         -28.8535  -71.7170  -16.7135 N.am      2 SEC2        0.0000 
     32 N         -27.5630  -71.0520  -17.1330 N.am     12 SEL2        0.0000 
     33 N         -30.1440  -72.3820  -16.2940 N.am      7 SEP2        0.0000 
     34 N         -28.8525  -73.0660  -14.0715 N.am      2 SEC2        0.0000 
     35 N         -27.7110  -72.2340  -14.1660 N.am     12 SEL2        0.0000 
     36 N         -29.9940  -73.8980  -13.9770 N.am      7 SEP2        0.0000 
     37 N         -27.9900  -72.8225  -13.0125 N.am      2 SEC2        0.0000 
     38 N         -28.2690  -73.4110  -11.8590 N.am      7 SEP2        0.0000 
     39 N         -27.5350  -69.2330  -14.2625 N.am      2 SEC2        0.0000 
     40 N         -26.4570  -70.1540  -15.0260 N.am     12 SEL2        0.0000 
     41 CA        -24.5045  -69.0480  -13.8205 C.3       5 GLC5        0.0000 
     42 CA        -24.3920  -70.7770  -12.8570 C.3      15 GLL5        0.0000 
     43 CA        -24.6170  -67.3190  -14.7840 C.3      10 GLP5        0.0000 
     44 CA        -22.0130  -72.1565  -12.7265 C.3       5 GLC5        0.0000 
     45 CA        -23.7790  -71.3610  -11.5950 C.3      15 GLL5        0.0000 
     46 CA        -20.2470  -72.9520  -13.8580 C.3      10 GLP5        0.0000 
     47 N         -24.6205  -69.1285  -10.2970 N.am      2 SEC2        0.0000 
     48 N         -24.3770  -70.7320  -10.4770 N.am     12 SEL2        0.0000 
     49 N         -24.8640  -67.5250  -10.1170 N.am      7 SEP2        0.0000 
     50 CA        -22.2655  -73.5870  -12.3420 C.3       5 GLC5        0.0000 
     51 CA        -24.0460  -72.8570  -11.4550 C.3      15 GLL5        0.0000 
     52 CA        -20.4850  -74.3170  -13.2290 C.3      10 GLP5        0.0000 
     53 O         -22.6890  -74.8055  -10.5285 O.2       1 ALC1        0.0000 
     54 O         -22.8930  -73.4530  -10.9130 O.2      11 ALL1        0.0000 
     55 O         -22.4850  -76.1580  -10.1440 O.2       6 ALP1        0.0000 
     56 O         -25.7280  -75.2360   -9.8460 O.2       1 ALC1        0.0000 
     57 O         -25.0440  -74.0780   -9.6210 O.2      11 ALL1        0.0000 
     58 O         -26.4120  -76.3940  -10.0710 O.2       6 ALP1        0.0000 
     59 CA        -25.6410  -69.5340   -9.6385 C.3       5 GLC5        0.0000 
     60 CA        -25.0020  -71.6820   -9.6410 C.3      15 GLL5        0.0000 
     61 CA        -26.2800  -67.3860   -9.6360 C.3      10 GLP5        0.0000 
     62 N         -29.5390  -69.3795   -9.2700 N.am      2 SEC2        0.0000 
     63 N         -28.3810  -70.4970   -9.0370 N.am     12 SEL2        0.0000 
     64 N         -30.6970  -68.2620   -9.5030 N.am      7 SEP2        0.0000 
     65 CA        -27.8545  -68.6435   -7.7610 C.3       5 GLC5        0.0000 
     66 CA        -27.8720  -70.4440   -7.7850 C.3      15 GLL5        0.0000 
     67 CA        -27.8370  -66.8430   -7.7370 C.3      10 GLP5        0.0000 
     68 CA        -29.7745  -70.9685   -8.4150 C.3       5 GLC5        0.0000 
     69 CA        -31.6770  -71.4930   -9.0450 C.3      10 GLP5        0.0000 
     70 CA        -28.0810  -72.2115   -6.7970 C.3       5 GLC5        0.0000 
     71 CA        -28.2900  -73.9790   -5.8090 C.3      10 GLP5        0.0000 
     72 N         -30.9030  -70.3490   -6.6215 N.am      2 SEC2        0.0000 
     73 N         -29.5850  -69.6850   -6.5340 N.am     12 SEL2        0.0000 
     74 N         -32.2210  -71.0130   -6.7090 N.am      7 SEP2        0.0000 
     75 O         -28.1295  -69.5385   -4.2480 O.2       1 ALC1        0.0000 
     76 O         -27.6630  -70.1030   -5.4130 O.2      11 ALL1        0.0000 
     77 O         -28.5960  -68.9740   -3.0830 O.2       6 ALP1        0.0000 
     78 O         -27.5060  -70.2590   -3.7145 O.2       1 ALC1        0.0000 
     79 O         -27.3490  -70.4150   -2.0160 O.2       6 ALP1        0.0000 
     80 O         -26.4815  -70.4935   -3.1935 O.2       1 ALC1        0.0000 
     81 O         -25.6140  -70.5720   -4.3710 O.2      11 ALL1        0.0000 
     82 CA        -26.4165  -69.1255   -8.7360 C.3       5 GLC5        0.0000 
     83 CA        -26.5530  -70.8650   -7.8360 C.3      15 GLL5        0.0000 
     84 CA        -27.0585  -72.7875   -7.3830 C.3       5 GLC5        0.0000 
     85 CA        -27.5640  -74.7100   -6.9300 C.3      10 GLP5        0.0000 
@<TRIPOS>BOND
@<TRIPOS>SUBSTRUCTURE
     1 ALC1       53 GROUP        1 X    ALC  0     ROOT ALC X 1
     2 SEC2        1 GROUP        1 X    SEC  0     **** SEC X 2
     3 LYC4       20 GROUP        1 X    LYC  0     **** LYC X 4
     4 ZIC7       14 GROUP        1 X    ZIC  0     **** ZIC X 5
     5 GLC5        4 GROUP        1 X    GLC  0     **** GLC X 6
     6 ALP1       55 GROUP        1 Y    ALP  0     ROOT ALP Y 8
     7 SEP2        3 GROUP        1 Y    SEP  0     **** SEP Y 9
     8 LYP4       22 GROUP        1 Y    LYP  0     **** LYP Y 11
     9 ZIP7       16 GROUP        1 Y    ZIP  0     **** ZIP Y 12
    10 GLP5        6 GROUP        1 Y    GLP  0     **** GLP Y 13
    11 ALL1       54 GROUP        1 Z    ALL  0     ROOT ALL Z 15
    12 SEL2        2 GROUP        1 Z    SEL  0     **** SEL Z 16
    13 LYL4       21 GROUP        1 Z    LYL  0     **** LYL Z 18
    14 ZIL7       15 GROUP        1 Z    ZIL  0     **** ZIL Z 19
    15 GLL5        5 GROUP        1 Z    GLL  0     **** GLL Z 20
@<TRIPOS>SET

