#    Name: 2xtz_GSP_3_ligand
#    Modification time : Tue Mar 25 06:37:18 2014

@<TRIPOS>MOLECULE
2xtz_GSP_3_ligand
   45    47     1     0     0
SMALL
NO_CHARGES


@<TRIPOS>ATOM
      1 PG        -25.4120  -69.2890  -18.8800 P.3       1 GSP1382     0.0000 
      2 O3B       -25.6650  -69.2960  -17.2800 O.3       1 GSP1382     0.0000 
      3 S1G       -23.7390  -69.0090  -19.1720 S.2       1 GSP1382     0.0000 
      4 O2G       -26.2250  -68.1790  -19.5600 O.3       1 GSP1382     0.0000 
      5 O3G       -25.7670  -70.6410  -19.5220 O.3       1 GSP1382     0.0000 
      6 PB        -26.9720  -69.8520  -16.5130 P.3       1 GSP1382     0.0000 
      7 O1B       -27.9580  -68.7490  -16.3740 O.co2     1 GSP1382     0.0000 
      8 O2B       -27.5630  -71.0520  -17.1330 O.co2     1 GSP1382     0.0000 
      9 PA        -26.3680  -71.6160  -14.3510 P.3       1 GSP1382     0.0000 
     10 O1A       -27.7110  -72.2340  -14.1660 O.co2     1 GSP1382     0.0000 
     11 O2A       -25.4430  -72.4290  -15.1610 O.co2     1 GSP1382     0.0000 
     12 O3A       -26.4570  -70.1540  -15.0260 O.3       1 GSP1382     0.0000 
     13 O5'       -25.7250  -71.2210  -12.9370 O.3       1 GSP1382     0.0000 
     14 C5'       -24.3920  -70.7770  -12.8570 C.3       1 GSP1382     0.0000 
     15 C4'       -23.7790  -71.3610  -11.5950 C.3       1 GSP1382     0.0000 
     16 O4'       -24.3770  -70.7320  -10.4770 O.3       1 GSP1382     0.0000 
     17 C3'       -24.0460  -72.8570  -11.4550 C.3       1 GSP1382     0.0000 
     18 O3'       -22.8930  -73.4530  -10.9130 O.3       1 GSP1382     0.0000 
     19 C2'       -25.1810  -72.9540  -10.4540 C.3       1 GSP1382     0.0000 
     20 O2'       -25.0440  -74.0780   -9.6210 O.3       1 GSP1382     0.0000 
     21 C1'       -25.0020  -71.6820   -9.6410 C.3       1 GSP1382     0.0000 
     22 N9        -26.2890  -71.1760   -9.1480 N.pl3     1 GSP1382     0.0000 
     23 C8        -27.4260  -70.9430   -9.8820 C.2       1 GSP1382     0.0000 
     24 N7        -28.3810  -70.4970   -9.0370 N.2       1 GSP1382     0.0000 
     25 C5        -27.8720  -70.4440   -7.7850 C.2       1 GSP1382     0.0000 
     26 C6        -28.4210  -70.0600   -6.5680 C.2       1 GSP1382     0.0000 
     27 O6        -29.5850  -69.6850   -6.5340 O.2       1 GSP1382     0.0000 
     28 N1        -27.6630  -70.1030   -5.4130 N.am      1 GSP1382     0.0000 
     29 C2        -26.3470  -70.5280   -5.4800 C.2       1 GSP1382     0.0000 
     30 N2        -25.6140  -70.5720   -4.3710 N.pl3     1 GSP1382     0.0000 
     31 N3        -25.8040  -70.9100   -6.7010 N.2       1 GSP1382     0.0000 
     32 C4        -26.5530  -70.8650   -7.8360 C.2       1 GSP1382     0.0000 
     33 H         -24.3197  -69.6891  -12.7905 H         1 GSP1382     0.0000 
     34 H         -23.7910  -71.1115  -13.7055 H         1 GSP1382     0.0000 
     35 H         -22.7207  -71.2008  -11.6083 H         1 GSP1382     0.0000 
     36 H         -24.3478  -73.2400  -12.3740 H         1 GSP1382     0.0000 
     37 H         -26.0961  -72.8897  -10.9703 H         1 GSP1382     0.0000 
     38 H         -24.3587  -71.9275   -8.7993 H         1 GSP1382     0.0000 
     39 H         -27.5133  -71.0771  -10.8259 H         1 GSP1382     0.0000 
     40 H         -28.0707  -69.8228   -4.5139 H         1 GSP1382     0.0000 
     41 H         -24.6604  -70.8509   -4.4846 H         1 GSP1382     0.0000 
     42 H         -26.0826  -70.3222   -3.5236 H         1 GSP1382     0.0000 
     43 H         -27.0761  -68.6196  -19.8455 H         1 GSP1382     0.0000 
     44 H         -23.2331  -74.1888  -10.3273 H         1 GSP1382     0.0000 
     45 H         -25.6257  -74.7787  -10.0342 H         1 GSP1382     0.0000 
@<TRIPOS>BOND
     1    2    1 1    
     2    3    1 2    
     3    4    1 1    
     4    5    1 1    
     5    6    2 1    
     6   43    4 1    
     7    7    6 ar   
     8    8    6 ar   
     9   12    6 1    
    10   10    9 ar   
    11   11    9 ar   
    12   12    9 1    
    13   13    9 1    
    14   14   13 1    
    15   15   14 1    
    16   33   14 1    
    17   34   14 1    
    18   16   15 1    
    19   17   15 1    
    20   35   15 1    
    21   21   16 1    
    22   18   17 1    
    23   19   17 1    
    24   36   17 1    
    25   44   18 1    
    26   20   19 1    
    27   21   19 1    
    28   37   19 1    
    29   45   20 1    
    30   22   21 1    
    31   38   21 1    
    32   23   22 1    
    33   32   22 1    
    34   24   23 2    
    35   39   23 1    
    36   25   24 1    
    37   26   25 1    
    38   32   25 2    
    39   27   26 2    
    40   28   26 am   
    41   29   28 1    
    42   40   28 1    
    43   30   29 1    
    44   31   29 2    
    45   41   30 1    
    46   42   30 1    
    47   32   31 1    
@<TRIPOS>SUBSTRUCTURE
     1 GSP1382     1 GROUP   
@<TRIPOS>SET

