#    Name: 2xjc_5GP_1_INTS_M
#    Modification time : Tue Mar 25 06:04:51 2014

@<TRIPOS>MOLECULE
2xjc_5GP_1_INTS_M
   57     0    15     0     0
SMALL
NO_CHARGES


@<TRIPOS>ATOM
      1 N           9.0620   20.1895   41.6790 N.am      2 SEC2        0.0000 
      2 N           8.0930   18.8730   41.7000 N.am     12 SEL2        0.0000 
      3 N          10.0310   21.5060   41.6580 N.am      7 SEP2        0.0000 
      4 N           7.7495   20.0775   40.9440 N.am      2 SEC2        0.0000 
      5 N           7.4060   21.2820   40.1880 N.am      7 SEP2        0.0000 
      6 N           8.9460   17.9330   41.3185 N.am      2 SEC2        0.0000 
      7 N           9.7990   16.9930   40.9370 N.am      7 SEP2        0.0000 
      8 Zn          5.6640   20.3930   43.2095 Zn        4 ZIC7        0.0000 
      9 Zn          5.9320   19.5310   42.8860 Zn       14 ZIL7        0.0000 
     10 Zn          5.3960   21.2550   43.5330 Zn        9 ZIP7        0.0000 
     11 N           7.2835   19.9390   43.7475 N.am      2 SEC2        0.0000 
     12 N           5.9320   19.5310   42.8860 N.am     12 SEL2        0.0000 
     13 N           8.6350   20.3470   44.6090 N.am      7 SEP2        0.0000 
     14 NZ          8.0350   18.1330   45.4015 N.4       3 LYC4        0.0000 
     15 NZ          7.6770   18.0480   44.0710 N.4      13 LYL4        0.0000 
     16 NZ          8.3930   18.2180   46.7320 N.4       8 LYP4        0.0000 
     17 N           8.1560   19.1975   44.3400 N.am      2 SEC2        0.0000 
     18 N           7.6770   18.0480   44.0710 N.am     12 SEL2        0.0000 
     19 N           8.3800   16.8445   43.7800 N.am      2 SEC2        0.0000 
     20 N           9.0830   15.6410   43.4890 N.am      7 SEP2        0.0000 
     21 N           8.0350   18.1330   45.4015 N.am      2 SEC2        0.0000 
     22 N           8.3930   18.2180   46.7320 N.am      7 SEP2        0.0000 
     23 N           7.6685   16.4450   42.8780 N.am      2 SEC2        0.0000 
     24 N           6.2540   17.2490   42.2670 N.am     12 SEL2        0.0000 
     25 CA          5.2790   18.7545   40.4230 C.3       5 GLC5        0.0000 
     26 CA          5.3060   17.2360   41.2310 C.3      15 GLL5        0.0000 
     27 CA          5.2520   20.2730   39.6150 C.3      10 GLP5        0.0000 
     28 CA          3.4895   18.3115   41.0175 C.3       5 GLC5        0.0000 
     29 CA          1.6730   19.3870   40.8040 C.3      10 GLP5        0.0000 
     30 CA          4.5610   14.3760   37.5690 C.3       5 GLC5        0.0000 
     31 CA          4.5240   15.6300   39.4320 C.3      15 GLL5        0.0000 
     32 CA          4.5980   13.1220   35.7060 C.3      10 GLP5        0.0000 
     33 N           4.1700   13.7645   37.5575 N.am      2 SEC2        0.0000 
     34 N           5.1020   14.4820   38.8040 N.am     12 SEL2        0.0000 
     35 N           3.2380   13.0470   36.3110 N.am      7 SEP2        0.0000 
     36 CA          2.3770   17.2835   39.5090 C.3       5 GLC5        0.0000 
     37 CA          3.0560   15.3510   39.6000 C.3      15 GLL5        0.0000 
     38 CA          1.6980   19.2160   39.4180 C.3      10 GLP5        0.0000 
     39 N           2.9045   13.7655   37.4430 N.am      2 SEC2        0.0000 
     40 N           2.5710   14.4840   38.5750 N.am     12 SEL2        0.0000 
     41 N          -3.8515   13.7010   43.5910 N.am      2 SEC2        0.0000 
     42 N          -2.4460   13.9250   43.2260 N.am     12 SEL2        0.0000 
     43 N          -5.2570   13.4770   43.9560 N.am      7 SEP2        0.0000 
     44 O          -2.1075   11.1875   42.9780 O.2       1 ALC1        0.0000 
     45 O          -1.2490   12.1110   42.5320 O.2      11 ALL1        0.0000 
     46 O          -2.9660   10.2640   43.4240 O.2       6 ALP1        0.0000 
     47 O          -1.4250   10.2935   42.6055 O.2       1 ALC1        0.0000 
     48 O           0.1160   10.3230   41.7870 O.2      11 ALL1        0.0000 
     49 CA          6.1040   15.4935   42.6420 C.3       5 GLC5        0.0000 
     50 CA          5.0180   15.7920   40.8750 C.3      15 GLL5        0.0000 
     51 CA          7.0460   14.4730   44.2310 C.3      10 GLP5        0.0000 
     52 CA          6.4745   15.4190   39.4873 C.3       5 GLC5        0.0000 
     53 CA          8.1060   14.7660   38.7320 C.3      10 GLP5        0.0000 
     54 CA          1.5080   14.7785   39.2933 C.3       5 GLC5        0.0000 
     55 CA         -0.0080   14.5320   38.3020 C.3      10 GLP5        0.0000 
     56 CA          0.1030   14.2945   40.1955 C.3       5 GLC5        0.0000 
     57 CA          0.7970   13.8050   41.8060 C.3      15 GLL5        0.0000 
@<TRIPOS>BOND
@<TRIPOS>SUBSTRUCTURE
     1 ALC1       44 GROUP        1 X    ALC  0     ROOT ALC X 1
     2 SEC2        1 GROUP        1 X    SEC  0     **** SEC X 2
     3 LYC4       14 GROUP        1 X    LYC  0     **** LYC X 4
     4 ZIC7        8 GROUP        1 X    ZIC  0     **** ZIC X 5
     5 GLC5       25 GROUP        1 X    GLC  0     **** GLC X 6
     6 ALP1       46 GROUP        1 Y    ALP  0     ROOT ALP Y 8
     7 SEP2        3 GROUP        1 Y    SEP  0     **** SEP Y 9
     8 LYP4       16 GROUP        1 Y    LYP  0     **** LYP Y 11
     9 ZIP7       10 GROUP        1 Y    ZIP  0     **** ZIP Y 12
    10 GLP5       27 GROUP        1 Y    GLP  0     **** GLP Y 13
    11 ALL1       45 GROUP        1 Z    ALL  0     ROOT ALL Z 15
    12 SEL2        2 GROUP        1 Z    SEL  0     **** SEL Z 16
    13 LYL4       15 GROUP        1 Z    LYL  0     **** LYL Z 18
    14 ZIL7        9 GROUP        1 Z    ZIL  0     **** ZIL Z 19
    15 GLL5       26 GROUP        1 Z    GLL  0     **** GLL Z 20
@<TRIPOS>SET

