#    Name: 2xjc_5GP_1_ligand
#    Modification time : Tue Mar 25 06:04:51 2014

@<TRIPOS>MOLECULE
2xjc_5GP_1_ligand
   36    38     1     0     0
SMALL
NO_CHARGES


@<TRIPOS>ATOM
      1 P           7.0630   18.5480   42.7650 P.3       1 5GP1489     0.0000 
      2 O1P         8.0930   18.8730   41.7000 O.co2     1 5GP1489     0.0000 
      3 O2P         5.9320   19.5310   42.8860 O.co2     1 5GP1489     0.0000 
      4 O3P         7.6770   18.0480   44.0710 O.co2     1 5GP1489     0.0000 
      5 O5'         6.2540   17.2490   42.2670 O.3       1 5GP1489     0.0000 
      6 C5'         5.3060   17.2360   41.2310 C.3       1 5GP1489     0.0000 
      7 C4'         5.0180   15.7920   40.8750 C.3       1 5GP1489     0.0000 
      8 O4'         3.9600   15.4020   41.7270 O.3       1 5GP1489     0.0000 
      9 C3'         4.5240   15.6300   39.4320 C.3       1 5GP1489     0.0000 
     10 O3'         5.1020   14.4820   38.8040 O.3       1 5GP1489     0.0000 
     11 C2'         3.0560   15.3510   39.6000 C.3       1 5GP1489     0.0000 
     12 O2'         2.5710   14.4840   38.5750 O.3       1 5GP1489     0.0000 
     13 C1'         2.9920   14.6990   40.9690 C.3       1 5GP1489     0.0000 
     14 N9          1.6280   14.8200   41.5670 N.pl3     1 5GP1489     0.0000 
     15 C8          1.0050   15.9480   41.9700 C.2       1 5GP1489     0.0000 
     16 N7         -0.2250   15.6460   42.4400 N.2       1 5GP1489     0.0000 
     17 C5         -0.3690   14.3090   42.3720 C.2       1 5GP1489     0.0000 
     18 C6         -1.3900   13.4470   42.7320 C.2       1 5GP1489     0.0000 
     19 O6         -2.4460   13.9250   43.2260 O.2       1 5GP1489     0.0000 
     20 N1         -1.2490   12.1110   42.5320 N.am      1 5GP1489     0.0000 
     21 C2         -0.0900   11.6420   41.9850 C.2       1 5GP1489     0.0000 
     22 N2          0.1160   10.3230   41.7870 N.pl3     1 5GP1489     0.0000 
     23 N3          0.9200   12.4740   41.6280 N.2       1 5GP1489     0.0000 
     24 C4          0.7970   13.8050   41.8060 C.2       1 5GP1489     0.0000 
     25 H           5.6688   17.7376   40.3292 H         1 5GP1489     0.0000 
     26 H           4.3619   17.7033   41.5255 H         1 5GP1489     0.0000 
     27 H           5.8815   15.2047   41.0263 H         1 5GP1489     0.0000 
     28 H           4.6528   16.5205   38.9136 H         1 5GP1489     0.0000 
     29 H           2.5410   16.2809   39.6521 H         1 5GP1489     0.0000 
     30 H           3.2639   13.6702   40.8547 H         1 5GP1489     0.0000 
     31 H           1.3843   16.8436   41.9284 H         1 5GP1489     0.0000 
     32 H          -2.0049   11.4581   42.7887 H         1 5GP1489     0.0000 
     33 H          -0.6111    9.7122   42.1004 H         1 5GP1489     0.0000 
     34 H           0.9774   10.0737   41.3445 H         1 5GP1489     0.0000 
     35 H           4.3511   14.0588   38.2971 H         1 5GP1489     0.0000 
     36 H           2.4831   15.0644   37.7654 H         1 5GP1489     0.0000 
@<TRIPOS>BOND
     1    2    1 ar   
     2    3    1 ar   
     3    4    1 ar   
     4    5    1 1    
     5    6    5 1    
     6    7    6 1    
     7   25    6 1    
     8   26    6 1    
     9    8    7 1    
    10    9    7 1    
    11   27    7 1    
    12   13    8 1    
    13   10    9 1    
    14   11    9 1    
    15   28    9 1    
    16   35   10 1    
    17   12   11 1    
    18   13   11 1    
    19   29   11 1    
    20   36   12 1    
    21   14   13 1    
    22   30   13 1    
    23   15   14 1    
    24   24   14 1    
    25   16   15 2    
    26   31   15 1    
    27   17   16 1    
    28   18   17 1    
    29   24   17 2    
    30   19   18 2    
    31   20   18 am   
    32   21   20 1    
    33   32   20 1    
    34   22   21 1    
    35   23   21 2    
    36   33   22 1    
    37   34   22 1    
    38   24   23 1    
@<TRIPOS>SUBSTRUCTURE
     1 5GP1489     1 GROUP   
@<TRIPOS>SET

