#    Name: 3ean_FAD_3_INTS_M
#    Modification time : Mon Apr  7 19:08:10 2014

@<TRIPOS>MOLECULE
3ean_FAD_3_INTS_M
  125     0     9     0     0
SMALL
NO_CHARGES


@<TRIPOS>ATOM
      1 N          -8.0095   -2.7025  153.0160 N.am      2 SEC2        0.0000 
      2 N          -8.7350   -1.2170  153.1830 N.am      8 SEL2        0.0000 
      3 N          -7.2840   -4.1880  152.8490 N.am      5 SEP2        0.0000 
      4 N          -7.8320   -0.0735  153.9755 N.am      2 SEC2        0.0000 
      5 N          -6.9290    1.0700  154.7680 N.am      5 SEP2        0.0000 
      6 N          -8.8960   -3.5725  152.8320 N.am      2 SEC2        0.0000 
      7 N         -10.5080   -2.9570  152.8150 N.am      8 SEL2        0.0000 
      8 N         -10.0240   -4.0065  152.0285 N.am      2 SEC2        0.0000 
      9 N          -9.5400   -5.0560  151.2420 N.am      5 SEP2        0.0000 
     10 CA        -12.8885   -2.0770  153.9970 C.3       3 GLC5        0.0000 
     11 CA        -11.4750   -2.4790  155.4090 C.3       9 GLL5        0.0000 
     12 CA        -14.3020   -1.6750  152.5850 C.3       6 GLP5        0.0000 
     13 CA        -11.7195   -1.9795  158.3070 C.3       3 GLC5        0.0000 
     14 CA        -11.1250   -3.0400  156.7580 C.3       9 GLL5        0.0000 
     15 CA        -12.3140   -0.9190  159.8560 C.3       6 GLP5        0.0000 
     16 CA         -8.8030   -4.0675  155.8040 C.3       3 GLC5        0.0000 
     17 CA        -10.7230   -4.4390  156.4290 C.3       9 GLL5        0.0000 
     18 CA         -6.8830   -3.6960  155.1790 C.3       6 GLP5        0.0000 
     19 O          -9.6215   -4.2225  158.5255 O.2       1 ALC1        0.0000 
     20 O          -9.5610   -4.6450  157.2270 O.2       7 ALL1        0.0000 
     21 O          -9.6820   -3.8000  159.8240 O.2       4 ALP1        0.0000 
     22 O         -11.9000   -7.1140  158.6125 O.2       1 ALC1        0.0000 
     23 O         -11.4800   -6.6090  157.3380 O.2       7 ALL1        0.0000 
     24 O         -12.3200   -7.6190  159.8870 O.2       4 ALP1        0.0000 
     25 CA        -12.3370   -2.7380  158.9650 C.3       3 GLC5        0.0000 
     26 CA        -12.3600   -4.5570  158.0740 C.3       9 GLL5        0.0000 
     27 CA        -16.1060   -5.7480  162.7465 C.3       3 GLC5        0.0000 
     28 CA        -16.2720   -4.5360  160.9000 C.3       9 GLL5        0.0000 
     29 CA        -15.9400   -6.9600  164.5930 C.3       6 GLP5        0.0000 
     30 CA        -17.0710   -4.1145  162.9105 C.3       3 GLC5        0.0000 
     31 CA        -17.8700   -3.6930  164.9210 C.3       6 GLP5        0.0000 
     32 CA        -18.3760   -4.0770  160.2630 C.3       3 GLC5        0.0000 
     33 CA        -20.4800   -3.6180  159.6260 C.3       6 GLP5        0.0000 
     34 O         -18.5485   -4.4115  162.0565 O.2       1 ALC1        0.0000 
     35 O         -17.5910   -4.6060  160.8430 O.2       7 ALL1        0.0000 
     36 O         -19.5060   -4.2170  163.2700 O.2       4 ALP1        0.0000 
     37 N         -16.2925   -4.5875  163.2515 N.am      2 SEC2        0.0000 
     38 N         -15.5850   -4.4060  162.0490 N.am      8 SEL2        0.0000 
     39 N         -17.0000   -4.7690  164.4540 N.am      5 SEP2        0.0000 
     40 CA        -15.4770   -2.6145  161.9390 C.3       3 GLC5        0.0000 
     41 CA        -14.2540   -4.3270  162.0600 C.3       9 GLL5        0.0000 
     42 CA        -16.7000   -0.9020  161.8180 C.3       6 GLP5        0.0000 
     43 CA        -13.2840   -2.6230  160.9580 C.3       3 GLC5        0.0000 
     44 CA        -13.8450   -3.0605  163.7865 C.3       3 GLC5        0.0000 
     45 CA        -13.4360   -1.7940  165.5130 C.3       6 GLP5        0.0000 
     46 CA        -12.3900   -4.2070  162.4030 C.3       3 GLC5        0.0000 
     47 CA        -10.5260   -4.0870  162.7460 C.3       6 GLP5        0.0000 
     48 CA        -13.5365   -6.1930  162.4685 C.3       3 GLC5        0.0000 
     49 CA        -12.8190   -8.0590  162.8770 C.3       6 GLP5        0.0000 
     50 CA        -15.0970   -5.6435  163.3265 C.3       3 GLC5        0.0000 
     51 N         -12.4620   -5.3220  161.5155 N.am      2 SEC2        0.0000 
     52 N         -13.5450   -4.4010  160.9520 N.am      8 SEL2        0.0000 
     53 N         -11.3790   -6.2430  162.0790 N.am      5 SEP2        0.0000 
     54 CA        -13.2525   -2.7335  159.8170 C.3       3 GLC5        0.0000 
     55 CA        -14.1910   -4.5480  159.7780 C.3       9 GLL5        0.0000 
     56 N          -5.9475    2.8545  146.0370 N.am      2 SEC2        0.0000 
     57 N          -5.0210    2.5040  144.9290 N.am      8 SEL2        0.0000 
     58 N          -6.8740    3.2050  147.1450 N.am      5 SEP2        0.0000 
     59 O          -2.7270    1.3410  143.6000 O.2       1 ALC1        0.0000 
     60 O          -4.0050    0.8020  143.8170 O.2       7 ALL1        0.0000 
     61 O          -1.4490    1.8800  143.3830 O.2       4 ALP1        0.0000 
     62 N          -3.9875   -3.2670  142.4905 N.am      2 SEC2        0.0000 
     63 N          -4.9900   -2.7540  143.4970 N.am      8 SEL2        0.0000 
     64 N          -2.9850   -3.7800  141.4840 N.am      5 SEP2        0.0000 
     65 CA         -3.9770   -3.4610  144.9890 C.3       3 GLC5        0.0000 
     66 CA         -5.9230   -3.6450  144.0810 C.3       9 GLL5        0.0000 
     67 CA         -2.0310   -3.2770  145.8970 C.3       6 GLP5        0.0000 
     68 CA         -7.2545   -9.2240  144.4480 C.3       3 GLC5        0.0000 
     69 CA         -6.5960   -7.4320  144.1430 C.3       9 GLL5        0.0000 
     70 CA         -7.9130  -11.0160  144.7530 C.3       6 GLP5        0.0000 
     71 CA         -5.2465   -8.8170  144.8225 C.3       3 GLC5        0.0000 
     72 CA         -3.8970  -10.2020  145.5020 C.3       6 GLP5        0.0000 
     73 CA         -8.4230   -6.0805  143.2810 C.3       3 GLC5        0.0000 
     74 CA         -7.7370   -5.3990  145.2250 C.3       9 GLL5        0.0000 
     75 CA         -9.1090   -6.7620  141.3370 C.3       6 GLP5        0.0000 
     76 CA        -10.7935   -6.4240  145.6325 C.3       3 GLC5        0.0000 
     77 CA         -8.7410   -6.3590  145.8810 C.3       9 GLL5        0.0000 
     78 CA        -12.8460   -6.4890  145.3840 C.3       6 GLP5        0.0000 
     79 CA         -5.2410   -2.1455  145.9595 C.3       3 GLC5        0.0000 
     80 CA         -6.9210   -3.1500  144.9170 C.3       9 GLL5        0.0000 
     81 CA         -3.5610   -1.1410  147.0020 C.3       6 GLP5        0.0000 
     82 CA         -5.6405   -0.9480  147.1615 C.3       3 GLC5        0.0000 
     83 CA         -7.7200   -0.7550  147.3210 C.3       9 GLL5        0.0000 
     84 CA         -6.3245    0.8765  147.9370 C.3       3 GLC5        0.0000 
     85 CA         -4.9290    2.5080  148.5530 C.3       6 GLP5        0.0000 
     86 O         -10.8390    1.0055  147.6840 O.2       1 ALC1        0.0000 
     87 O          -9.6290    0.6360  147.4770 O.2       7 ALL1        0.0000 
     88 O         -12.0490    1.3750  147.8910 O.2       4 ALP1        0.0000 
     89 O         -10.8850   -0.1110  147.8170 O.2       1 ALC1        0.0000 
     90 O         -12.1410   -0.8580  148.1570 O.2       4 ALP1        0.0000 
     91 CA         -7.4745    1.2335  151.1290 C.3       3 GLC5        0.0000 
     92 CA         -8.5280    0.1670  149.5370 C.3       9 GLL5        0.0000 
     93 CA         -6.4210    2.3000  152.7210 C.3       6 GLP5        0.0000 
     94 CA         -7.3530    1.8030  148.9685 C.3       3 GLC5        0.0000 
     95 CA         -6.1780    3.4390  148.4000 C.3       6 GLP5        0.0000 
     96 N          -6.7045   -2.0825  150.5420 N.am      2 SEC2        0.0000 
     97 N          -7.8150   -0.8230  150.3220 N.am      8 SEL2        0.0000 
     98 N          -5.5940   -3.3420  150.7620 N.am      5 SEP2        0.0000 
     99 CA        -11.9215    0.5225  149.5840 C.3       3 GLC5        0.0000 
    100 CA         -9.8160    0.6100  150.2540 C.3       9 GLL5        0.0000 
    101 CA        -14.0270    0.4350  148.9140 C.3       6 GLP5        0.0000 
    102 N          -9.1935    2.7015  154.2425 N.am      2 SEC2        0.0000 
    103 N         -10.1470    1.6490  153.8890 N.am      8 SEL2        0.0000 
    104 N          -8.2400    3.7540  154.5960 N.am      5 SEP2        0.0000 
    105 N         -12.9155    2.1395  151.0155 N.am      2 SEC2        0.0000 
    106 N         -11.9790    1.6290  152.0800 N.am      8 SEL2        0.0000 
    107 N         -13.8520    2.6500  149.9510 N.am      5 SEP2        0.0000 
    108 CA         -9.5305   -1.6278  156.2287 C.3       3 GLC5        0.0000 
    109 CA         -7.7610   -0.4960  156.3740 C.3       6 GLP5        0.0000 
    110 CA        -13.2415   -1.9707  156.1718 C.3       3 GLC5        0.0000 
    111 CA        -15.1830   -1.1820  156.2600 C.3       6 GLP5        0.0000 
    112 CA        -16.3110   -2.7395  161.0668 C.3       3 GLC5        0.0000 
    113 CA        -15.5720   -4.6180  159.7310 C.3       9 GLL5        0.0000 
    114 CA        -15.8658   -2.9383  159.1469 C.3       3 GLC5        0.0000 
    115 CA        -16.6750   -1.3140  158.2470 C.3       6 GLP5        0.0000 
    116 CA         -5.1917   -5.1158  145.5920 C.3       3 GLC5        0.0000 
    117 CA         -4.5150   -5.8940  147.2230 C.3       6 GLP5        0.0000 
    118 CA         -5.5865   -6.2838  145.7492 C.3       3 GLC5        0.0000 
    119 CA         -6.7200   -5.9150  144.4080 C.3       9 GLL5        0.0000 
    120 CA         -7.7703   -6.6071  142.7354 C.3       3 GLC5        0.0000 
    121 CA         -6.3770   -5.8865  146.3880 C.3       3 GLC5        0.0000 
    122 CA         -8.0875   -4.9990  147.3960 C.3       3 GLC5        0.0000 
    123 CA         -8.1410   -5.0410  149.2740 C.3       6 GLP5        0.0000 
    124 CA         -5.9450   -4.7432  146.2115 C.3       3 GLC5        0.0000 
    125 CA         -7.8290   -4.0350  145.4830 C.3       9 GLL5        0.0000 
@<TRIPOS>BOND
@<TRIPOS>SUBSTRUCTURE
     1 ALC1       19 GROUP        1 X    ALC  0     ROOT ALC X 1
     2 SEC2        1 GROUP        1 X    SEC  0     **** SEC X 2
     3 GLC5       10 GROUP        1 X    GLC  0     **** GLC X 6
     4 ALP1       21 GROUP        1 Y    ALP  0     ROOT ALP Y 8
     5 SEP2        3 GROUP        1 Y    SEP  0     **** SEP Y 9
     6 GLP5       12 GROUP        1 Y    GLP  0     **** GLP Y 13
     7 ALL1       20 GROUP        1 Z    ALL  0     ROOT ALL Z 15
     8 SEL2        2 GROUP        1 Z    SEL  0     **** SEL Z 16
     9 GLL5       11 GROUP        1 Z    GLL  0     **** GLL Z 20
@<TRIPOS>SET

