#    Name: 3ean_FAD_3_ligand
#    Modification time : Mon Apr  7 19:08:11 2014

@<TRIPOS>MOLECULE
3ean_FAD_3_ligand
   84    89     1     0     0
SMALL
NO_CHARGES


@<TRIPOS>ATOM
      1 PA        -10.1260   -1.6560  153.3730 P.3       1 FAD600      0.0000 
      2 O1A        -8.7350   -1.2170  153.1830 O.co2     1 FAD600      0.0000 
      3 O2A       -10.5080   -2.9570  152.8150 O.co2     1 FAD600      0.0000 
      4 O5B       -10.4460   -1.6540  154.9260 O.3       1 FAD600      0.0000 
      5 C5B       -11.4750   -2.4790  155.4090 C.3       1 FAD600      0.0000 
      6 C4B       -11.1250   -3.0400  156.7580 C.3       1 FAD600      0.0000 
      7 O4B       -12.2640   -3.1370  157.6290 O.3       1 FAD600      0.0000 
      8 C3B       -10.7230   -4.4390  156.4290 C.3       1 FAD600      0.0000 
      9 O3B        -9.5610   -4.6450  157.2270 O.3       1 FAD600      0.0000 
     10 C2B       -11.9140   -5.3260  156.8680 C.3       1 FAD600      0.0000 
     11 O2B       -11.4800   -6.6090  157.3380 O.3       1 FAD600      0.0000 
     12 C1B       -12.3600   -4.5570  158.0740 C.3       1 FAD600      0.0000 
     13 N9A       -13.7800   -4.6530  158.5070 N.pl3     1 FAD600      0.0000 
     14 C8A       -14.8490   -4.7760  157.7100 C.2       1 FAD600      0.0000 
     15 N7A       -15.9510   -4.7670  158.4660 N.2       1 FAD600      0.0000 
     16 C5A       -15.5720   -4.6180  159.7310 C.ar      1 FAD600      0.0000 
     17 C6A       -16.2720   -4.5360  160.9000 C.ar      1 FAD600      0.0000 
     18 N6A       -17.5910   -4.6060  160.8430 N.pl3     1 FAD600      0.0000 
     19 N1A       -15.5850   -4.4060  162.0490 N.ar      1 FAD600      0.0000 
     20 C2A       -14.2540   -4.3270  162.0600 C.ar      1 FAD600      0.0000 
     21 N3A       -13.5450   -4.4010  160.9520 N.ar      1 FAD600      0.0000 
     22 C4A       -14.1910   -4.5480  159.7780 C.ar      1 FAD600      0.0000 
     23 N1         -6.0300    0.4560  145.0420 N.2       1 FAD600      0.0000 
     24 C2         -5.0240    1.3120  144.6150 C.2       1 FAD600      0.0000 
     25 O2         -5.0210    2.5040  144.9290 O.2       1 FAD600      0.0000 
     26 N3         -4.0050    0.8020  143.8170 N.am      1 FAD600      0.0000 
     27 C4         -3.9820   -0.5350  143.4270 C.2       1 FAD600      0.0000 
     28 O4         -3.0520   -0.9280  142.7080 O.2       1 FAD600      0.0000 
     29 C4X        -4.9880   -1.3920  143.8700 C.2       1 FAD600      0.0000 
     30 N5         -4.9900   -2.7540  143.4970 N.2       1 FAD600      0.0000 
     31 C5X        -5.9230   -3.6450  144.0810 C.ar      1 FAD600      0.0000 
     32 C6         -5.8140   -5.0300  143.8410 C.ar      1 FAD600      0.0000 
     33 C7         -6.7200   -5.9150  144.4080 C.ar      1 FAD600      0.0000 
     34 C7M        -6.5960   -7.4320  144.1430 C.3       1 FAD600      0.0000 
     35 C8         -7.7370   -5.3990  145.2250 C.ar      1 FAD600      0.0000 
     36 C8M        -8.7410   -6.3590  145.8810 C.3       1 FAD600      0.0000 
     37 C9         -7.8290   -4.0350  145.4830 C.ar      1 FAD600      0.0000 
     38 C9A        -6.9210   -3.1500  144.9170 C.ar      1 FAD600      0.0000 
     39 N10        -7.0160   -1.7450  145.1450 N.pl3     1 FAD600      0.0000 
     40 C10        -6.0080   -0.8860  144.6760 C.2       1 FAD600      0.0000 
     41 C1'        -8.1600   -1.1670  145.9030 C.3       1 FAD600      0.0000 
     42 C2'        -7.7200   -0.7550  147.3210 C.3       1 FAD600      0.0000 
     43 O2'        -7.0130   -1.8230  147.9580 O.3       1 FAD600      0.0000 
     44 C3'        -8.9220   -0.3960  148.1700 C.3       1 FAD600      0.0000 
     45 O3'        -9.6290    0.6360  147.4770 O.3       1 FAD600      0.0000 
     46 C4'        -8.5280    0.1670  149.5370 C.3       1 FAD600      0.0000 
     47 O4'        -7.8150   -0.8230  150.3220 O.3       1 FAD600      0.0000 
     48 C5'        -9.8160    0.6100  150.2540 C.3       1 FAD600      0.0000 
     49 O5'        -9.5930    1.0650  151.5740 O.3       1 FAD600      0.0000 
     50 P         -10.7360    1.0490  152.6570 P.3       1 FAD600      0.0000 
     51 O1P       -10.1470    1.6490  153.8890 O.co2     1 FAD600      0.0000 
     52 O2P       -11.9790    1.6290  152.0800 O.co2     1 FAD600      0.0000 
     53 O3P       -11.1300   -0.5360  152.8540 O.3       1 FAD600      0.0000 
     54 H         -11.6731   -3.3292  154.7290 H         1 FAD600      0.0000 
     55 H         -12.4302   -1.9291  155.5077 H         1 FAD600      0.0000 
     56 H         -10.3140   -2.5347  157.1674 H         1 FAD600      0.0000 
     57 H         -10.5621   -4.5277  155.4089 H         1 FAD600      0.0000 
     58 H         -12.6383   -5.3190  156.1544 H         1 FAD600      0.0000 
     59 H         -11.6947   -4.6791  158.8836 H         1 FAD600      0.0000 
     60 H         -14.8257   -4.8582  156.7416 H         1 FAD600      0.0000 
     61 H         -18.0718   -4.5706  161.7192 H         1 FAD600      0.0000 
     62 H         -17.9882   -4.6880  159.9290 H         1 FAD600      0.0000 
     63 H         -13.7583   -4.2010  162.9908 H         1 FAD600      0.0000 
     64 H          -3.2415    1.4337  143.5036 H         1 FAD600      0.0000 
     65 H          -5.0545   -5.3770  143.2403 H         1 FAD600      0.0000 
     66 H          -8.5766   -3.6802  146.0985 H         1 FAD600      0.0000 
     67 H          -8.9655   -1.8976  145.9921 H         1 FAD600      0.0000 
     68 H          -8.5468   -0.2833  145.3931 H         1 FAD600      0.0000 
     69 H          -7.0940    0.1231  147.2329 H         1 FAD600      0.0000 
     70 H          -9.5354   -1.2538  148.3063 H         1 FAD600      0.0000 
     71 H          -7.9259    1.0471  149.3734 H         1 FAD600      0.0000 
     72 H         -10.5140   -0.2550  150.2271 H         1 FAD600      0.0000 
     73 H         -10.2849    1.3939  149.6200 H         1 FAD600      0.0000 
     74 H          -5.7171   -7.7929  144.4550 H         1 FAD600      0.0000 
     75 H          -7.3096   -7.9508  144.6137 H         1 FAD600      0.0000 
     76 H          -6.6718   -7.6463  143.1692 H         1 FAD600      0.0000 
     77 H          -8.2878   -7.0146  146.4850 H         1 FAD600      0.0000 
     78 H          -9.4161   -5.8699  146.4332 H         1 FAD600      0.0000 
     79 H          -9.2473   -6.8888  145.2006 H         1 FAD600      0.0000 
     80 H          -9.8073   -4.3059  158.1350 H         1 FAD600      0.0000 
     81 H         -12.2145   -6.9269  157.9375 H         1 FAD600      0.0000 
     82 H          -7.1797   -1.6966  148.9359 H         1 FAD600      0.0000 
     83 H         -10.5343    0.6592  147.9012 H         1 FAD600      0.0000 
     84 H          -8.2664   -0.8197  151.2143 H         1 FAD600      0.0000 
@<TRIPOS>BOND
     1    2    1 ar   
     2    3    1 ar   
     3    4    1 1    
     4   53    1 1    
     5    5    4 1    
     6    6    5 1    
     7   54    5 1    
     8   55    5 1    
     9    7    6 1    
    10    8    6 1    
    11   56    6 1    
    12   12    7 1    
    13    9    8 1    
    14   10    8 1    
    15   57    8 1    
    16   80    9 1    
    17   11   10 1    
    18   12   10 1    
    19   58   10 1    
    20   81   11 1    
    21   13   12 1    
    22   59   12 1    
    23   14   13 1    
    24   22   13 1    
    25   15   14 2    
    26   60   14 1    
    27   16   15 1    
    28   17   16 ar   
    29   22   16 ar   
    30   18   17 1    
    31   19   17 ar   
    32   61   18 1    
    33   62   18 1    
    34   20   19 ar   
    35   21   20 ar   
    36   63   20 1    
    37   22   21 ar   
    38   24   23 1    
    39   40   23 2    
    40   25   24 2    
    41   26   24 am   
    42   27   26 am   
    43   64   26 1    
    44   28   27 2    
    45   29   27 1    
    46   30   29 2    
    47   40   29 1    
    48   31   30 1    
    49   32   31 ar   
    50   38   31 ar   
    51   33   32 ar   
    52   65   32 1    
    53   34   33 1    
    54   35   33 ar   
    55   74   34 1    
    56   75   34 1    
    57   76   34 1    
    58   36   35 1    
    59   37   35 ar   
    60   77   36 1    
    61   78   36 1    
    62   79   36 1    
    63   38   37 ar   
    64   66   37 1    
    65   39   38 1    
    66   40   39 1    
    67   41   39 1    
    68   42   41 1    
    69   67   41 1    
    70   68   41 1    
    71   43   42 1    
    72   44   42 1    
    73   69   42 1    
    74   82   43 1    
    75   45   44 1    
    76   46   44 1    
    77   70   44 1    
    78   83   45 1    
    79   47   46 1    
    80   48   46 1    
    81   71   46 1    
    82   84   47 1    
    83   49   48 1    
    84   72   48 1    
    85   73   48 1    
    86   50   49 1    
    87   51   50 ar   
    88   52   50 ar   
    89   53   50 1    
@<TRIPOS>SUBSTRUCTURE
     1 FAD600      1 GROUP   
@<TRIPOS>SET

