#    Name: 1x7b_041_2_INTS_M
#    Modification time : Tue Mar 25 09:36:20 2014

@<TRIPOS>MOLECULE
1x7b_041_2_INTS_M
   68     0     9     0     0
SMALL
NO_CHARGES


@<TRIPOS>ATOM
      1 CA         24.8640   27.8670   12.1245 C.3       3 GLC5        0.0000 
      2 CA         26.5350   27.6020   10.6470 C.3       9 GLL5        0.0000 
      3 CA         23.1930   28.1320   13.6020 C.3       6 GLP5        0.0000 
      4 CA         25.0535   31.4430    6.6910 C.3       3 GLC5        0.0000 
      5 CA         24.0890   29.8070    7.2680 C.3       9 GLL5        0.0000 
      6 CA         26.0180   33.0790    6.1140 C.3       6 GLP5        0.0000 
      7 CA         24.0135   31.8255    5.7695 C.3       3 GLC5        0.0000 
      8 CA         22.9030   30.2550    6.6130 C.3       9 GLL5        0.0000 
      9 CA         25.1240   33.3960    4.9260 C.3       6 GLP5        0.0000 
     10 CA         21.8660   29.4110   11.1535 C.3       3 GLC5        0.0000 
     11 CA         22.7720   29.1160    9.2510 C.3       9 GLL5        0.0000 
     12 CA         20.9600   29.7060   13.0560 C.3       6 GLP5        0.0000 
     13 N          31.0860   26.6775   12.1920 N.am      2 SEC2        0.0000 
     14 N          30.7150   27.5490   11.2880 N.am      8 SEL2        0.0000 
     15 N          31.4570   25.8060   13.0960 N.am      5 SEP2        0.0000 
     16 N          19.2030   29.7435    5.9715 N.am      2 SEC2        0.0000 
     17 N          20.5000   30.5620    6.6360 N.am      8 SEL2        0.0000 
     18 N          17.9060   28.9250    5.3070 N.am      5 SEP2        0.0000 
     19 N          19.1275   31.2435    6.8660 N.am      2 SEC2        0.0000 
     20 N          17.7550   31.9250    7.0960 N.am      5 SEP2        0.0000 
     21 O          20.9045   31.2790    5.6935 O.2       1 ALC1        0.0000 
     22 O          20.5000   30.5620    6.6360 O.2       7 ALL1        0.0000 
     23 O          21.3090   31.9960    4.7510 O.2       4 ALP1        0.0000 
     24 CA         25.1080   23.5250   11.1535 C.3       3 GLC5        0.0000 
     25 CA         25.1060   25.1580   11.9540 C.3       9 GLL5        0.0000 
     26 CA         25.1100   21.8920   10.3530 C.3       6 GLP5        0.0000 
     27 CA         23.2390   24.9325   12.4185 C.3       3 GLC5        0.0000 
     28 CA         21.3720   24.7070   12.8830 C.3       6 GLP5        0.0000 
     29 CA         28.1150   24.8262   11.0165 C.3       3 GLC5        0.0000 
     30 CA         27.0700   26.7300   11.6270 C.3       9 GLL5        0.0000 
     31 CA         28.4480   22.9300   10.2980 C.3       6 GLP5        0.0000 
     32 CA         30.1215   26.3435   12.9482 C.3       3 GLC5        0.0000 
     33 CA         28.4940   26.7150   11.8430 C.3       9 GLL5        0.0000 
     34 CA         31.3210   25.5430   14.4410 C.3       6 GLP5        0.0000 
     35 CA         30.5105   27.4620    9.5505 C.3       3 GLC5        0.0000 
     36 CA         28.7920   28.4470   10.0780 C.3       9 GLL5        0.0000 
     37 CA         31.9500   26.9140    8.5280 C.3       6 GLP5        0.0000 
     38 CA         27.7066   26.6972    8.7993 C.3       3 GLC5        0.0000 
     39 CA         27.5390   25.1530    7.4340 C.3       6 GLP5        0.0000 
     40 CA         27.0631   29.9198   11.0813 C.3       3 GLC5        0.0000 
     41 CA         27.3780   28.4700    9.8550 C.3       9 GLL5        0.0000 
     42 CA         26.2520   31.5980   11.9980 C.3       6 GLP5        0.0000 
     43 CA         30.2150   29.4605   11.3945 C.3       3 GLC5        0.0000 
     44 CA         31.3590   30.9110   12.2160 C.3       6 GLP5        0.0000 
     45 CA         23.9162   30.4688   10.4660 C.3       3 GLC5        0.0000 
     46 CA         24.0290   29.2370    8.5850 C.3       9 GLL5        0.0000 
     47 CA         24.4320   31.7610   12.0140 C.3       6 GLP5        0.0000 
     48 CA         23.3245   31.9675    7.8003 C.3       3 GLC5        0.0000 
     49 CA         23.1530   33.9040    8.6600 C.3       6 GLP5        0.0000 
     50 CA         22.2227   29.5005    5.0542 C.3       3 GLC5        0.0000 
     51 CA         22.1710   28.8090    3.1600 C.3       6 GLP5        0.0000 
     52 CA         19.8430   29.8260   10.4363 C.3       3 GLC5        0.0000 
     53 CA         21.5950   29.5610    8.5960 C.3       9 GLL5        0.0000 
     54 CA         18.6900   30.1410   11.9790 C.3       6 GLP5        0.0000 
     55 CA         19.4085   28.5780    8.9952 C.3       3 GLC5        0.0000 
     56 CA         20.3970   29.4610    9.1910 C.3       9 GLL5        0.0000 
     57 CA         17.8210   27.6450    9.0970 C.3       6 GLP5        0.0000 
     58 CA         21.1273   31.3099    9.2556 C.3       3 GLC5        0.0000 
     59 CA         21.6460   30.1290    7.2840 C.3       9 GLL5        0.0000 
     60 CA         20.9580   33.1490    9.6180 C.3       6 GLP5        0.0000 
     61 CA         24.4160   26.8175   12.8965 C.3       3 GLC5        0.0000 
     62 CA         26.9380   24.0005   11.9575 C.3       3 GLC5        0.0000 
     63 CA         28.2370   22.4980   11.7240 C.3       6 GLP5        0.0000 
     64 CA         25.1895   25.0405   13.7870 C.3       3 GLC5        0.0000 
     65 CA         26.1720   25.8480   12.4280 C.3       9 GLL5        0.0000 
     66 CA         24.7400   24.5780   15.3830 C.3       6 GLP5        0.0000 
     67 CA         27.0370   27.4801   13.7903 C.3       3 GLC5        0.0000 
     68 CA         27.0970   28.6750   15.4990 C.3       6 GLP5        0.0000 
@<TRIPOS>BOND
@<TRIPOS>SUBSTRUCTURE
     1 ALC1       21 GROUP        1 X    ALC  0     ROOT ALC X 1
     2 SEC2       13 GROUP        1 X    SEC  0     **** SEC X 2
     3 GLC5        1 GROUP        1 X    GLC  0     **** GLC X 6
     4 ALP1       23 GROUP        1 Y    ALP  0     ROOT ALP Y 8
     5 SEP2       15 GROUP        1 Y    SEP  0     **** SEP Y 9
     6 GLP5        3 GROUP        1 Y    GLP  0     **** GLP Y 13
     7 ALL1       22 GROUP        1 Z    ALL  0     ROOT ALL Z 15
     8 SEL2       14 GROUP        1 Z    SEL  0     **** SEL Z 16
     9 GLL5        2 GROUP        1 Z    GLL  0     **** GLL Z 20
@<TRIPOS>SET

