#    Name: 1x7b_041_2_ligand
#    Modification time : Tue Mar 25 09:36:20 2014

@<TRIPOS>MOLECULE
1x7b_041_2_ligand
   28    30     1     0     0
SMALL
NO_CHARGES


@<TRIPOS>ATOM
      1 C1         28.4940   26.7150   11.8430 C.ar      1 041202      0.0000 
      2 C2         27.0700   26.7300   11.6270 C.ar      1 041202      0.0000 
      3 C3         26.5350   27.6020   10.6470 C.ar      1 041202      0.0000 
      4 C4         27.3780   28.4700    9.8550 C.ar      1 041202      0.0000 
      5 C5         28.7920   28.4470   10.0780 C.ar      1 041202      0.0000 
      6 C6         29.3500   27.5730   11.0680 C.ar      1 041202      0.0000 
      7 O9         25.2620   27.8170   10.2460 O.3       1 041202      0.0000 
      8 C10        25.2670   28.7590    9.2630 C.2       1 041202      0.0000 
      9 N11        26.5350   29.1720    9.0070 N.2       1 041202      0.0000 
     10 C12        24.0290   29.2370    8.5850 C.ar      1 041202      0.0000 
     11 C13        24.0890   29.8070    7.2680 C.ar      1 041202      0.0000 
     12 C14        22.9030   30.2550    6.6130 C.ar      1 041202      0.0000 
     13 C15        21.6460   30.1290    7.2840 C.ar      1 041202      0.0000 
     14 C16        21.5950   29.5610    8.5960 C.ar      1 041202      0.0000 
     15 C17        22.7720   29.1160    9.2510 C.ar      1 041202      0.0000 
     16 O21        30.7150   27.5490   11.2880 O.3       1 041202      0.0000 
     17 F22        20.3970   29.4610    9.1910 F         1 041202      0.0000 
     18 O23        20.5000   30.5620    6.6360 O.3       1 041202      0.0000 
     19 C24        26.1720   25.8480   12.4280 C.2       1 041202      0.0000 
     20 C25        25.1060   25.1580   11.9540 C.2       1 041202      0.0000 
     21 H          28.8923   26.0995   12.5414 H         1 041202      0.0000 
     22 H          29.4013   29.0503    9.5346 H         1 041202      0.0000 
     23 H          24.9908   29.8907    6.7994 H         1 041202      0.0000 
     24 H          22.9489   30.6561    5.6876 H         1 041202      0.0000 
     25 H          22.7255   28.7167   10.1798 H         1 041202      0.0000 
     26 H          26.4349   25.7901   13.4552 H         1 041202      0.0000 
     27 H          31.1202   27.4098   10.3845 H         1 041202      0.0000 
     28 H          20.7745   30.6905    5.6830 H         1 041202      0.0000 
@<TRIPOS>BOND
     1    2    1 ar   
     2    6    1 ar   
     3   21    1 1    
     4    3    2 ar   
     5   19    2 1    
     6    4    3 ar   
     7    7    3 1    
     8    5    4 ar   
     9    9    4 1    
    10    6    5 ar   
    11   22    5 1    
    12   16    6 1    
    13    8    7 1    
    14    9    8 2    
    15   10    8 1    
    16   11   10 ar   
    17   15   10 ar   
    18   12   11 ar   
    19   23   11 1    
    20   13   12 ar   
    21   24   12 1    
    22   14   13 ar   
    23   18   13 1    
    24   15   14 ar   
    25   17   14 1    
    26   25   15 1    
    27   27   16 1    
    28   28   18 1    
    29   20   19 2    
    30   26   19 1    
@<TRIPOS>SUBSTRUCTURE
     1 041202      1 GROUP   
@<TRIPOS>SET

