#    Name: 2cnt_COA_2_INTS_M
#    Modification time : Tue Mar 25 01:12:06 2014

@<TRIPOS>MOLECULE
2cnt_COA_2_INTS_M
   82     0     9     0     0
SMALL
NO_CHARGES


@<TRIPOS>ATOM
      1 CA         31.5465   47.8940   11.9330 C.3       3 GLC5        0.0000 
      2 CA         30.5120   49.3350   12.9870 C.3       9 GLL5        0.0000 
      3 CA         32.5810   46.4530   10.8790 C.3       6 GLP5        0.0000 
      4 CA         32.2800   47.2680   12.5860 C.3       3 GLC5        0.0000 
      5 CA         31.9790   48.0830   14.2930 C.3       9 GLL5        0.0000 
      6 CA         33.4955   49.1150   13.1230 C.3       3 GLC5        0.0000 
      7 CA         35.0120   50.1470   11.9530 C.3       6 GLP5        0.0000 
      8 CA         34.5990   49.3740   13.6310 C.3       3 GLC5        0.0000 
      9 CA         34.1860   48.6010   15.3090 C.3       9 GLL5        0.0000 
     10 CA         37.4915   47.8220   14.2780 C.3       3 GLC5        0.0000 
     11 CA         36.4510   48.1650   15.8420 C.3       9 GLL5        0.0000 
     12 CA         38.5320   47.4790   12.7140 C.3       6 GLP5        0.0000 
     13 CA         38.9145   46.1965   17.4005 C.3       3 GLC5        0.0000 
     14 CA         37.0090   46.8590   16.4590 C.3       9 GLL5        0.0000 
     15 CA         40.8200   45.5340   18.3420 C.3       6 GLP5        0.0000 
     16 CA         38.3620   46.0635   15.5615 C.3       3 GLC5        0.0000 
     17 CA         39.7150   45.2680   14.6640 C.3       6 GLP5        0.0000 
     18 N          38.8055   43.9345   17.8500 N.am      2 SEC2        0.0000 
     19 N          37.5420   44.5100   18.1680 N.am      8 SEL2        0.0000 
     20 N          40.0690   43.3590   17.5320 N.am      5 SEP2        0.0000 
     21 N          35.5180   44.5355   20.3210 N.am      2 SEC2        0.0000 
     22 N          35.1550   44.8870   19.0340 N.am      8 SEL2        0.0000 
     23 N          35.8810   44.1840   21.6080 N.am      5 SEP2        0.0000 
     24 N          36.9785   41.4550   18.0430 N.am      2 SEC2        0.0000 
     25 N          35.5950   41.6980   17.7980 N.am      8 SEL2        0.0000 
     26 N          38.3620   41.2120   18.2880 N.am      5 SEP2        0.0000 
     27 N          32.7045   42.7795   17.9195 N.am      2 SEC2        0.0000 
     28 N          33.4400   42.7070   16.7700 N.am      8 SEL2        0.0000 
     29 N          31.9690   42.8520   19.0690 N.am      5 SEP2        0.0000 
     30 CA         33.5070   43.8370   11.4495 C.3       3 GLC5        0.0000 
     31 CA         35.1470   42.5150   11.5640 C.3       9 GLL5        0.0000 
     32 CA         31.8670   45.1590   11.3350 C.3       6 GLP5        0.0000 
     33 CA         35.5105   43.8490   10.4385 C.3       3 GLC5        0.0000 
     34 CA         35.8740   45.1830    9.3130 C.3       6 GLP5        0.0000 
     35 CA         37.9505   39.8475   12.8030 C.3       3 GLC5        0.0000 
     36 CA         36.1860   40.6530   12.8890 C.3       9 GLL5        0.0000 
     37 CA         39.7150   39.0420   12.7170 C.3       6 GLP5        0.0000 
     38 CA         36.2580   38.5110   12.5120 C.3       3 GLC5        0.0000 
     39 CA         36.3300   36.3690   12.1350 C.3       6 GLP5        0.0000 
     40 CA         36.2600   39.6930   14.5775 C.3       3 GLC5        0.0000 
     41 CA         36.3340   38.7330   16.2660 C.3       6 GLP5        0.0000 
     42 CA         37.6370   42.1355   12.8950 C.3       3 GLC5        0.0000 
     43 CA         39.0880   43.6180   12.9010 C.3       6 GLP5        0.0000 
     44 CA         34.3160   39.5715   14.6650 C.3       3 GLC5        0.0000 
     45 CA         33.7240   40.9750   13.0120 C.3       9 GLL5        0.0000 
     46 CA         34.9080   38.1680   16.3180 C.3       6 GLP5        0.0000 
     47 CA         32.4765   40.2875   14.6010 C.3       3 GLC5        0.0000 
     48 CA         31.2290   39.6000   16.1900 C.3       6 GLP5        0.0000 
     49 N          34.4845   37.7715   13.3540 N.am      2 SEC2        0.0000 
     50 N          33.7530   38.6420   12.5220 N.am      8 SEL2        0.0000 
     51 N          35.2160   36.9010   14.1860 N.am      5 SEP2        0.0000 
     52 CA         32.1830   37.0355   10.9125 C.3       3 GLC5        0.0000 
     53 CA         32.6130   38.8270   10.0010 C.3       9 GLL5        0.0000 
     54 CA         31.7530   35.2440   11.8240 C.3       6 GLP5        0.0000 
     55 CA         31.8305   37.3725    8.7825 C.3       3 GLC5        0.0000 
     56 CA         31.0480   35.9180    7.5640 C.3       6 GLP5        0.0000 
     57 CA         34.1640   36.7845    8.5600 C.3       3 GLC5        0.0000 
     58 CA         33.9100   38.3450    9.3250 C.3       9 GLL5        0.0000 
     59 CA         34.4180   35.2240    7.7950 C.3       6 GLP5        0.0000 
     60 CA         35.1200   37.3570   10.7300 C.3       3 GLC5        0.0000 
     61 N          33.6500   41.3095    6.9425 N.am      2 SEC2        0.0000 
     62 N          33.7720   40.2070    7.8290 N.am      8 SEL2        0.0000 
     63 N          33.5280   42.4120    6.0560 N.am      5 SEP2        0.0000 
     64 O          36.5975   38.8565    9.4100 O.2       1 ALC1        0.0000 
     65 O          35.8460   39.6530    8.6200 O.2       7 ALL1        0.0000 
     66 O          37.3490   38.0600   10.2000 O.2       4 ALP1        0.0000 
     67 CA         38.1260   40.4145    9.1375 C.3       3 GLC5        0.0000 
     68 CA         36.5370   40.7300    7.8850 C.3       9 GLL5        0.0000 
     69 CA         39.7150   40.0990   10.3900 C.3       6 GLP5        0.0000 
     70 CA         38.2405   42.1340    7.9575 C.3       3 GLC5        0.0000 
     71 CA         39.9440   43.5380    8.0300 C.3       6 GLP5        0.0000 
     72 CA         39.1305   37.4640    6.7860 C.3       3 GLC5        0.0000 
     73 CA         37.7250   38.7410    6.3260 C.3       9 GLL5        0.0000 
     74 CA         40.5360   36.1870    7.2460 C.3       6 GLP5        0.0000 
     75 CA         29.7395   46.4155   15.7293 C.3       3 GLC5        0.0000 
     76 CA         31.1180   46.9870   14.2590 C.3       9 GLL5        0.0000 
     77 CA         28.9570   45.7770   17.5580 C.3       6 GLP5        0.0000 
     78 CA         31.1945   46.1065   12.6178 C.3       3 GLC5        0.0000 
     79 CA         37.1195   42.9868   12.7078 C.3       3 GLC5        0.0000 
     80 CA         35.2440   42.6840   14.0650 C.3       9 GLL5        0.0000 
     81 CA         36.3197   42.3415    7.6658 C.3       3 GLC5        0.0000 
     82 CA         35.9310   44.1350    8.1760 C.3       6 GLP5        0.0000 
@<TRIPOS>BOND
@<TRIPOS>SUBSTRUCTURE
     1 ALC1       64 GROUP        1 X    ALC  0     ROOT ALC X 1
     2 SEC2       18 GROUP        1 X    SEC  0     **** SEC X 2
     3 GLC5        1 GROUP        1 X    GLC  0     **** GLC X 6
     4 ALP1       66 GROUP        1 Y    ALP  0     ROOT ALP Y 8
     5 SEP2       20 GROUP        1 Y    SEP  0     **** SEP Y 9
     6 GLP5        3 GROUP        1 Y    GLP  0     **** GLP Y 13
     7 ALL1       65 GROUP        1 Z    ALL  0     ROOT ALL Z 15
     8 SEL2       19 GROUP        1 Z    SEL  0     **** SEL Z 16
     9 GLL5        2 GROUP        1 Z    GLL  0     **** GLL Z 20
@<TRIPOS>SET

