#    Name: 2cnt_COA_2_ligand
#    Modification time : Tue Mar 25 01:12:07 2014

@<TRIPOS>MOLECULE
2cnt_COA_2_ligand
   79    81     1     0     0
SMALL
NO_CHARGES


@<TRIPOS>ATOM
      1 N1A        29.6720   48.2920   12.9320 N.ar      1 COA1152     0.0000 
      2 C2A        30.5120   49.3350   12.9870 C.ar      1 COA1152     0.0000 
      3 N3A        31.6510   49.2460   13.6550 N.ar      1 COA1152     0.0000 
      4 C4A        31.9790   48.0830   14.2930 C.ar      1 COA1152     0.0000 
      5 C5A        31.1180   46.9870   14.2590 C.ar      1 COA1152     0.0000 
      6 C6A        29.9260   47.1210   13.5420 C.ar      1 COA1152     0.0000 
      7 N6A        29.0440   46.1270   13.4390 N.pl3     1 COA1152     0.0000 
      8 N7A        31.6950   45.9930   14.9580 N.2       1 COA1152     0.0000 
      9 C8A        32.8580   46.4520   15.4180 C.2       1 COA1152     0.0000 
     10 N9A        33.0330   47.7170   15.0130 N.pl3     1 COA1152     0.0000 
     11 C1B        34.1860   48.6010   15.3090 C.3       1 COA1152     0.0000 
     12 C2B        34.3490   48.8070   16.8310 C.3       1 COA1152     0.0000 
     13 O2B        33.5100   49.8600   17.3900 O.3       1 COA1152     0.0000 
     14 C3B        35.8500   49.1060   16.9050 C.3       1 COA1152     0.0000 
     15 O3B        36.0500   50.3890   16.3820 O.3       1 COA1152     0.0000 
     16 P3B        36.4350   51.5960   17.3110 P.3       1 COA1152     0.0000 
     17 O7A        37.4480   51.0890   18.4480 O.co2     1 COA1152     0.0000 
     18 O8A        35.0320   51.9470   18.1160 O.co2     1 COA1152     0.0000 
     19 O9A        36.9310   52.6700   16.4050 O.co2     1 COA1152     0.0000 
     20 C4B        36.4510   48.1650   15.8420 C.3       1 COA1152     0.0000 
     21 O4B        35.3770   47.8840   14.9230 O.3       1 COA1152     0.0000 
     22 C5B        37.0090   46.8590   16.4590 C.3       1 COA1152     0.0000 
     23 O5B        35.9960   46.2560   17.2130 O.3       1 COA1152     0.0000 
     24 P1A        36.1220   44.8530   17.8970 P.3       1 COA1152     0.0000 
     25 O1A        37.5420   44.5100   18.1680 O.co2     1 COA1152     0.0000 
     26 O2A        35.1550   44.8870   19.0340 O.co2     1 COA1152     0.0000 
     27 O3A        35.6300   43.9290   16.6830 O.3       1 COA1152     0.0000 
     28 P2A        34.9400   42.5520   16.7610 P.3       1 COA1152     0.0000 
     29 O4A        35.5950   41.6980   17.7980 O.co2     1 COA1152     0.0000 
     30 O5A        33.4400   42.7070   16.7700 O.co2     1 COA1152     0.0000 
     31 O6A        35.2790   41.9320   15.3210 O.3       1 COA1152     0.0000 
     32 CBP        35.0660   41.7080   12.8650 C.3       1 COA1152     0.0000 
     33 CCP        35.2440   42.6840   14.0650 C.3       1 COA1152     0.0000 
     34 CDP        35.1470   42.5150   11.5640 C.3       1 COA1152     0.0000 
     35 CEP        36.1860   40.6530   12.8890 C.3       1 COA1152     0.0000 
     36 CAP        33.7240   40.9750   13.0120 C.3       1 COA1152     0.0000 
     37 OAP        32.6020   41.8240   12.9910 O.3       1 COA1152     0.0000 
     38 C9P        33.4770   39.7570   12.1090 C.2       1 COA1152     0.0000 
     39 O9P        33.7530   38.6420   12.5220 O.2       1 COA1152     0.0000 
     40 N8P        32.9000   39.9690   10.9110 N.am      1 COA1152     0.0000 
     41 C7P        32.6130   38.8270   10.0010 C.3       1 COA1152     0.0000 
     42 C6P        33.9100   38.3450    9.3250 C.3       1 COA1152     0.0000 
     43 C5P        34.5110   39.4910    8.5210 C.2       1 COA1152     0.0000 
     44 O5P        33.7720   40.2070    7.8290 O.2       1 COA1152     0.0000 
     45 N4P        35.8460   39.6530    8.6200 N.am      1 COA1152     0.0000 
     46 C3P        36.5370   40.7300    7.8850 C.3       1 COA1152     0.0000 
     47 C2P        36.8800   40.3660    6.4260 C.3       1 COA1152     0.0000 
     48 S1P        37.7250   38.7410    6.3260 S.3       1 COA1152     0.0000 
     49 H          30.2572   50.2274   12.4931 H         1 COA1152     0.0000 
     50 H          29.2767   45.2808   13.9184 H         1 COA1152     0.0000 
     51 H          28.2290   46.3169   12.8916 H         1 COA1152     0.0000 
     52 H          33.4901   45.9465   15.9674 H         1 COA1152     0.0000 
     53 H          34.1161   49.5222   14.8371 H         1 COA1152     0.0000 
     54 H          34.1982   47.8479   17.2903 H         1 COA1152     0.0000 
     55 H          36.2288   48.9086   17.8099 H         1 COA1152     0.0000 
     56 H          37.2458   48.6893   15.3481 H         1 COA1152     0.0000 
     57 H          37.8787   47.1375   17.0596 H         1 COA1152     0.0000 
     58 H          37.3504   46.2357   15.6286 H         1 COA1152     0.0000 
     59 H          36.1705   43.2354   13.9070 H         1 COA1152     0.0000 
     60 H          34.4104   43.3856   14.0460 H         1 COA1152     0.0000 
     61 H          33.7591   40.5172   14.0818 H         1 COA1152     0.0000 
     62 H          32.6339   40.8963   10.5674 H         1 COA1152     0.0000 
     63 H          31.9109   39.1265    9.2235 H         1 COA1152     0.0000 
     64 H          32.1857   37.9939   10.5582 H         1 COA1152     0.0000 
     65 H          33.6790   37.5194    8.6666 H         1 COA1152     0.0000 
     66 H          34.6084   38.0284   10.0868 H         1 COA1152     0.0000 
     67 H          36.4403   39.0460    9.2017 H         1 COA1152     0.0000 
     68 H          37.4798   41.0014    8.3954 H         1 COA1152     0.0000 
     69 H          35.9155   41.6446    7.8672 H         1 COA1152     0.0000 
     70 H          37.5939   41.0168    5.9816 H         1 COA1152     0.0000 
     71 H          36.0246   40.2111    5.8137 H         1 COA1152     0.0000 
     72 H          36.0274   42.9797   11.4694 H         1 COA1152     0.0000 
     73 H          35.0347   41.9332   10.7585 H         1 COA1152     0.0000 
     74 H          34.4378   43.2186   11.5186 H         1 COA1152     0.0000 
     75 H          37.0918   41.0714   12.8231 H         1 COA1152     0.0000 
     76 H          36.1720   40.1157   13.7322 H         1 COA1152     0.0000 
     77 H          36.1050   40.0080   12.1291 H         1 COA1152     0.0000 
     78 H          34.1445   50.5921   17.6378 H         1 COA1152     0.0000 
     79 H          32.5680   42.2304   13.9040 H         1 COA1152     0.0000 
@<TRIPOS>BOND
     1    2    1 ar   
     2    6    1 ar   
     3    3    2 ar   
     4   49    2 1    
     5    4    3 ar   
     6    5    4 ar   
     7   10    4 1    
     8    6    5 ar   
     9    8    5 1    
    10    7    6 1    
    11   50    7 1    
    12   51    7 1    
    13    9    8 2    
    14   10    9 1    
    15   52    9 1    
    16   11   10 1    
    17   12   11 1    
    18   21   11 1    
    19   53   11 1    
    20   13   12 1    
    21   14   12 1    
    22   54   12 1    
    23   78   13 1    
    24   15   14 1    
    25   20   14 1    
    26   55   14 1    
    27   16   15 1    
    28   17   16 ar   
    29   18   16 ar   
    30   19   16 ar   
    31   21   20 1    
    32   22   20 1    
    33   56   20 1    
    34   23   22 1    
    35   57   22 1    
    36   58   22 1    
    37   24   23 1    
    38   25   24 ar   
    39   26   24 ar   
    40   27   24 1    
    41   28   27 1    
    42   29   28 ar   
    43   30   28 ar   
    44   31   28 1    
    45   33   31 1    
    46   33   32 1    
    47   34   32 1    
    48   35   32 1    
    49   36   32 1    
    50   59   33 1    
    51   60   33 1    
    52   72   34 1    
    53   73   34 1    
    54   74   34 1    
    55   75   35 1    
    56   76   35 1    
    57   77   35 1    
    58   37   36 1    
    59   38   36 1    
    60   61   36 1    
    61   79   37 1    
    62   39   38 2    
    63   40   38 am   
    64   41   40 1    
    65   62   40 1    
    66   42   41 1    
    67   63   41 1    
    68   64   41 1    
    69   43   42 1    
    70   65   42 1    
    71   66   42 1    
    72   44   43 2    
    73   45   43 am   
    74   46   45 1    
    75   67   45 1    
    76   47   46 1    
    77   68   46 1    
    78   69   46 1    
    79   48   47 1    
    80   70   47 1    
    81   71   47 1    
@<TRIPOS>SUBSTRUCTURE
     1 COA1152     1 GROUP   
@<TRIPOS>SET

