#    Name: 2irw_NN4_2_INTS_M
#    Modification time : Tue Mar 25 18:31:02 2014

@<TRIPOS>MOLECULE
2irw_NN4_2_INTS_M
   69     0     9     0     0
SMALL
NO_CHARGES


@<TRIPOS>ATOM
      1 CA         98.3290   95.9735  247.3495 C.3       3 GLC5        0.0000 
      2 CA         99.3270   97.6730  246.8930 C.3       9 GLL5        0.0000 
      3 CA         97.3310   94.2740  247.8060 C.3       6 GLP5        0.0000 
      4 CA        102.2190   97.7080  248.8140 C.3       3 GLC5        0.0000 
      5 CA        100.7850   99.1390  248.3100 C.3       9 GLL5        0.0000 
      6 CA        103.6530   96.2770  249.3180 C.3       6 GLP5        0.0000 
      7 CA        100.5200   98.6890  250.1275 C.3       3 GLC5        0.0000 
      8 CA        100.2550   98.2390  251.9450 C.3       6 GLP5        0.0000 
      9 CA        100.1125  100.8835  244.1620 C.3       3 GLC5        0.0000 
     10 CA         99.1550   99.4800  245.2230 C.3       9 GLL5        0.0000 
     11 CA        101.0700  102.2870  243.1010 C.3       6 GLP5        0.0000 
     12 CA         98.0895   99.2100  243.6895 C.3       3 GLC5        0.0000 
     13 CA         97.0240   98.9400  242.1560 C.3       6 GLP5        0.0000 
     14 CA         92.3365  101.0740  249.8540 C.3       3 GLC5        0.0000 
     15 CA         93.9600  100.8860  248.3090 C.3       9 GLL5        0.0000 
     16 CA         90.7130  101.2620  251.3990 C.3       6 GLP5        0.0000 
     17 CA         93.1885  102.8395  248.5660 C.3       3 GLC5        0.0000 
     18 CA         92.4170  104.7930  248.8230 C.3       6 GLP5        0.0000 
     19 CA         95.6020  102.1620  248.5875 C.3       3 GLC5        0.0000 
     20 CA         97.2440  103.4380  248.8660 C.3       6 GLP5        0.0000 
     21 CA         96.4255   96.2460  245.1080 C.3       3 GLC5        0.0000 
     22 CA         94.8040   97.3830  245.7890 C.3       9 GLL5        0.0000 
     23 CA         98.0470   95.1090  244.4270 C.3       6 GLP5        0.0000 
     24 CA         96.0675   95.8285  246.7975 C.3       3 GLC5        0.0000 
     25 CA         92.5345   98.7805  243.3335 C.3       3 GLC5        0.0000 
     26 CA         92.8750   98.8130  245.5190 C.3       9 GLL5        0.0000 
     27 CA         92.1940   98.7480  241.1480 C.3       6 GLP5        0.0000 
     28 CA         90.9335   94.4925  243.8385 C.3       3 GLC5        0.0000 
     29 CA         92.5990   94.2570  244.6020 C.3       9 GLL5        0.0000 
     30 CA         89.2680   94.7280  243.0750 C.3       6 GLP5        0.0000 
     31 CA         91.6110   95.1620  246.1025 C.3       3 GLC5        0.0000 
     32 CA         90.6230   96.0670  247.6030 C.3       6 GLP5        0.0000 
     33 CA         91.3630   92.9040  245.7620 C.3       3 GLC5        0.0000 
     34 CA         90.1270   91.5510  246.9220 C.3       6 GLP5        0.0000 
     35 CA         93.2030   95.5700  243.0775 C.3       3 GLC5        0.0000 
     36 CA         93.8070   96.8830  241.5530 C.3       6 GLP5        0.0000 
     37 N          95.7655  100.4340  250.6345 N.am      2 SEC2        0.0000 
     38 N          96.5490  100.5300  249.4470 N.am      8 SEL2        0.0000 
     39 N          94.9820  100.3380  251.8220 N.am      5 SEP2        0.0000 
     40 N          97.6325  100.3065  250.5655 N.am      2 SEC2        0.0000 
     41 N          98.7160  100.0830  251.6840 N.am      5 SEP2        0.0000 
     42 O         103.9200  102.7315  248.0595 O.2       1 ALC1        0.0000 
     43 O         103.0030  101.4320  247.5080 O.2       7 ALL1        0.0000 
     44 O         104.8370  104.0310  248.6110 O.2       4 ALP1        0.0000 
     45 CA         94.3155   97.7985  250.3550 C.3       3 GLC5        0.0000 
     46 CA         94.4030   98.4590  248.6500 C.3       9 GLL5        0.0000 
     47 CA         94.2280   97.1380  252.0600 C.3       6 GLP5        0.0000 
     48 CA         92.7565   97.4940  249.2725 C.3       3 GLC5        0.0000 
     49 CA         91.1100   96.5290  249.8950 C.3       6 GLP5        0.0000 
     50 CA         95.4015   95.5825  243.8135 C.3       3 GLC5        0.0000 
     51 CA         94.1270   96.3330  245.2150 C.3       9 GLL5        0.0000 
     52 CA         96.6760   94.8320  242.4120 C.3       6 GLP5        0.0000 
     53 CA         98.8440   96.5360  245.3460 C.3       3 GLC5        0.0000 
     54 CA         98.9603   99.0197  249.7778 C.3       3 GLC5        0.0000 
     55 CA         99.3580   98.7040  248.0170 C.3       9 GLL5        0.0000 
     56 CA         98.9610   98.7220  251.7400 C.3       6 GLP5        0.0000 
     57 CA        102.4263   99.6720  249.2315 C.3       3 GLC5        0.0000 
     58 CA        103.7620   99.9160  250.7850 C.3       6 GLP5        0.0000 
     59 CA        100.0438  102.0380  245.1118 C.3       3 GLC5        0.0000 
     60 CA        100.5930  100.9380  246.6190 C.3       9 GLL5        0.0000 
     61 CA        100.2120  103.3470  243.7450 C.3       6 GLP5        0.0000 
     62 CA         94.1362   96.8705  243.5275 C.3       3 GLC5        0.0000 
     63 CA         93.1600   97.0160  243.2120 C.3       3 GLC5        0.0000 
     64 CA         92.8240   96.5370  244.8000 C.3       9 GLL5        0.0000 
     65 CA         98.9011  102.0130  247.8096 C.3       3 GLC5        0.0000 
     66 CA         98.5610   99.9310  247.6140 C.3       9 GLL5        0.0000 
     67 CA         98.5840  103.6960  248.5730 C.3       6 GLP5        0.0000 
     68 CA        101.0725   98.2876  243.9350 C.3       3 GLC5        0.0000 
     69 CA        101.6730   97.8050  242.1870 C.3       6 GLP5        0.0000 
@<TRIPOS>BOND
@<TRIPOS>SUBSTRUCTURE
     1 ALC1       42 GROUP        1 X    ALC  0     ROOT ALC X 1
     2 SEC2       37 GROUP        1 X    SEC  0     **** SEC X 2
     3 GLC5        1 GROUP        1 X    GLC  0     **** GLC X 6
     4 ALP1       44 GROUP        1 Y    ALP  0     ROOT ALP Y 8
     5 SEP2       39 GROUP        1 Y    SEP  0     **** SEP Y 9
     6 GLP5        3 GROUP        1 Y    GLP  0     **** GLP Y 13
     7 ALL1       43 GROUP        1 Z    ALL  0     ROOT ALL Z 15
     8 SEL2       38 GROUP        1 Z    SEL  0     **** SEL Z 16
     9 GLL5        2 GROUP        1 Z    GLL  0     **** GLL Z 20
@<TRIPOS>SET

