#    Name: 2irw_NN4_2_ligand
#    Modification time : Tue Mar 25 18:31:02 2014

@<TRIPOS>MOLECULE
2irw_NN4_2_ligand
   58    61     1     0     0
SMALL
NO_CHARGES


@<TRIPOS>ATOM
      1 C4         99.3270   97.6730  246.8930 C.3       1 NN4911      0.0000 
      2 C5         99.3580   98.7040  248.0170 C.3       1 NN4911      0.0000 
      3 C6        100.7850   99.1390  248.3100 C.3       1 NN4911      0.0000 
      4 C7        100.5930  100.9380  246.6190 C.3       1 NN4911      0.0000 
      5 C8         99.1550   99.4800  245.2230 C.3       1 NN4911      0.0000 
      6 C10        99.1580  100.5200  246.3380 C.3       1 NN4911      0.0000 
      7 C15        96.2510   99.9950  248.3880 C.2       1 NN4911      0.0000 
      8 C20        93.9600  100.8860  248.3090 C.3       1 NN4911      0.0000 
      9 C21        94.1740   98.6070  245.9470 C.ar      1 NN4911      0.0000 
     10 C22        94.8040   97.3830  245.7890 C.ar      1 NN4911      0.0000 
     11 C24        92.8240   96.5370  244.8000 C.ar      1 NN4911      0.0000 
     12 C26        92.8750   98.8130  245.5190 C.ar      1 NN4911      0.0000 
     13 C28        92.5990   94.2570  244.6020 C.3       1 NN4911      0.0000 
     14 O17        96.5490  100.5300  249.4470 O.2       1 NN4911      0.0000 
     15 N11        97.1720   99.5680  247.4690 N.am      1 NN4911      0.0000 
     16 C9         98.5610   99.9310  247.6140 C.3       1 NN4911      0.0000 
     17 C3         99.9550   98.2530  245.6370 C.3       1 NN4911      0.0000 
     18 C2        101.3890   98.6740  245.9360 C.3       1 NN4911      0.0000 
     19 C1        101.3960   99.7170  247.0460 C.3       1 NN4911      0.0000 
     20 C12       102.8090  100.0760  247.3740 C.2       1 NN4911      0.0000 
     21 O14       103.6830   99.2290  247.5150 O.2       1 NN4911      0.0000 
     22 N13       103.0030  101.4320  247.5080 N.am      1 NN4911      0.0000 
     23 C16        94.8390   99.7200  247.9500 C.3       1 NN4911      0.0000 
     24 C19        94.4030   98.4590  248.6500 C.3       1 NN4911      0.0000 
     25 O18        94.8700   99.6720  246.5200 O.3       1 NN4911      0.0000 
     26 C25        92.2020   97.7610  244.9420 C.ar      1 NN4911      0.0000 
     27 O27        92.0720   95.5260  244.2080 O.3       1 NN4911      0.0000 
     28 C23        94.1270   96.3330  245.2150 C.ar      1 NN4911      0.0000 
     29 H          98.2962   97.3963  246.6888 H         1 NN4911      0.0000 
     30 H          99.8806   96.7902  247.2011 H         1 NN4911      0.0000 
     31 H          98.9290   98.2829  248.9010 H         1 NN4911      0.0000 
     32 H         101.3641   98.2828  248.6336 H         1 NN4911      0.0000 
     33 H         100.7800   99.8930  249.0876 H         1 NN4911      0.0000 
     34 H         100.6063  101.6741  247.4137 H         1 NN4911      0.0000 
     35 H         101.0290  101.3604  245.7217 H         1 NN4911      0.0000 
     36 H          99.5953   99.9127  244.3268 H         1 NN4911      0.0000 
     37 H          98.1293   99.1867  245.0079 H         1 NN4911      0.0000 
     38 H          98.5943  101.3695  246.0390 H         1 NN4911      0.0000 
     39 H          95.7789   97.2647  246.1029 H         1 NN4911      0.0000 
     40 H          92.4295   99.7247  245.6301 H         1 NN4911      0.0000 
     41 H          96.9074   98.9891  246.6664 H         1 NN4911      0.0000 
     42 H          98.6817  100.6681  248.4097 H         1 NN4911      0.0000 
     43 H          99.9414   97.5372  244.8611 H         1 NN4911      0.0000 
     44 H         101.8344   99.0961  245.0415 H         1 NN4911      0.0000 
     45 H         101.9604   97.8076  246.2514 H         1 NN4911      0.0000 
     46 H         102.1960  102.0073  247.3746 H         1 NN4911      0.0000 
     47 H         103.9341  101.7238  247.7270 H         1 NN4911      0.0000 
     48 H          91.2305   97.8851  244.6141 H         1 NN4911      0.0000 
     49 H          94.5732   95.4217  245.0963 H         1 NN4911      0.0000 
     50 H          93.9511  101.0548  249.2946 H         1 NN4911      0.0000 
     51 H          94.2658  101.7307  247.8697 H         1 NN4911      0.0000 
     52 H          93.0118  100.7365  248.0286 H         1 NN4911      0.0000 
     53 H          93.5522   94.1471  244.3204 H         1 NN4911      0.0000 
     54 H          92.5705   94.1349  245.5941 H         1 NN4911      0.0000 
     55 H          92.0850   93.5000  244.1986 H         1 NN4911      0.0000 
     56 H          94.9862   97.6820  248.4129 H         1 NN4911      0.0000 
     57 H          94.4347   98.5565  249.6447 H         1 NN4911      0.0000 
     58 H          93.4658   98.2060  248.4100 H         1 NN4911      0.0000 
@<TRIPOS>BOND
     1    2    1 1    
     2   17    1 1    
     3   29    1 1    
     4   30    1 1    
     5    3    2 1    
     6   16    2 1    
     7   31    2 1    
     8   19    3 1    
     9   32    3 1    
    10   33    3 1    
    11    6    4 1    
    12   19    4 1    
    13   34    4 1    
    14   35    4 1    
    15    6    5 1    
    16   17    5 1    
    17   36    5 1    
    18   37    5 1    
    19   16    6 1    
    20   38    6 1    
    21   14    7 2    
    22   15    7 am   
    23   23    7 1    
    24   23    8 1    
    25   50    8 1    
    26   51    8 1    
    27   52    8 1    
    28   10    9 ar   
    29   12    9 ar   
    30   25    9 1    
    31   28   10 ar   
    32   39   10 1    
    33   26   11 ar   
    34   27   11 1    
    35   28   11 ar   
    36   26   12 ar   
    37   40   12 1    
    38   27   13 1    
    39   53   13 1    
    40   54   13 1    
    41   55   13 1    
    42   16   15 1    
    43   41   15 1    
    44   42   16 1    
    45   18   17 1    
    46   43   17 1    
    47   19   18 1    
    48   44   18 1    
    49   45   18 1    
    50   20   19 1    
    51   21   20 2    
    52   22   20 am   
    53   46   22 1    
    54   47   22 1    
    55   24   23 1    
    56   25   23 1    
    57   56   24 1    
    58   57   24 1    
    59   58   24 1    
    60   48   26 1    
    61   49   28 1    
@<TRIPOS>SUBSTRUCTURE
     1 NN4911      1 GROUP   
@<TRIPOS>SET

