#    Name: 2acz_AT5_1_INTS_M
#    Modification time : Mon Mar 24 19:01:49 2014

@<TRIPOS>MOLECULE
2acz_AT5_1_INTS_M
   50     0     9     0     0
SMALL
NO_CHARGES


@<TRIPOS>ATOM
      1 CA         88.1875   96.5905  108.2585 C.3       3 GLC5        0.0000 
      2 CA         87.7490   94.8430  107.0450 C.3       9 GLL5        0.0000 
      3 CA         88.6260   98.3380  109.4720 C.3       6 GLP5        0.0000 
      4 CA         91.0150   98.1800  108.3295 C.3       3 GLC5        0.0000 
      5 CA         92.2040   97.9500  106.5290 C.3       9 GLL5        0.0000 
      6 CA         89.8260   98.4100  110.1300 C.3       6 GLP5        0.0000 
      7 CA         92.2005   96.0810  107.4425 C.3       3 GLC5        0.0000 
      8 CA         92.1970   94.2120  108.3560 C.3       6 GLP5        0.0000 
      9 CA         90.4485   93.9745  107.9640 C.3       3 GLC5        0.0000 
     10 CA         88.7000   93.7370  107.5720 C.3       9 GLL5        0.0000 
     11 CA         88.1165   92.2580  108.5130 C.3       3 GLC5        0.0000 
     12 CA         87.5330   90.7790  109.4540 C.3       6 GLP5        0.0000 
     13 CA         82.9990   94.9015  107.9940 C.3       3 GLC5        0.0000 
     14 CA         84.9590   95.2160  106.9890 C.3       9 GLL5        0.0000 
     15 CA         81.0390   94.5870  108.9990 C.3       6 GLP5        0.0000 
     16 O          81.5315   94.2750  106.0425 O.2       1 ALC1        0.0000 
     17 O          82.5430   95.2010  106.4060 O.2       7 ALL1        0.0000 
     18 O          80.5200   93.3490  105.6790 O.2       4 ALP1        0.0000 
     19 N          86.1915   98.5010  108.2810 N.am      2 SEC2        0.0000 
     20 N          85.9840   97.5090  107.2860 N.am      8 SEL2        0.0000 
     21 N          86.3990   99.4930  109.2760 N.am      5 SEP2        0.0000 
     22 CA         84.3780   99.9245  108.9000 C.3       3 GLC5        0.0000 
     23 CA         82.9180   99.2580  107.9290 C.3       9 GLL5        0.0000 
     24 CA         85.8380  100.5910  109.8710 C.3       6 GLP5        0.0000 
     25 N          80.2500   98.1355  106.5465 N.am      2 SEC2        0.0000 
     26 N          81.2040   97.2040  106.1380 N.am      8 SEL2        0.0000 
     27 N          79.2960   99.0670  106.9550 N.am      5 SEP2        0.0000 
     28 CA         79.2960   97.9085  106.0810 C.3       3 GLC5        0.0000 
     29 CA         80.5820   97.0660  104.8370 C.3       9 GLL5        0.0000 
     30 CA         78.0100   98.7510  107.3250 C.3       6 GLP5        0.0000 
     31 CA         79.9690   95.2455  104.8590 C.3       3 GLC5        0.0000 
     32 CA         79.3560   93.4250  104.8810 C.3       6 GLP5        0.0000 
     33 CA         81.4050   97.5835  103.0570 C.3       3 GLC5        0.0000 
     34 CA         82.2280   98.1010  101.2770 C.3       6 GLP5        0.0000 
     35 CA         86.6902   95.2270  104.8088 C.3       3 GLC5        0.0000 
     36 CA         88.0200   95.0630  105.6020 C.3       9 GLL5        0.0000 
     37 CA         85.4960   95.5010  103.2940 C.3       6 GLP5        0.0000 
     38 CA         86.9952   96.0807  103.8942 C.3       3 GLC5        0.0000 
     39 CA         88.6470   96.3570  105.2070 C.3       9 GLL5        0.0000 
     40 CA         87.7843   98.4322  104.8137 C.3       3 GLC5        0.0000 
     41 CA         88.3420   96.9640  103.7820 C.3       9 GLL5        0.0000 
     42 CA         87.0740  100.2040  105.1330 C.3       6 GLP5        0.0000 
     43 CA         91.4130   94.9797  106.5915 C.3       3 GLC5        0.0000 
     44 CA         90.2220   96.2830  105.4350 C.3       9 GLL5        0.0000 
     45 CA         82.0365   95.7717  107.7805 C.3       3 GLC5        0.0000 
     46 CA         83.6540   97.3370  106.7180 C.3       9 GLL5        0.0000 
     47 CA         84.5386   96.3345  108.7556 C.3       3 GLC5        0.0000 
     48 CA         84.7830   96.0090  110.6530 C.3       6 GLP5        0.0000 
     49 CA         84.8951   96.0805  105.0761 C.3       3 GLC5        0.0000 
     50 CA         84.9100   96.7500  107.0080 C.3       9 GLL5        0.0000 
@<TRIPOS>BOND
@<TRIPOS>SUBSTRUCTURE
     1 ALC1       16 GROUP        1 X    ALC  0     ROOT ALC X 1
     2 SEC2       19 GROUP        1 X    SEC  0     **** SEC X 2
     3 GLC5        1 GROUP        1 X    GLC  0     **** GLC X 6
     4 ALP1       18 GROUP        1 Y    ALP  0     ROOT ALP Y 8
     5 SEP2       21 GROUP        1 Y    SEP  0     **** SEP Y 9
     6 GLP5        3 GROUP        1 Y    GLP  0     **** GLP Y 13
     7 ALL1       17 GROUP        1 Z    ALL  0     ROOT ALL Z 15
     8 SEL2       20 GROUP        1 Z    SEL  0     **** SEL Z 16
     9 GLL5        2 GROUP        1 Z    GLL  0     **** GLL Z 20
@<TRIPOS>SET

