#    Name: 2acz_AT5_1_ligand
#    Modification time : Mon Mar 24 19:01:49 2014

@<TRIPOS>MOLECULE
2acz_AT5_1_ligand
   43    43     1     0     0
SMALL
NO_CHARGES


@<TRIPOS>ATOM
      1 O5         86.0700   93.2940  107.8490 O.2       1 AT5131      0.0000 
      2 C7         86.2550   94.4020  107.3040 C.2       1 AT5131      0.0000 
      3 C8         87.7490   94.8430  107.0450 C.3       1 AT5131      0.0000 
      4 C11        88.0200   95.0630  105.6020 C.3       1 AT5131      0.0000 
      5 C12        88.6470   96.3570  105.2070 C.3       1 AT5131      0.0000 
      6 C17        88.3420   96.9640  103.7820 C.3       1 AT5131      0.0000 
      7 C13        90.2220   96.2830  105.4350 C.3       1 AT5131      0.0000 
      8 CL12       91.0360   95.2120  104.2190 Cl        1 AT5131      0.0000 
      9 C14        90.8910   97.7240  105.3470 C.3       1 AT5131      0.0000 
     10 CL16       92.2040   97.9500  106.5290 Cl        1 AT5131      0.0000 
     11 C10        88.7000   93.7370  107.5720 C.3       1 AT5131      0.0000 
     12 C6         84.9590   95.2160  106.9890 C.2       1 AT5131      0.0000 
     13 C5         83.7570   94.5340  106.6830 C.2       1 AT5131      0.0000 
     14 N4         82.5430   95.2010  106.4060 N.am      1 AT5131      0.0000 
     15 C3         82.4140   96.5760  106.4060 C.2       1 AT5131      0.0000 
     16 C2         83.6540   97.3370  106.7180 C.2       1 AT5131      0.0000 
     17 C1         84.9100   96.7500  107.0080 C.2       1 AT5131      0.0000 
     18 O1         85.9840   97.5090  107.2860 O.co2     1 AT5131      0.0000 
     19 O2         83.5540   98.7100  106.7210 O.3       1 AT5131      0.0000 
     20 CM2        82.9180   99.2580  107.9290 C.3       1 AT5131      0.0000 
     21 O3         81.2040   97.2040  106.1380 O.3       1 AT5131      0.0000 
     22 CM3        80.5820   97.0660  104.8370 C.3       1 AT5131      0.0000 
     23 O4         83.7430   93.1890  106.6570 O.2       1 AT5131      0.0000 
     24 H          87.9329   95.7347  107.6101 H         1 AT5131      0.0000 
     25 H          87.0572   94.9410  105.0286 H         1 AT5131      0.0000 
     26 H          88.6648   94.2207  105.2207 H         1 AT5131      0.0000 
     27 H          88.3216   97.1480  105.9514 H         1 AT5131      0.0000 
     28 H          90.4560   95.8321  106.3598 H         1 AT5131      0.0000 
     29 H          90.1928   98.4950  105.5837 H         1 AT5131      0.0000 
     30 H          91.3619   97.8801  104.4026 H         1 AT5131      0.0000 
     31 H          81.7025   94.6091  106.1904 H         1 AT5131      0.0000 
     32 H          88.8216   97.8294  103.6365 H         1 AT5131      0.0000 
     33 H          88.6226   96.3463  103.0474 H         1 AT5131      0.0000 
     34 H          87.3665   97.1447  103.6563 H         1 AT5131      0.0000 
     35 H          89.6608   93.9736  107.4276 H         1 AT5131      0.0000 
     36 H          88.5807   93.5809  108.5525 H         1 AT5131      0.0000 
     37 H          88.5416   92.8620  107.1145 H         1 AT5131      0.0000 
     38 H          83.4235   99.0160  108.7572 H         1 AT5131      0.0000 
     39 H          82.8636  100.2561  107.8999 H         1 AT5131      0.0000 
     40 H          81.9851   98.9169  108.0449 H         1 AT5131      0.0000 
     41 H          81.1698   97.4119  104.1057 H         1 AT5131      0.0000 
     42 H          80.3783   96.1108  104.6222 H         1 AT5131      0.0000 
     43 H          79.7195   97.5691  104.7825 H         1 AT5131      0.0000 
@<TRIPOS>BOND
     1    2    1 2    
     2    3    2 1    
     3   12    2 1    
     4    4    3 1    
     5   11    3 1    
     6   24    3 1    
     7    5    4 1    
     8   25    4 1    
     9   26    4 1    
    10    6    5 1    
    11    7    5 1    
    12   27    5 1    
    13   32    6 1    
    14   33    6 1    
    15   34    6 1    
    16    8    7 1    
    17    9    7 1    
    18   28    7 1    
    19   10    9 1    
    20   29    9 1    
    21   30    9 1    
    22   35   11 1    
    23   36   11 1    
    24   37   11 1    
    25   13   12 1    
    26   17   12 2    
    27   14   13 am   
    28   23   13 2    
    29   15   14 1    
    30   31   14 1    
    31   16   15 2    
    32   21   15 1    
    33   17   16 1    
    34   19   16 1    
    35   18   17 1    
    36   20   19 1    
    37   38   20 1    
    38   39   20 1    
    39   40   20 1    
    40   22   21 1    
    41   41   22 1    
    42   42   22 1    
    43   43   22 1    
@<TRIPOS>SUBSTRUCTURE
     1 AT5131      1 GROUP   
@<TRIPOS>SET

