#    Name: 3ps6_3PS_1_INTS_M
#    Modification time : Tue Mar 25 08:26:28 2014

@<TRIPOS>MOLECULE
3ps6_3PS_1_INTS_M
   61     0     9     0     0
SMALL
NO_CHARGES


@<TRIPOS>ATOM
      1 CA         44.0580   10.4570   27.3735 C.3       3 GLC5        0.0000 
      2 CA         44.5940   11.6750   28.3280 C.3       9 GLL5        0.0000 
      3 CA         43.5220    9.2390   26.4190 C.3       6 GLP5        0.0000 
      4 CA         46.1945   11.2520   26.8565 C.3       3 GLC5        0.0000 
      5 CA         47.7950   10.8290   25.3850 C.3       6 GLP5        0.0000 
      6 CA         45.1040   12.8280   26.5485 C.3       3 GLC5        0.0000 
      7 CA         45.6140   13.9810   24.7690 C.3       6 GLP5        0.0000 
      8 N          48.0355   11.8195   28.2905 N.am      2 SEC2        0.0000 
      9 N          46.6740   12.7840   28.5730 N.am      8 SEL2        0.0000 
     10 N          49.3970   10.8550   28.0080 N.am      5 SEP2        0.0000 
     11 CA         48.3200   11.9330   29.7455 C.3       3 GLC5        0.0000 
     12 CA         47.3750   13.7530   29.1620 C.3       9 GLL5        0.0000 
     13 CA         49.2650   10.1130   30.3290 C.3       6 GLP5        0.0000 
     14 CA         48.2140   12.7060   27.4010 C.3       3 GLC5        0.0000 
     15 CA         49.0530   11.6590   25.6400 C.3       6 GLP5        0.0000 
     16 O          49.9970   13.3380   28.2055 O.2       1 ALC1        0.0000 
     17 O          48.7240   13.8890   28.8100 O.2       7 ALL1        0.0000 
     18 O          51.2700   12.7870   27.6010 O.2       4 ALP1        0.0000 
     19 CA         44.0830   14.5600   28.6340 C.3       3 GLC5        0.0000 
     20 CA         45.4490   14.4200   30.4010 C.3       9 GLL5        0.0000 
     21 CA         42.7170   14.7000   26.8670 C.3       6 GLP5        0.0000 
     22 CA         43.6320   16.3145   29.9720 C.3       3 GLC5        0.0000 
     23 CA         44.8570   15.2550   31.3300 C.3       9 GLL5        0.0000 
     24 CA         42.4070   17.3740   28.6140 C.3       6 GLP5        0.0000 
     25 CA         39.1320   13.9210   29.9170 C.3       3 GLC5        0.0000 
     26 CA         40.6710   12.8660   30.3880 C.3       9 GLL5        0.0000 
     27 CA         37.5930   14.9760   29.4460 C.3       6 GLP5        0.0000 
     28 N          39.0730   13.5715   29.6550 N.am      2 SEC2        0.0000 
     29 N          39.4030   12.4140   30.7320 N.am      8 SEL2        0.0000 
     30 N          38.7430   14.7290   28.5780 N.am      5 SEP2        0.0000 
     31 CA         35.9640   13.1630   34.0135 C.3       3 GLC5        0.0000 
     32 CA         36.6170   13.1830   32.2240 C.3       9 GLL5        0.0000 
     33 CA         35.3110   13.1430   35.8030 C.3       6 GLP5        0.0000 
     34 CA         36.9500   11.3995   33.5050 C.3       3 GLC5        0.0000 
     35 CA         37.2830    9.6160   34.7860 C.3       6 GLP5        0.0000 
     36 CA         37.1050   14.0795   30.8350 C.3       3 GLC5        0.0000 
     37 CA         34.8045   12.9745   31.4620 C.3       3 GLC5        0.0000 
     38 CA         32.9920   12.7660   30.7000 C.3       6 GLP5        0.0000 
     39 CA         44.3478   10.9815   29.9730 C.3       3 GLC5        0.0000 
     40 CA         43.6990    9.7690   31.3070 C.3       6 GLP5        0.0000 
     41 CA         43.8568   13.4470   27.7530 C.3       3 GLC5        0.0000 
     42 CA         46.2375   13.7483   31.9255 C.3       3 GLC5        0.0000 
     43 CA         46.7930   14.5890   30.0950 C.3       9 GLL5        0.0000 
     44 CA         46.3540   12.9920   33.6030 C.3       6 GLP5        0.0000 
     45 CA         46.1932   15.6267   28.6679 C.3       3 GLC5        0.0000 
     46 CA         46.1200   16.9580   27.3210 C.3       6 GLP5        0.0000 
     47 CA         45.7900   14.3720   32.6195 C.3       3 GLC5        0.0000 
     48 CA         46.7900   14.4965   32.3828 C.3       3 GLC5        0.0000 
     49 CA         46.9260   16.4180   31.6220 C.3       9 GLL5        0.0000 
     50 CA         47.3985   16.9055   29.4793 C.3       3 GLC5        0.0000 
     51 CA         47.5710   17.8100   27.7960 C.3       6 GLP5        0.0000 
     52 CA         41.2357   14.2647   29.1457 C.3       3 GLC5        0.0000 
     53 CA         41.4540   13.6410   31.3690 C.3       9 GLL5        0.0000 
     54 CA         41.4090   15.2760   27.4130 C.3       6 GLP5        0.0000 
     55 CA         38.4040   13.9900   30.9172 C.3       3 GLC5        0.0000 
     56 CA         39.5340   13.3320   32.8750 C.3       9 GLL5        0.0000 
     57 CA         40.1475   13.7048   34.4458 C.3       3 GLC5        0.0000 
     58 CA         40.1070   13.8400   36.1800 C.3       6 GLP5        0.0000 
     59 CA         40.7713   11.8586   32.7639 C.3       3 GLC5        0.0000 
     60 CA         40.8420   13.8070   32.5480 C.3       9 GLL5        0.0000 
     61 CA         41.4590   10.4500   33.4770 C.3       6 GLP5        0.0000 
@<TRIPOS>BOND
@<TRIPOS>SUBSTRUCTURE
     1 ALC1       16 GROUP        1 X    ALC  0     ROOT ALC X 1
     2 SEC2        8 GROUP        1 X    SEC  0     **** SEC X 2
     3 GLC5        1 GROUP        1 X    GLC  0     **** GLC X 6
     4 ALP1       18 GROUP        1 Y    ALP  0     ROOT ALP Y 8
     5 SEP2       10 GROUP        1 Y    SEP  0     **** SEP Y 9
     6 GLP5        3 GROUP        1 Y    GLP  0     **** GLP Y 13
     7 ALL1       17 GROUP        1 Z    ALL  0     ROOT ALL Z 15
     8 SEL2        9 GROUP        1 Z    SEL  0     **** SEL Z 16
     9 GLL5        2 GROUP        1 Z    GLL  0     **** GLL Z 20
@<TRIPOS>SET

