#    Name: 3ps6_3PS_1_ligand
#    Modification time : Tue Mar 25 08:26:29 2014

@<TRIPOS>MOLECULE
3ps6_3PS_1_ligand
   38    40     1     0     0
SMALL
NO_CHARGES


@<TRIPOS>ATOM
      1 C1         44.5940   11.6750   28.3280 C.3       1 3PS1        0.0000 
      2 N2         46.6740   12.7840   28.5730 N.ar      1 3PS1        0.0000 
      3 C3         47.3750   13.7530   29.1620 C.ar      1 3PS1        0.0000 
      4 N4         48.7240   13.8890   28.8100 N.pl3     1 3PS1        0.0000 
      5 C5         46.7930   14.5890   30.0950 C.ar      1 3PS1        0.0000 
      6 C6         45.4490   14.4200   30.4010 C.ar      1 3PS1        0.0000 
      7 C7         44.8570   15.2550   31.3300 C.ar      1 3PS1        0.0000 
      8 N8         44.7340   13.4660   29.8170 N.ar      1 3PS1        0.0000 
      9 C9         45.3990   12.7130   28.9500 C.ar      1 3PS1        0.0000 
     10 C10        46.9260   16.4180   31.6220 C.ar      1 3PS1        0.0000 
     11 C11        45.5950   16.2490   31.9420 C.ar      1 3PS1        0.0000 
     12 C12        47.5260   15.5840   30.7030 C.ar      1 3PS1        0.0000 
     13 C13        43.4340   15.1010   31.7190 C.2       1 3PS1        0.0000 
     14 O14        42.9980   15.8250   32.6080 O.2       1 3PS1        0.0000 
     15 N15        42.7110   14.1150   31.0460 N.am      1 3PS1        0.0000 
     16 C16        41.4540   13.6410   31.3690 C.ar      1 3PS1        0.0000 
     17 C17        40.6710   12.8660   30.3880 C.ar      1 3PS1        0.0000 
     18 N18        39.4030   12.4140   30.7320 N.ar      1 3PS1        0.0000 
     19 C19        38.8960   12.6760   31.9020 C.ar      1 3PS1        0.0000 
     20 C20        39.5340   13.3320   32.8750 C.ar      1 3PS1        0.0000 
     21 C21        40.8420   13.8070   32.5480 C.ar      1 3PS1        0.0000 
     22 O22        37.6700   12.2280   32.3080 O.3       1 3PS1        0.0000 
     23 C23        36.6170   13.1830   32.2240 C.3       1 3PS1        0.0000 
     24 H          49.1875   13.0542   28.5129 H         1 3PS1        0.0000 
     25 H          49.1080   14.8092   28.8860 H         1 3PS1        0.0000 
     26 H          47.4729   17.1697   32.0712 H         1 3PS1        0.0000 
     27 H          45.1494   16.8657   32.6395 H         1 3PS1        0.0000 
     28 H          48.5246   15.7056   30.4709 H         1 3PS1        0.0000 
     29 H          43.1888   13.6800   30.1827 H         1 3PS1        0.0000 
     30 H          41.0868   12.6857   29.4846 H         1 3PS1        0.0000 
     31 H          39.1606   13.5039   33.7890 H         1 3PS1        0.0000 
     32 H          41.3428   14.3330   33.3323 H         1 3PS1        0.0000 
     33 H          44.5570   11.7792   27.3341 H         1 3PS1        0.0000 
     34 H          44.9573   10.7620   28.5136 H         1 3PS1        0.0000 
     35 H          43.6506   11.6880   28.6594 H         1 3PS1        0.0000 
     36 H          36.7994   13.9876   32.7891 H         1 3PS1        0.0000 
     37 H          36.4832   13.5069   31.2874 H         1 3PS1        0.0000 
     38 H          35.7446   12.8017   32.5298 H         1 3PS1        0.0000 
@<TRIPOS>BOND
     1    9    1 1    
     2   33    1 1    
     3   34    1 1    
     4   35    1 1    
     5    3    2 ar   
     6    9    2 ar   
     7    4    3 1    
     8    5    3 ar   
     9   24    4 1    
    10   25    4 1    
    11    6    5 ar   
    12   12    5 ar   
    13    7    6 ar   
    14    8    6 ar   
    15   11    7 ar   
    16   13    7 1    
    17    9    8 ar   
    18   11   10 ar   
    19   12   10 ar   
    20   26   10 1    
    21   27   11 1    
    22   28   12 1    
    23   14   13 2    
    24   15   13 am   
    25   16   15 1    
    26   29   15 1    
    27   17   16 ar   
    28   21   16 ar   
    29   18   17 ar   
    30   30   17 1    
    31   19   18 ar   
    32   20   19 ar   
    33   22   19 1    
    34   21   20 ar   
    35   31   20 1    
    36   32   21 1    
    37   23   22 1    
    38   36   23 1    
    39   37   23 1    
    40   38   23 1    
@<TRIPOS>SUBSTRUCTURE
     1 3PS1        1 GROUP   
@<TRIPOS>SET

