#    Name: 4g7g_VFV_4_INTS_M
#    Modification time : Mon Mar 24 21:31:31 2014

@<TRIPOS>MOLECULE
4g7g_VFV_4_INTS_M
   63     0     6     0     0
SMALL
NO_CHARGES


@<TRIPOS>ATOM
      1 CA        -31.2475  -59.4845   53.3295 C.3       2 GLC5        0.0000 
      2 CA        -32.2810  -58.0600   54.6060 C.3       6 GLL5        0.0000 
      3 CA        -30.2140  -60.9090   52.0530 C.3       4 GLP5        0.0000 
      4 CA        -32.9450  -57.7480   58.7295 C.3       2 GLC5        0.0000 
      5 CA        -32.5510  -56.9430   56.6690 C.3       6 GLL5        0.0000 
      6 CA        -33.3390  -58.5530   60.7900 C.3       4 GLP5        0.0000 
      7 CA        -35.0555  -51.3680   53.4940 C.3       2 GLC5        0.0000 
      8 CA        -36.4300  -52.6050   54.5920 C.3       6 GLL5        0.0000 
      9 CA        -33.6810  -50.1310   52.3960 C.3       4 GLP5        0.0000 
     10 CA        -35.8495  -51.1935   55.7635 C.3       2 GLC5        0.0000 
     11 CA        -35.2690  -49.7820   56.9350 C.3       4 GLP5        0.0000 
     12 CA        -37.3545  -52.7150   56.0980 C.3       2 GLC5        0.0000 
     13 CA        -38.2790  -52.8250   57.6040 C.3       4 GLP5        0.0000 
     14 CA        -36.5840  -53.7635   51.2640 C.3       2 GLC5        0.0000 
     15 CA        -38.1030  -53.5240   52.7420 C.3       6 GLL5        0.0000 
     16 CA        -35.0650  -54.0030   49.7860 C.3       4 GLP5        0.0000 
     17 CA        -41.1900  -54.6605   52.4645 C.3       2 GLC5        0.0000 
     18 CA        -39.3930  -54.3370   52.6980 C.3       6 GLL5        0.0000 
     19 CA        -42.9870  -54.9840   52.2310 C.3       4 GLP5        0.0000 
     20 CA        -39.3210  -53.6240   56.2745 C.3       2 GLC5        0.0000 
     21 CA        -40.3630  -54.4230   54.9450 C.3       6 GLL5        0.0000 
     22 CA        -39.1975  -54.7810   56.8270 C.3       2 GLC5        0.0000 
     23 CA        -40.6270  -55.3210   55.8910 C.3       6 GLL5        0.0000 
     24 CA        -37.7680  -54.2410   57.7630 C.3       4 GLP5        0.0000 
     25 O         -37.5945  -54.1010   50.6770 O.2       1 ALC1        0.0000 
     26 O         -38.0610  -53.0360   51.4030 O.2       5 ALL1        0.0000 
     27 O         -37.1280  -55.1660   49.9510 O.2       3 ALP1        0.0000 
     28 CA        -41.4405  -51.8595   50.2390 C.3       2 GLC5        0.0000 
     29 CA        -39.9430  -51.0470   49.2070 C.3       6 GLL5        0.0000 
     30 CA        -42.9380  -52.6720   51.2710 C.3       4 GLP5        0.0000 
     31 CA        -35.9330  -51.2710   49.7370 C.3       2 GLC5        0.0000 
     32 CA        -37.8090  -51.9460   48.7620 C.3       6 GLL5        0.0000 
     33 CA        -34.0570  -50.5960   50.7120 C.3       4 GLP5        0.0000 
     34 CA        -37.8175  -49.9710   49.4295 C.3       2 GLC5        0.0000 
     35 CA        -37.8260  -47.9960   50.0970 C.3       4 GLP5        0.0000 
     36 CA        -43.4765  -52.1185   43.4380 C.3       2 GLC5        0.0000 
     37 CA        -42.7070  -50.1700   43.6260 C.3       6 GLL5        0.0000 
     38 CA        -44.2460  -54.0670   43.2500 C.3       4 GLP5        0.0000 
     39 CA        -30.9268  -57.2525   54.1060 C.3       2 GLC5        0.0000 
     40 CA        -33.3020  -57.3360   54.0520 C.3       6 GLL5        0.0000 
     41 CA        -29.0620  -56.8070   53.8830 C.3       4 GLP5        0.0000 
     42 CA        -32.3234  -59.7998   56.1912 C.3       2 GLC5        0.0000 
     43 CA        -31.2530  -58.3170   56.2570 C.3       6 GLL5        0.0000 
     44 CA        -32.9710  -61.4630   56.6260 C.3       4 GLP5        0.0000 
     45 CA        -30.5649  -57.1604   55.1291 C.3       2 GLC5        0.0000 
     46 CA        -30.8379  -58.1304   57.8906 C.3       2 GLC5        0.0000 
     47 CA        -29.6080  -58.7470   59.4060 C.3       4 GLP5        0.0000 
     48 CA        -32.0959  -55.2724   56.8129 C.3       2 GLC5        0.0000 
     49 CA        -31.9160  -57.8520   55.9060 C.3       6 GLL5        0.0000 
     50 CA        -31.2900  -53.7320   57.4260 C.3       4 GLP5        0.0000 
     51 CA        -36.7493  -54.1593   56.1020 C.3       2 GLC5        0.0000 
     52 CA        -35.2080  -54.4170   54.7160 C.3       6 GLL5        0.0000 
     53 CA        -42.2300  -53.8130   55.6840 C.3       2 GLC5        0.0000 
     54 CA        -43.9650  -52.7540   55.9500 C.3       4 GLP5        0.0000 
     55 CA        -41.7410  -54.9280   53.8245 C.3       2 GLC5        0.0000 
     56 CA        -38.7791  -49.5258   49.3723 C.3       2 GLC5        0.0000 
     57 CA        -38.7740  -51.6310   49.6770 C.3       6 GLL5        0.0000 
     58 CA        -40.5132  -51.8678   42.4083 C.3       2 GLC5        0.0000 
     59 CA        -41.4840  -50.3690   43.0360 C.3       6 GLL5        0.0000 
     60 CA        -39.5530  -53.4030   42.4650 C.3       4 GLP5        0.0000 
     61 CA        -44.5785  -51.6983   42.3008 C.3       2 GLC5        0.0000 
     62 CA        -43.8750  -49.9670   42.9230 C.3       6 GLL5        0.0000 
     63 CA        -45.3040  -53.4600   42.3620 C.3       4 GLP5        0.0000 
@<TRIPOS>BOND
@<TRIPOS>SUBSTRUCTURE
     1 ALC1       25 GROUP        1 X    ALC  0     ROOT ALC X 1
     2 GLC5        1 GROUP        1 X    GLC  0     **** GLC X 6
     3 ALP1       27 GROUP        1 Y    ALP  0     ROOT ALP Y 8
     4 GLP5        3 GROUP        1 Y    GLP  0     **** GLP Y 13
     5 ALL1       26 GROUP        1 Z    ALL  0     ROOT ALL Z 15
     6 GLL5        2 GROUP        1 Z    GLL  0     **** GLL Z 20
@<TRIPOS>SET

