#    Name: 4g7g_VFV_4_ligand
#    Modification time : Mon Mar 24 21:31:31 2014

@<TRIPOS>MOLECULE
4g7g_VFV_4_ligand
   64    69     1     0     0
SMALL
NO_CHARGES


@<TRIPOS>ATOM
      1 CAO       -33.3020  -57.3360   54.0520 C.ar      1 VFV502      0.0000 
      2 CAK       -32.2810  -58.0600   54.6060 C.ar      1 VFV502      0.0000 
      3 CBD       -31.9160  -57.8520   55.9060 C.ar      1 VFV502      0.0000 
      4 FAB       -31.2530  -58.3170   56.2570 F         1 VFV502      0.0000 
      5 CAJ       -32.5510  -56.9430   56.6690 C.ar      1 VFV502      0.0000 
      6 CAN       -33.5700  -56.2280   56.1120 C.ar      1 VFV502      0.0000 
      7 CBG       -33.9340  -56.4100   54.8150 C.ar      1 VFV502      0.0000 
      8 CBJ       -34.9580  -55.6820   54.2920 C.ar      1 VFV502      0.0000 
      9 CAV       -35.2080  -54.4170   54.7160 C.ar      1 VFV502      0.0000 
     10 CBE       -36.2530  -53.7380   54.1660 C.ar      1 VFV502      0.0000 
     11 FAC       -36.4300  -52.6050   54.5920 F         1 VFV502      0.0000 
     12 CAR       -35.7390  -56.2720   53.3450 C.ar      1 VFV502      0.0000 
     13 CAS       -36.8030  -55.6170   52.7920 C.ar      1 VFV502      0.0000 
     14 CBK       -37.0060  -54.3260   53.1320 C.ar      1 VFV502      0.0000 
     15 CBN       -38.1030  -53.5240   52.7420 C.3       1 VFV502      0.0000 
     16 CAW       -39.3930  -54.3370   52.6980 C.3       1 VFV502      0.0000 
     17 NBO       -39.8230  -55.0340   53.9470 N.pl3     1 VFV502      0.0000 
     18 CAT       -40.3630  -54.4230   54.9450 C.2       1 VFV502      0.0000 
     19 CAG       -40.6270  -55.3210   55.8910 C.2       1 VFV502      0.0000 
     20 NAX       -40.2340  -56.5100   55.4460 N.2       1 VFV502      0.0000 
     21 CAU       -39.7310  -56.3300   54.2290 C.2       1 VFV502      0.0000 
     22 NBA       -38.0610  -53.0360   51.4030 N.am      1 VFV502      0.0000 
     23 CBC       -38.6710  -51.9470   51.0180 C.2       1 VFV502      0.0000 
     24 OAA       -39.2390  -51.2190   51.8220 O.2       1 VFV502      0.0000 
     25 CBF       -38.7740  -51.6310   49.6770 C.ar      1 VFV502      0.0000 
     26 CAM       -39.9430  -51.0470   49.2070 C.ar      1 VFV502      0.0000 
     27 CAQ       -40.1060  -50.7720   47.8530 C.ar      1 VFV502      0.0000 
     28 CAL       -37.8090  -51.9460   48.7620 C.ar      1 VFV502      0.0000 
     29 CAP       -37.9820  -51.6740   47.4180 C.ar      1 VFV502      0.0000 
     30 CBI       -39.1280  -51.0930   46.9310 C.ar      1 VFV502      0.0000 
     31 CBM       -39.3120  -50.8640   45.6230 C.2       1 VFV502      0.0000 
     32 OBB       -40.5450  -50.8210   45.1100 O.3       1 VFV502      0.0000 
     33 NAZ       -38.4170  -50.6350   44.6460 N.2       1 VFV502      0.0000 
     34 NAY       -39.0940  -50.4330   43.5270 N.2       1 VFV502      0.0000 
     35 CBL       -40.4010  -50.5490   43.8160 C.2       1 VFV502      0.0000 
     36 CBH       -41.4840  -50.3690   43.0360 C.ar      1 VFV502      0.0000 
     37 CAI       -42.7070  -50.1700   43.6260 C.ar      1 VFV502      0.0000 
     38 CAF       -43.8750  -49.9670   42.9230 C.ar      1 VFV502      0.0000 
     39 CAD       -43.8310  -49.9060   41.5560 C.ar      1 VFV502      0.0000 
     40 CAE       -42.6140  -50.0720   40.9390 C.ar      1 VFV502      0.0000 
     41 CAH       -41.4630  -50.2960   41.6670 C.ar      1 VFV502      0.0000 
     42 H         -33.5805  -57.4957   53.0742 H         1 VFV502      0.0000 
     43 H         -31.7829  -58.7694   54.0354 H         1 VFV502      0.0000 
     44 H         -32.2805  -56.7852   57.6493 H         1 VFV502      0.0000 
     45 H         -34.0808  -55.5255   56.6965 H         1 VFV502      0.0000 
     46 H         -34.6210  -53.9776   55.4386 H         1 VFV502      0.0000 
     47 H         -35.5213  -57.2469   53.0332 H         1 VFV502      0.0000 
     48 H         -37.4278  -56.1006   52.1356 H         1 VFV502      0.0000 
     49 H         -38.2970  -52.7068   53.4211 H         1 VFV502      0.0000 
     50 H         -39.2979  -55.0910   51.8695 H         1 VFV502      0.0000 
     51 H         -40.2186  -53.6563   52.3532 H         1 VFV502      0.0000 
     52 H         -40.5562  -53.4645   55.0188 H         1 VFV502      0.0000 
     53 H         -41.0341  -55.1389   56.7523 H         1 VFV502      0.0000 
     54 H         -39.3649  -57.0162   53.6535 H         1 VFV502      0.0000 
     55 H         -37.4940  -53.6207   50.7240 H         1 VFV502      0.0000 
     56 H         -40.7012  -50.8136   49.8697 H         1 VFV502      0.0000 
     57 H         -40.9828  -50.3156   47.5323 H         1 VFV502      0.0000 
     58 H         -36.9252  -52.3992   49.0762 H         1 VFV502      0.0000 
     59 H         -37.2122  -51.9201   46.7515 H         1 VFV502      0.0000 
     60 H         -42.7590  -50.1721   44.6851 H         1 VFV502      0.0000 
     61 H         -44.7676  -49.8630   43.4237 H         1 VFV502      0.0000 
     62 H         -44.6772  -49.7419   41.0077 H         1 VFV502      0.0000 
     63 H         -42.5565  -50.0282   39.8990 H         1 VFV502      0.0000 
     64 H         -40.5580  -50.4119   41.1602 H         1 VFV502      0.0000 
@<TRIPOS>BOND
     1    2    1 ar   
     2    7    1 ar   
     3   42    1 1    
     4    3    2 ar   
     5   43    2 1    
     6    4    3 1    
     7    5    3 ar   
     8    6    5 ar   
     9   44    5 1    
    10    7    6 ar   
    11   45    6 1    
    12    8    7 1    
    13    9    8 ar   
    14   12    8 ar   
    15   10    9 ar   
    16   46    9 1    
    17   11   10 1    
    18   14   10 ar   
    19   13   12 ar   
    20   47   12 1    
    21   14   13 ar   
    22   48   13 1    
    23   15   14 1    
    24   16   15 1    
    25   22   15 1    
    26   49   15 1    
    27   17   16 1    
    28   50   16 1    
    29   51   16 1    
    30   18   17 1    
    31   21   17 1    
    32   19   18 2    
    33   52   18 1    
    34   20   19 1    
    35   53   19 1    
    36   21   20 2    
    37   54   21 1    
    38   23   22 am   
    39   55   22 1    
    40   24   23 2    
    41   25   23 1    
    42   26   25 ar   
    43   28   25 ar   
    44   27   26 ar   
    45   56   26 1    
    46   30   27 ar   
    47   57   27 1    
    48   29   28 ar   
    49   58   28 1    
    50   30   29 ar   
    51   59   29 1    
    52   31   30 1    
    53   32   31 1    
    54   33   31 2    
    55   35   32 1    
    56   34   33 1    
    57   35   34 2    
    58   36   35 1    
    59   37   36 ar   
    60   41   36 ar   
    61   38   37 ar   
    62   60   37 1    
    63   39   38 ar   
    64   61   38 1    
    65   40   39 ar   
    66   62   39 1    
    67   41   40 ar   
    68   63   40 1    
    69   64   41 1    
@<TRIPOS>SUBSTRUCTURE
     1 VFV502      1 GROUP   
@<TRIPOS>SET

