#    Name: 4fsq_HK3_1_INTS_M
#    Modification time : Mon Mar 24 20:41:39 2014

@<TRIPOS>MOLECULE
4fsq_HK3_1_INTS_M
   85     0     9     0     0
SMALL
NO_CHARGES


@<TRIPOS>ATOM
      1 N           5.9230   -3.5315   14.4735 N.am      2 SEC2        0.0000 
      2 N           6.7680   -4.5490   14.6530 N.am      8 SEL2        0.0000 
      3 N           5.0780   -2.5140   14.2940 N.am      5 SEP2        0.0000 
      4 N           7.4620   -4.2785   16.1165 N.am      2 SEC2        0.0000 
      5 N           8.1560   -4.0080   17.5800 N.am      5 SEP2        0.0000 
      6 O           6.5690   -5.8440   14.7475 O.2       1 ALC1        0.0000 
      7 O           6.7680   -4.5490   14.6530 O.2       7 ALL1        0.0000 
      8 O           6.3700   -7.1390   14.8420 O.2       4 ALP1        0.0000 
      9 CA          6.1100   -5.3570   14.7215 C.3       3 GLC5        0.0000 
     10 CA          8.0330   -4.3900   14.1750 C.3       9 GLL5        0.0000 
     11 CA          4.1870   -6.3240   15.2680 C.3       6 GLP5        0.0000 
     12 CA          7.5325   -4.0715   16.3215 C.3       3 GLC5        0.0000 
     13 CA          7.0320   -3.7530   18.4680 C.3       6 GLP5        0.0000 
     14 CA         10.7060   -1.1415   12.4615 C.3       3 GLC5        0.0000 
     15 CA          9.7740   -2.9580   13.3630 C.3       9 GLL5        0.0000 
     16 CA         11.6380    0.6750   11.5600 C.3       6 GLP5        0.0000 
     17 CA         12.8315   -6.7710   11.0645 C.3       3 GLC5        0.0000 
     18 CA         12.7170   -4.9340   12.0510 C.3       9 GLL5        0.0000 
     19 CA         12.9460   -8.6080   10.0780 C.3       6 GLP5        0.0000 
     20 CA         17.6785   -3.7900   12.3180 C.3       3 GLC5        0.0000 
     21 CA         17.3260   -5.1000   10.6210 C.3       9 GLL5        0.0000 
     22 CA         18.0310   -2.4800   14.0150 C.3       6 GLP5        0.0000 
     23 N          17.0485   -0.7570    8.2500 N.am      2 SEC2        0.0000 
     24 N          16.8450   -2.1310    8.6870 N.am      8 SEL2        0.0000 
     25 N          17.2520    0.6170    7.8130 N.am      5 SEP2        0.0000 
     26 CA         21.2005   -2.0495    5.9230 C.3       3 GLC5        0.0000 
     27 CA         22.5020   -2.6770    7.5910 C.3       9 GLL5        0.0000 
     28 CA         19.8990   -1.4220    4.2550 C.3       6 GLP5        0.0000 
     29 CA         22.0190   -0.7385    7.1255 C.3       3 GLC5        0.0000 
     30 CA         21.5360    1.2000    6.6600 C.3       6 GLP5        0.0000 
     31 CA         22.4970   -2.1095    9.3750 C.3       3 GLC5        0.0000 
     32 CA         22.4920   -1.5420   11.1590 C.3       6 GLP5        0.0000 
     33 CA         20.4710   -5.1945   12.4660 C.3       3 GLC5        0.0000 
     34 CA         19.9090   -5.5300   10.5040 C.3       9 GLL5        0.0000 
     35 CA         21.0330   -4.8590   14.4280 C.3       6 GLP5        0.0000 
     36 CA         21.6390   -5.9905   12.5835 C.3       3 GLC5        0.0000 
     37 CA         22.2450   -7.1220   10.7390 C.3       9 GLL5        0.0000 
     38 CA          8.4748   -4.3682   11.9405 C.3       3 GLC5        0.0000 
     39 CA          8.8340   -5.4950   13.9230 C.3       9 GLL5        0.0000 
     40 CA          8.5160   -3.7940    9.8320 C.3       6 GLP5        0.0000 
     41 CA          9.3622   -4.1445   15.4995 C.3       3 GLC5        0.0000 
     42 CA         10.4500   -4.5350   16.9540 C.3       6 GLP5        0.0000 
     43 CA          8.4540   -2.2725   12.1515 C.3       3 GLC5        0.0000 
     44 CA          8.5160   -3.1180   13.9150 C.3       9 GLL5        0.0000 
     45 CA          7.7630   -1.5070   10.6640 C.3       6 GLP5        0.0000 
     46 CA         11.7720   -2.6080   14.2533 C.3       3 GLC5        0.0000 
     47 CA         13.3600   -1.7090   15.2880 C.3       6 GLP5        0.0000 
     48 CA         10.3170   -4.0210   15.0862 C.3       3 GLC5        0.0000 
     49 CA         10.5940   -4.0560   13.0740 C.3       9 GLL5        0.0000 
     50 CA          8.9908   -6.8990   12.6975 C.3       3 GLC5        0.0000 
     51 CA         10.1050   -5.3230   13.3990 C.3       9 GLL5        0.0000 
     52 CA          8.5120   -8.3890   11.7340 C.3       6 GLP5        0.0000 
     53 CA          9.9597   -4.9720   15.3075 C.3       3 GLC5        0.0000 
     54 CA          9.7944   -4.0446   11.2776 C.3       3 GLC5        0.0000 
     55 CA         12.6285   -2.5147   13.5630 C.3       3 GLC5        0.0000 
     56 CA         11.7960   -3.9010   12.2100 C.3       9 GLL5        0.0000 
     57 CA         13.9503   -5.6582    9.6225 C.3       3 GLC5        0.0000 
     58 CA         13.8500   -4.7710   11.2720 C.3       9 GLL5        0.0000 
     59 CA         13.9390   -7.1410    8.3160 C.3       6 GLP5        0.0000 
     60 CA         14.9733   -2.8578   11.8675 C.3       3 GLC5        0.0000 
     61 CA         15.9850   -1.5400   12.8060 C.3       6 GLP5        0.0000 
     62 CA         12.0957   -0.9935   11.3117 C.3       3 GLC5        0.0000 
     63 CA         13.1090   -2.5840   10.6610 C.3       9 GLL5        0.0000 
     64 CA         11.0042   -2.1850    9.9217 C.3       3 GLC5        0.0000 
     65 CA         11.9980   -2.7400   11.4660 C.3       9 GLL5        0.0000 
     66 CA          9.4550   -1.7080    8.7800 C.3       6 GLP5        0.0000 
     67 CA         14.2692   -2.1010   11.9347 C.3       3 GLC5        0.0000 
     68 CA         14.9588   -5.3907    9.1525 C.3       3 GLC5        0.0000 
     69 CA         15.3770   -3.3060    9.9520 C.3       9 GLL5        0.0000 
     70 CA         13.8360   -3.2770    8.5349 C.3       3 GLC5        0.0000 
     71 CA         13.1880   -3.3600    6.7820 C.3       6 GLP5        0.0000 
     72 CA         16.9187   -4.5020    7.8998 C.3       3 GLC5        0.0000 
     73 CA         16.5800   -3.9750   10.0260 C.3       9 GLL5        0.0000 
     74 CA         16.8090   -5.4260    6.1780 C.3       6 GLP5        0.0000 
     75 CA         19.3187   -4.7607    7.5202 C.3       3 GLC5        0.0000 
     76 CA         18.7890   -3.7430    9.3450 C.3       9 GLL5        0.0000 
     77 CA         19.2520   -5.9690    6.0020 C.3       6 GLP5        0.0000 
     78 CA         16.3564   -2.4754   11.2045 C.3       3 GLC5        0.0000 
     79 CA         17.4770   -3.1810    9.2170 C.3       9 GLL5        0.0000 
     80 CA         20.1842   -5.3070    7.7135 C.3       3 GLC5        0.0000 
     81 CA         21.1360   -4.0950    8.9780 C.3       9 GLL5        0.0000 
     82 CA         21.6600   -3.0019   10.2613 C.3       3 GLC5        0.0000 
     83 CA         19.9820   -3.3620    8.7320 C.3       9 GLL5        0.0000 
     84 CA         18.3409   -6.3097    8.9507 C.3       3 GLC5        0.0000 
     85 CA         17.7090   -7.3730    7.4400 C.3       6 GLP5        0.0000 
@<TRIPOS>BOND
@<TRIPOS>SUBSTRUCTURE
     1 ALC1        6 GROUP        1 X    ALC  0     ROOT ALC X 1
     2 SEC2        1 GROUP        1 X    SEC  0     **** SEC X 2
     3 GLC5        9 GROUP        1 X    GLC  0     **** GLC X 6
     4 ALP1        8 GROUP        1 Y    ALP  0     ROOT ALP Y 8
     5 SEP2        3 GROUP        1 Y    SEP  0     **** SEP Y 9
     6 GLP5       11 GROUP        1 Y    GLP  0     **** GLP Y 13
     7 ALL1        7 GROUP        1 Z    ALL  0     ROOT ALL Z 15
     8 SEL2        2 GROUP        1 Z    SEL  0     **** SEL Z 16
     9 GLL5       10 GROUP        1 Z    GLL  0     **** GLL Z 20
@<TRIPOS>SET

