#    Name: 4fsq_HK3_1_ligand
#    Modification time : Mon Mar 24 20:41:39 2014

@<TRIPOS>MOLECULE
4fsq_HK3_1_ligand
   47    51     1     0     0
SMALL
NO_CHARGES


@<TRIPOS>ATOM
      1 O1          6.7680   -4.5490   14.6530 O.3       1 HK3300      0.0000 
      2 C1          8.0330   -4.3900   14.1750 C.ar      1 HK3300      0.0000 
      3 C6          8.5160   -3.1180   13.9150 C.ar      1 HK3300      0.0000 
      4 C5          9.7740   -2.9580   13.3630 C.ar      1 HK3300      0.0000 
      5 C4         10.5940   -4.0560   13.0740 C.ar      1 HK3300      0.0000 
      6 C3         10.1050   -5.3230   13.3990 C.ar      1 HK3300      0.0000 
      7 C2          8.8340   -5.4950   13.9230 C.ar      1 HK3300      0.0000 
      8 C7         11.7960   -3.9010   12.2100 C.ar      1 HK3300      0.0000 
      9 C12        12.7170   -4.9340   12.0510 C.ar      1 HK3300      0.0000 
     10 C11        13.8500   -4.7710   11.2720 C.ar      1 HK3300      0.0000 
     11 C10        14.0730   -3.5800   10.5860 C.ar      1 HK3300      0.0000 
     12 C9         13.1090   -2.5840   10.6610 C.ar      1 HK3300      0.0000 
     13 C8         11.9980   -2.7400   11.4660 C.ar      1 HK3300      0.0000 
     14 C13        15.3770   -3.3060    9.9520 C.2       1 HK3300      0.0000 
     15 C15        16.5800   -3.9750   10.0260 C.2       1 HK3300      0.0000 
     16 C16        17.3260   -5.1000   10.6210 C.2       1 HK3300      0.0000 
     17 C17        18.7470   -4.8260   10.2170 C.ar      1 HK3300      0.0000 
     18 C24        18.7890   -3.7430    9.3450 C.ar      1 HK3300      0.0000 
     19 C14        17.4770   -3.1810    9.2170 C.2       1 HK3300      0.0000 
     20 N2         16.8450   -2.1310    8.6870 N.2       1 HK3300      0.0000 
     21 N1         15.5650   -2.2320    9.1550 N.2       1 HK3300      0.0000 
     22 C23        19.9820   -3.3620    8.7320 C.ar      1 HK3300      0.0000 
     23 C21        21.1360   -4.0950    8.9780 C.ar      1 HK3300      0.0000 
     24 O3         22.3500   -3.8600    8.3850 O.3       1 HK3300      0.0000 
     25 C22        22.5020   -2.6770    7.5910 C.3       1 HK3300      0.0000 
     26 C19        21.0970   -5.1950    9.8720 C.ar      1 HK3300      0.0000 
     27 C18        19.9090   -5.5300   10.5040 C.ar      1 HK3300      0.0000 
     28 O2         22.2640   -5.9070    9.9820 O.3       1 HK3300      0.0000 
     29 C20        22.2450   -7.1220   10.7390 C.3       1 HK3300      0.0000 
     30 H           7.9387   -2.2937   14.1327 H         1 HK3300      0.0000 
     31 H          10.1263   -2.0027   13.1548 H         1 HK3300      0.0000 
     32 H          10.7110   -6.1516   13.2427 H         1 HK3300      0.0000 
     33 H           8.4831   -6.4412   14.1256 H         1 HK3300      0.0000 
     34 H          12.5476   -5.8402   12.5263 H         1 HK3300      0.0000 
     35 H          14.5382   -5.5379   11.1968 H         1 HK3300      0.0000 
     36 H          13.2270   -1.7180   10.1074 H         1 HK3300      0.0000 
     37 H          11.2934   -1.9776   11.5221 H         1 HK3300      0.0000 
     38 H          17.0283   -5.7728   11.0971 H         1 HK3300      0.0000 
     39 H          20.0047   -2.5516    8.1086 H         1 HK3300      0.0000 
     40 H          19.8877   -6.3006   11.1862 H         1 HK3300      0.0000 
     41 H          23.4236   -2.6010    7.2104 H         1 HK3300      0.0000 
     42 H          21.8646   -2.6624    6.8206 H         1 HK3300      0.0000 
     43 H          22.3360   -1.8477    8.1246 H         1 HK3300      0.0000 
     44 H          23.1417   -7.5644   10.7538 H         1 HK3300      0.0000 
     45 H          21.9810   -6.9628   11.6903 H         1 HK3300      0.0000 
     46 H          21.5975   -7.7843   10.3621 H         1 HK3300      0.0000 
     47 H           6.7899   -5.4099   15.1613 H         1 HK3300      0.0000 
@<TRIPOS>BOND
     1    2    1 1    
     2   47    1 1    
     3    3    2 ar   
     4    7    2 ar   
     5    4    3 ar   
     6   30    3 1    
     7    5    4 ar   
     8   31    4 1    
     9    6    5 ar   
    10    8    5 1    
    11    7    6 ar   
    12   32    6 1    
    13   33    7 1    
    14    9    8 ar   
    15   13    8 ar   
    16   10    9 ar   
    17   34    9 1    
    18   11   10 ar   
    19   35   10 1    
    20   12   11 ar   
    21   14   11 1    
    22   13   12 ar   
    23   36   12 1    
    24   37   13 1    
    25   15   14 2    
    26   21   14 1    
    27   16   15 1    
    28   19   15 1    
    29   17   16 2    
    30   38   16 1    
    31   18   17 ar   
    32   27   17 ar   
    33   19   18 2    
    34   22   18 ar   
    35   20   19 1    
    36   21   20 2    
    37   23   22 ar   
    38   39   22 1    
    39   24   23 1    
    40   26   23 ar   
    41   25   24 1    
    42   41   25 1    
    43   42   25 1    
    44   43   25 1    
    45   27   26 ar   
    46   28   26 1    
    47   40   27 1    
    48   29   28 1    
    49   44   29 1    
    50   45   29 1    
    51   46   29 1    
@<TRIPOS>SUBSTRUCTURE
     1 HK3300      1 GROUP   
@<TRIPOS>SET

