#    Name: 4llj_1XN_1_INTS_M
#    Modification time : Tue Mar 25 11:15:43 2014

@<TRIPOS>MOLECULE
4llj_1XN_1_INTS_M
   19     0     6     0     0
SMALL
NO_CHARGES


@<TRIPOS>ATOM
      1 CA          5.6425   14.3090   41.1640 C.3       2 GLC5        0.0000 
      2 CA          3.6800   13.7560   42.0320 C.3       6 GLL5        0.0000 
      3 CA          7.6050   14.8620   40.2960 C.3       4 GLP5        0.0000 
      4 CA          2.2505   12.6835   41.7120 C.3       2 GLC5        0.0000 
      5 CA          0.8210   11.6110   41.3920 C.3       4 GLP5        0.0000 
      6 O           2.9035   16.0260   42.5450 O.2       1 ALC1        0.0000 
      7 O           3.2710   14.6080   42.9980 O.2       5 ALL1        0.0000 
      8 O           2.5360   17.4440   42.0920 O.2       3 ALP1        0.0000 
      9 CA          2.1925   12.8995   44.2030 C.3       2 GLC5        0.0000 
     10 CA          3.6110   14.1420   44.2220 C.3       6 GLL5        0.0000 
     11 CA          0.7740   11.6570   44.1840 C.3       4 GLP5        0.0000 
     12 CA          4.5660    8.8785   42.6950 C.3       2 GLC5        0.0000 
     13 CA          5.4620   10.6520   43.0450 C.3       6 GLL5        0.0000 
     14 CA          3.6700    7.1050   42.3450 C.3       4 GLP5        0.0000 
     15 CA          4.0857   10.1000   45.5640 C.3       2 GLC5        0.0000 
     16 CA          4.8240   12.0310   44.9560 C.3       6 GLL5        0.0000 
     17 CA          3.0470    8.7410   46.4390 C.3       4 GLP5        0.0000 
     18 CA          5.5476   14.0610   45.4675 C.3       2 GLC5        0.0000 
     19 CA          6.7130   15.3390   46.3920 C.3       4 GLP5        0.0000 
@<TRIPOS>BOND
@<TRIPOS>SUBSTRUCTURE
     1 ALC1        6 GROUP        1 X    ALC  0     ROOT ALC X 1
     2 GLC5        1 GROUP        1 X    GLC  0     **** GLC X 6
     3 ALP1        8 GROUP        1 Y    ALP  0     ROOT ALP Y 8
     4 GLP5        3 GROUP        1 Y    GLP  0     **** GLP Y 13
     5 ALL1        7 GROUP        1 Z    ALL  0     ROOT ALL Z 15
     6 GLL5        2 GROUP        1 Z    GLL  0     **** GLL Z 20
@<TRIPOS>SET

