#    Name: 4llj_1XN_1_ligand
#    Modification time : Tue Mar 25 11:15:43 2014

@<TRIPOS>MOLECULE
4llj_1XN_1_ligand
   20    21     1     0     0
SMALL
NO_CHARGES


@<TRIPOS>ATOM
      1 N1          3.4930   13.9410   40.7790 N.pl3     1 1XN900      0.0000 
      2 C2          3.6800   13.7560   42.0320 C.2       1 1XN900      0.0000 
      3 N3          3.2710   14.6080   42.9980 N.pl3     1 1XN900      0.0000 
      4 C4          3.6110   14.1420   44.2220 C.2       1 1XN900      0.0000 
      5 N5          3.3500   14.7300   45.3390 N.pl3     1 1XN900      0.0000 
      6 C6          4.2700   12.9280   44.0380 C.ar      1 1XN900      0.0000 
      7 C7          4.8240   12.0310   44.9560 C.ar      1 1XN900      0.0000 
      8 C8          5.4250   10.8870   44.4220 C.ar      1 1XN900      0.0000 
      9 C9          5.4620   10.6520   43.0450 C.ar      1 1XN900      0.0000 
     10 C10         4.9110   11.5430   42.1270 C.ar      1 1XN900      0.0000 
     11 C11         4.3130   12.6850   42.6540 C.ar      1 1XN900      0.0000 
     12 H           2.9772   14.7599   40.5273 H         1 1XN900      0.0000 
     13 H           3.8803   13.2493   40.1695 H         1 1XN900      0.0000 
     14 H           2.7940   15.4476   42.8355 H         1 1XN900      0.0000 
     15 H           3.6825   14.2740   46.1645 H         1 1XN900      0.0000 
     16 H           2.8393   15.5875   45.2761 H         1 1XN900      0.0000 
     17 H           4.7923   12.1984   45.9420 H         1 1XN900      0.0000 
     18 H           5.8545   10.1949   45.0651 H         1 1XN900      0.0000 
     19 H           5.9165    9.7823   42.6958 H         1 1XN900      0.0000 
     20 H           4.9432   11.3713   41.1397 H         1 1XN900      0.0000 
@<TRIPOS>BOND
     1    2    1 1    
     2   12    1 1    
     3   13    1 1    
     4    3    2 1    
     5   11    2 2    
     6    4    3 1    
     7   14    3 1    
     8    5    4 1    
     9    6    4 2    
    10   15    5 1    
    11   16    5 1    
    12    7    6 ar   
    13   11    6 ar   
    14    8    7 ar   
    15   17    7 1    
    16    9    8 ar   
    17   18    8 1    
    18   10    9 ar   
    19   19    9 1    
    20   11   10 ar   
    21   20   10 1    
@<TRIPOS>SUBSTRUCTURE
     1 1XN900      1 GROUP   
@<TRIPOS>SET

