#    Name: 3sab_F78_1_INTS_M
#    Modification time : Mon Apr  7 22:11:01 2014

@<TRIPOS>MOLECULE
3sab_F78_1_INTS_M
  103     0     9     0     0
SMALL
NO_CHARGES


@<TRIPOS>ATOM
      1 CA         26.0825   28.1030   10.4545 C.3       3 GLC5        0.0000 
      2 CA         25.0120   27.2170   12.1740 C.3       9 GLL5        0.0000 
      3 CA         27.1530   28.9890    8.7350 C.3       6 GLP5        0.0000 
      4 CA         22.9640   32.7965   18.9595 C.3       3 GLC5        0.0000 
      5 CA         22.2360   33.3110   17.2930 C.3       9 GLL5        0.0000 
      6 CA         23.6920   32.2820   20.6260 C.3       6 GLP5        0.0000 
      7 CA         17.5300   30.6665   17.7660 C.3       3 GLC5        0.0000 
      8 CA         18.9120   30.5210   16.1900 C.3       9 GLL5        0.0000 
      9 CA         16.1480   30.8120   19.3420 C.3       6 GLP5        0.0000 
     10 N          19.3910   27.9855   17.7685 N.am      2 SEC2        0.0000 
     11 N          19.9400   28.4040   16.5570 N.am      8 SEL2        0.0000 
     12 N          18.8420   27.5670   18.9800 N.am      5 SEP2        0.0000 
     13 O          18.7310   28.1650   16.8950 O.2       1 ALC1        0.0000 
     14 O          19.9400   28.4040   16.5570 O.2       7 ALL1        0.0000 
     15 O          17.5220   27.9260   17.2330 O.2       4 ALP1        0.0000 
     16 O          20.5210   26.8135   14.1650 O.2       1 ALC1        0.0000 
     17 O          20.7110   28.3740   13.6190 O.2       7 ALL1        0.0000 
     18 O          20.3310   25.2530   14.7110 O.2       4 ALP1        0.0000 
     19 CA         17.4705   26.2845   14.5795 C.3       3 GLC5        0.0000 
     20 CA         18.3200   28.3050   14.1660 C.3       9 GLL5        0.0000 
     21 CA         16.6210   24.2640   14.9930 C.3       6 GLP5        0.0000 
     22 CA         17.0550   30.9445   11.3560 C.3       3 GLC5        0.0000 
     23 CA         17.4750   28.9050   11.8790 C.3       9 GLL5        0.0000 
     24 CA         16.6350   32.9840   10.8330 C.3       6 GLP5        0.0000 
     25 CA         17.1525   30.5110   10.0200 C.3       3 GLC5        0.0000 
     26 CA         17.1770   28.5750   10.5660 C.3       9 GLL5        0.0000 
     27 CA         17.1280   32.4470    9.4740 C.3       6 GLP5        0.0000 
     28 CA         17.4125   25.4590   13.6330 C.3       3 GLC5        0.0000 
     29 CA         18.2040   26.6540   12.2730 C.3       9 GLL5        0.0000 
     30 CA         23.6935   36.6285   13.5590 C.3       3 GLC5        0.0000 
     31 CA         22.7210   35.6060   14.3720 C.3       9 GLL5        0.0000 
     32 CA         24.6660   37.6510   12.7460 C.3       6 GLP5        0.0000 
     33 CA         22.7510   34.9235   12.2895 C.3       3 GLC5        0.0000 
     34 CA         22.7810   34.2410   10.2070 C.3       6 GLP5        0.0000 
     35 CA         24.0755   35.4330   13.9030 C.3       3 GLC5        0.0000 
     36 CA         22.7000   34.4630   15.1490 C.3       9 GLL5        0.0000 
     37 CA         25.4510   36.4030   12.6570 C.3       6 GLP5        0.0000 
     38 CA         24.1515   32.9055   15.2755 C.3       3 GLC5        0.0000 
     39 CA         25.6030   31.3480   15.4020 C.3       6 GLP5        0.0000 
     40 CA         15.2895   31.1070   15.4035 C.3       3 GLC5        0.0000 
     41 CA         16.0420   32.7950   16.5410 C.3       9 GLL5        0.0000 
     42 CA         14.5370   29.4190   14.2660 C.3       6 GLP5        0.0000 
     43 CA         16.4145   33.2605   18.8410 C.3       3 GLC5        0.0000 
     44 CA         15.6100   34.8920   17.6530 C.3       9 GLL5        0.0000 
     45 CA         17.2190   31.6290   20.0290 C.3       6 GLP5        0.0000 
     46 CA         13.8755   35.1570   18.9245 C.3       3 GLC5        0.0000 
     47 CA         12.1410   35.4220   20.1960 C.3       6 GLP5        0.0000 
     48 N          14.4175   34.8765   19.8710 N.am      2 SEC2        0.0000 
     49 N          14.8720   35.6370   18.5450 N.am      8 SEL2        0.0000 
     50 N          13.9630   34.1160   21.1970 N.am      5 SEP2        0.0000 
     51 CA         15.7585   36.4300   20.5395 C.3       3 GLC5        0.0000 
     52 CA         15.2430   36.9920   18.7940 C.3       9 GLL5        0.0000 
     53 CA         16.2740   35.8680   22.2850 C.3       6 GLP5        0.0000 
     54 CA         13.6920   36.2070   19.4950 C.3       3 GLC5        0.0000 
     55 CA         14.1265   37.9060   17.1990 C.3       3 GLC5        0.0000 
     56 CA         13.0100   38.8200   15.6040 C.3       6 GLP5        0.0000 
     57 CA         22.8178   26.3508   13.5137 C.3       3 GLC5        0.0000 
     58 CA         22.7280   27.9160   12.2820 C.3       9 GLL5        0.0000 
     59 CA         23.0880   25.2960   15.1790 C.3       6 GLP5        0.0000 
     60 CA         23.5415   25.7097   13.1412 C.3       3 GLC5        0.0000 
     61 CA         24.6560   26.2080   11.2930 C.3       9 GLL5        0.0000 
     62 CA         24.0575   23.9593   11.4863 C.3       3 GLC5        0.0000 
     63 CA         24.1200   21.7950   11.8690 C.3       6 GLP5        0.0000 
     64 CA         26.4755   25.5417   11.6997 C.3       3 GLC5        0.0000 
     65 CA         28.1170   24.3710   11.6660 C.3       6 GLP5        0.0000 
     66 CA         24.3302   26.9600   14.0463 C.3       3 GLC5        0.0000 
     67 CA         24.1300   26.2690   15.6710 C.3       6 GLP5        0.0000 
     68 CA         26.4413   28.2025   12.3468 C.3       3 GLC5        0.0000 
     69 CA         24.0490   28.0850   12.6690 C.3       9 GLL5        0.0000 
     70 CA         28.3520   28.7540   12.2720 C.3       6 GLP5        0.0000 
     71 CA         24.6226   29.4649   11.8989 C.3       3 GLC5        0.0000 
     72 CA         25.0450   31.3210   11.4730 C.3       6 GLP5        0.0000 
     73 CA         23.7192   32.0703   16.1525 C.3       3 GLC5        0.0000 
     74 CA         21.4350   32.2740   16.5130 C.3       9 GLL5        0.0000 
     75 CA         23.9248   34.4693   17.2873 C.3       3 GLC5        0.0000 
     76 CA         25.5990   35.0040   17.6970 C.3       6 GLP5        0.0000 
     77 CA         18.8205   29.6485   10.0168 C.3       3 GLC5        0.0000 
     78 CA         20.3150   30.5570    8.8110 C.3       6 GLP5        0.0000 
     79 CA         15.9000   27.4900   11.4633 C.3       3 GLC5        0.0000 
     80 CA         14.4740   26.2400   11.7040 C.3       6 GLP5        0.0000 
     81 CA         16.1760   28.9666   13.4657 C.3       3 GLC5        0.0000 
     82 CA         16.0830   28.1915    8.8820 C.3       3 GLC5        0.0000 
     83 CA         14.8740   28.4500    7.4310 C.3       6 GLP5        0.0000 
     84 CA         16.0703   26.5255   11.1143 C.3       3 GLC5        0.0000 
     85 CA         17.4070   27.2910   10.1000 C.3       9 GLL5        0.0000 
     86 CA         16.2855   26.7690   12.1047 C.3       3 GLC5        0.0000 
     87 CA         23.7285   35.6717   17.1475 C.3       3 GLC5        0.0000 
     88 CA         21.8470   35.7680   16.9900 C.3       9 GLL5        0.0000 
     89 CA         23.5895   37.5132   14.8457 C.3       3 GLC5        0.0000 
     90 CA         21.8690   36.9110   16.2060 C.3       9 GLL5        0.0000 
     91 CA         25.0940   38.1580   14.1430 C.3       6 GLP5        0.0000 
     92 CA         21.0555   36.2482   13.9572 C.3       3 GLC5        0.0000 
     93 CA         22.3010   36.8260   14.8910 C.3       9 GLL5        0.0000 
     94 CA         20.0260   35.6280   12.3660 C.3       6 GLP5        0.0000 
     95 CA         24.1547   35.0192   16.2287 C.3       3 GLC5        0.0000 
     96 CA         21.3682   35.3313   13.5633 C.3       3 GLC5        0.0000 
     97 CA         15.6035   33.0205   14.2825 C.3       3 GLC5        0.0000 
     98 CA         17.1140   33.3530   15.8550 C.3       9 GLL5        0.0000 
     99 CA         14.6290   32.9670   12.3670 C.3       6 GLP5        0.0000 
    100 CA         16.0440   32.0637   18.0808 C.3       3 GLC5        0.0000 
    101 CA         15.3020   33.5570   17.4410 C.3       9 GLL5        0.0000 
    102 CA         13.8045   33.5905   16.5865 C.3       3 GLC5        0.0000 
    103 CA         11.9680   33.1470   15.8510 C.3       6 GLP5        0.0000 
@<TRIPOS>BOND
@<TRIPOS>SUBSTRUCTURE
     1 ALC1       13 GROUP        1 X    ALC  0     ROOT ALC X 1
     2 SEC2       10 GROUP        1 X    SEC  0     **** SEC X 2
     3 GLC5        1 GROUP        1 X    GLC  0     **** GLC X 6
     4 ALP1       15 GROUP        1 Y    ALP  0     ROOT ALP Y 8
     5 SEP2       12 GROUP        1 Y    SEP  0     **** SEP Y 9
     6 GLP5        3 GROUP        1 Y    GLP  0     **** GLP Y 13
     7 ALL1       14 GROUP        1 Z    ALL  0     ROOT ALL Z 15
     8 SEL2       11 GROUP        1 Z    SEL  0     **** SEL Z 16
     9 GLL5        2 GROUP        1 Z    GLL  0     **** GLL Z 20
@<TRIPOS>SET

