#    Name: 3sab_F78_1_ligand
#    Modification time : Mon Apr  7 22:11:01 2014

@<TRIPOS>MOLECULE
3sab_F78_1_ligand
   78    81     1     0     0
SMALL
NO_CHARGES


@<TRIPOS>ATOM
      1 C21        21.6650   28.8280   12.8070 C.2       1 F78200      0.0000 
      2 O22        21.7700   29.9480   12.4160 O.2       1 F78200      0.0000 
      3 C22        22.7280   27.9160   12.2820 C.ar      1 F78200      0.0000 
      4 C27        22.3670   26.8950   11.4150 C.ar      1 F78200      0.0000 
      5 C26        23.3340   26.0390   10.9140 C.ar      1 F78200      0.0000 
      6 C25        24.6560   26.2080   11.2930 C.ar      1 F78200      0.0000 
      7 C24        25.0120   27.2170   12.1740 C.ar      1 F78200      0.0000 
      8 C23        24.0490   28.0850   12.6690 C.ar      1 F78200      0.0000 
      9 O27        22.9780   25.0350   10.0640 O.3       1 F78200      0.0000 
     10 N11        19.2440   31.8020   15.5520 N.pl3     1 F78200      0.0000 
     11 C12        19.9690   32.7030   16.4550 C.3       1 F78200      0.0000 
     12 C13        21.4350   32.2740   16.5130 C.3       1 F78200      0.0000 
     13 C14        22.2360   33.3110   17.2930 C.3       1 F78200      0.0000 
     14 C16        18.9120   30.5210   16.1900 C.3       1 F78200      0.0000 
     15 C17        19.9410   29.5300   15.6660 C.3       1 F78200      0.0000 
     16 O18        19.9400   28.4040   16.5570 O.3       1 F78200      0.0000 
     17 C19        19.6140   29.1230   14.2250 C.3       1 F78200      0.0000 
     18 N20        20.7110   28.3740   13.6190 N.am      1 F78200      0.0000 
     19 C32        18.3200   28.3050   14.1660 C.3       1 F78200      0.0000 
     20 C33        17.4750   28.9050   11.8790 C.ar      1 F78200      0.0000 
     21 C34        17.1770   28.5750   10.5660 C.ar      1 F78200      0.0000 
     22 C35        17.4070   27.2910   10.1000 C.ar      1 F78200      0.0000 
     23 C36        17.9260   26.3310   10.9490 C.ar      1 F78200      0.0000 
     24 C37        18.2040   26.6540   12.2730 C.ar      1 F78200      0.0000 
     25 C38        17.9900   27.9420   12.7380 C.ar      1 F78200      0.0000 
     26 C40        22.2650   34.5580   16.4620 C.ar      1 F78200      0.0000 
     27 C41        21.8470   35.7680   16.9900 C.ar      1 F78200      0.0000 
     28 C42        21.8690   36.9110   16.2060 C.ar      1 F78200      0.0000 
     29 C43        22.3010   36.8260   14.8910 C.ar      1 F78200      0.0000 
     30 C44        22.7210   35.6060   14.3720 C.ar      1 F78200      0.0000 
     31 C45        22.7000   34.4630   15.1490 C.ar      1 F78200      0.0000 
     32 S8         17.9750   32.4720   14.8140 S.o2      1 F78200      0.0000 
     33 O9         17.1070   31.4510   14.2970 O.2       1 F78200      0.0000 
     34 O10        18.5020   33.3460   13.8020 O.2       1 F78200      0.0000 
     35 C5         17.1140   33.3530   15.8550 C.ar      1 F78200      0.0000 
     36 C4         17.4110   34.6960   16.0640 C.ar      1 F78200      0.0000 
     37 C6         16.0420   32.7950   16.5410 C.ar      1 F78200      0.0000 
     38 C3         16.6660   35.4630   16.9570 C.ar      1 F78200      0.0000 
     39 C7         15.3020   33.5570   17.4410 C.ar      1 F78200      0.0000 
     40 C2         15.6100   34.8920   17.6530 C.ar      1 F78200      0.0000 
     41 O1         14.8720   35.6370   18.5450 O.3       1 F78200      0.0000 
     42 C1         15.2430   36.9920   18.7940 C.3       1 F78200      0.0000 
     43 H          21.3811   26.7743   11.1447 H         1 F78200      0.0000 
     44 H          25.3823   25.5769   10.9160 H         1 F78200      0.0000 
     45 H          25.9961   27.3238   12.4633 H         1 F78200      0.0000 
     46 H          24.3100   28.8380   13.3097 H         1 F78200      0.0000 
     47 H          19.5573   32.6588   17.4610 H         1 F78200      0.0000 
     48 H          19.9246   33.7296   16.0977 H         1 F78200      0.0000 
     49 H          21.8264   32.1979   15.5061 H         1 F78200      0.0000 
     50 H          21.5083   31.3137   17.0084 H         1 F78200      0.0000 
     51 H          23.2357   32.9430   17.4484 H         1 F78200      0.0000 
     52 H          21.7485   33.5009   18.2338 H         1 F78200      0.0000 
     53 H          17.9312   30.1893   15.9040 H         1 F78200      0.0000 
     54 H          19.0030   30.5861   17.2583 H         1 F78200      0.0000 
     55 H          20.9043   30.0231   15.6739 H         1 F78200      0.0000 
     56 H          19.4408   30.0434   13.6544 H         1 F78200      0.0000 
     57 H          20.7086   27.3235   13.8916 H         1 F78200      0.0000 
     58 H          17.5103   28.8942   14.5932 H         1 F78200      0.0000 
     59 H          18.4478   27.3994   14.7565 H         1 F78200      0.0000 
     60 H          17.3152   29.8633   12.2190 H         1 F78200      0.0000 
     61 H          16.7825   29.2886    9.9340 H         1 F78200      0.0000 
     62 H          17.1911   27.0526    9.1213 H         1 F78200      0.0000 
     63 H          18.1075   25.3784   10.6056 H         1 F78200      0.0000 
     64 H          18.5708   25.9307   12.9096 H         1 F78200      0.0000 
     65 H          21.5196   35.8194   17.9652 H         1 F78200      0.0000 
     66 H          21.5687   37.8111   16.5946 H         1 F78200      0.0000 
     67 H          22.3115   37.6666   14.2964 H         1 F78200      0.0000 
     68 H          23.0522   35.5573   13.3929 H         1 F78200      0.0000 
     69 H          22.9988   33.5649   14.7651 H         1 F78200      0.0000 
     70 H          18.1954   35.1317   15.5498 H         1 F78200      0.0000 
     71 H          15.7910   31.8061   16.3825 H         1 F78200      0.0000 
     72 H          16.9012   36.4549   17.0991 H         1 F78200      0.0000 
     73 H          14.5183   33.1222   17.9533 H         1 F78200      0.0000 
     74 H          16.1719   37.0619   19.1577 H         1 F78200      0.0000 
     75 H          15.2120   37.5446   17.9611 H         1 F78200      0.0000 
     76 H          14.6348   37.4276   19.4576 H         1 F78200      0.0000 
     77 H          22.3970   25.4715    9.3771 H         1 F78200      0.0000 
     78 H          19.0544   27.9621   16.4144 H         1 F78200      0.0000 
@<TRIPOS>BOND
     1    2    1 2    
     2    3    1 1    
     3   18    1 am   
     4    4    3 ar   
     5    8    3 ar   
     6    5    4 ar   
     7   43    4 1    
     8    6    5 ar   
     9    9    5 1    
    10    7    6 ar   
    11   44    6 1    
    12    8    7 ar   
    13   45    7 1    
    14   46    8 1    
    15   77    9 1    
    16   11   10 1    
    17   14   10 1    
    18   32   10 1    
    19   12   11 1    
    20   47   11 1    
    21   48   11 1    
    22   13   12 1    
    23   49   12 1    
    24   50   12 1    
    25   26   13 1    
    26   51   13 1    
    27   52   13 1    
    28   15   14 1    
    29   53   14 1    
    30   54   14 1    
    31   16   15 1    
    32   17   15 1    
    33   55   15 1    
    34   78   16 1    
    35   18   17 1    
    36   19   17 1    
    37   56   17 1    
    38   57   18 1    
    39   25   19 1    
    40   58   19 1    
    41   59   19 1    
    42   21   20 ar   
    43   25   20 ar   
    44   60   20 1    
    45   22   21 ar   
    46   61   21 1    
    47   23   22 ar   
    48   62   22 1    
    49   24   23 ar   
    50   63   23 1    
    51   25   24 ar   
    52   64   24 1    
    53   27   26 ar   
    54   31   26 ar   
    55   28   27 ar   
    56   65   27 1    
    57   29   28 ar   
    58   66   28 1    
    59   30   29 ar   
    60   67   29 1    
    61   31   30 ar   
    62   68   30 1    
    63   69   31 1    
    64   33   32 2    
    65   34   32 2    
    66   35   32 1    
    67   36   35 ar   
    68   37   35 ar   
    69   38   36 ar   
    70   70   36 1    
    71   39   37 ar   
    72   71   37 1    
    73   40   38 ar   
    74   72   38 1    
    75   40   39 ar   
    76   73   39 1    
    77   41   40 1    
    78   42   41 1    
    79   74   42 1    
    80   75   42 1    
    81   76   42 1    
@<TRIPOS>SUBSTRUCTURE
     1 F78200      1 GROUP   
@<TRIPOS>SET

