#    Name: 2WYW_1_CAVITY_N1_ALL.mol2
#    Modification time : Mon Mar 10 21:34:36 2014

@<TRIPOS>MOLECULE
2WYW_1_CAVITY_N1_ALL.mol2
   91     0     6     0     0
SMALL
NO_CHARGES


@<TRIPOS>ATOM
      1 CA         22.0201   12.3539   17.8255 C.3       5 GLY6        0.0000 
      2 CA         20.1207   12.6803   16.9390 C.3       5 GLY6        0.0000 
      3 N          19.5075   12.3783   15.6038 N.2       2 ALA2        0.0000 
      4 N          25.3245    8.9347   12.0256 N.2       2 ALA2        0.0000 
      5 OG         20.1803   11.4480   13.8200 O.2       1 SER1        0.0000 
      6 OG         23.4252    9.2611   11.1390 O.2       1 SER1        0.0000 
      7 OG         22.1392    9.8894   11.5876 O.2       1 SER1        0.0000 
      8 OG         20.8531   10.5177   12.0362 O.2       1 SER1        0.0000 
      9 CZ         19.5670   11.1461   12.4848 C.ar      4 PHE5        0.0000 
     10 CZ         21.5259    9.5875   10.2524 C.ar      4 PHE5        0.0000 
     11 CZ         20.2398   10.2158   10.7010 C.ar      4 PHE5        0.0000 
     12 CA         22.1643   11.3277   19.6765 C.3       5 GLY6        0.0000 
     13 CZ         20.8783   11.9560   20.1251 C.ar      4 PHE5        0.0000 
     14 N          21.5511   11.0257   18.3413 N.2       2 ALA2        0.0000 
     15 CA         20.2650   11.6541   18.7899 C.3       5 GLY6        0.0000 
     16 N          22.2239   10.0955   16.5575 N.2       2 ALA2        0.0000 
     17 CA         20.9378   10.7238   17.0061 C.3       5 GLY6        0.0000 
     18 CA         19.6517   11.3521   17.4547 C.3       5 GLY6        0.0000 
     19 OG         22.8967    9.1652   14.7737 O.2       1 SER1        0.0000 
     20 OG         21.6106    9.7935   15.2223 O.2       1 SER1        0.0000 
     21 CA         20.3246   10.4218   15.6709 C.3       5 GLY6        0.0000 
     22 O          19.0385   11.0501   16.1195 O.2       2 ALA2        0.0000 
     23 CA         24.8556    7.6066   12.5414 C.3       5 GLY6        0.0000 
     24 OG         23.5695    8.2349   12.9900 O.2       1 SER1        0.0000 
     25 OG         22.2834    8.8632   13.4386 O.2       1 SER1        0.0000 
     26 OG         20.9974    9.4915   13.8872 O.2       1 SER1        0.0000 
     27 CZ         19.7113   10.1199   14.3358 C.ar      4 PHE5        0.0000 
     28 CA         24.2423    7.3046   11.2062 C.3       5 GLY6        0.0000 
     29 DU         22.9562    7.9329   11.6548 H         6 CUB7        0.0000 
     30 OG         21.6702    8.5613   12.1034 O.2       1 SER1        0.0000 
     31 CZ         20.3841    9.1896   12.5520 C.ar      4 PHE5        0.0000 
     32 DU         23.6290    7.0026    9.8710 H         6 CUB7        0.0000 
     33 CZ         21.0569    8.2593   10.7682 C.ar      4 PHE5        0.0000 
     34 OG         21.2264    8.6714   20.7081 O.2       1 SER1        0.0000 
     35 OG         20.6131    8.3694   19.3729 O.2       1 SER1        0.0000 
     36 OG         19.3270    8.9977   19.8215 O.2       1 SER1        0.0000 
     37 N          19.9999    8.0674   18.0377 N.2       2 ALA2        0.0000 
     38 CA         21.9587    6.5088   15.8053 C.3       5 GLY6        0.0000 
     39 N          20.6727    7.1372   16.2539 N.2       2 ALA2        0.0000 
     40 NZ         22.6315    5.5786   14.0215 N.2       3 LYS4        0.0000 
     41 NZ         21.3455    6.2069   14.4701 N.2       3 LYS4        0.0000 
     42 N          20.0594    6.8352   14.9187 N.2       2 ALA2        0.0000 
     43 CA         24.5904    4.0199   11.7891 C.3       5 GLY6        0.0000 
     44 OG         23.3043    4.6483   12.2377 O.2       1 SER1        0.0000 
     45 CA         22.0183    5.2766   12.6863 C.3       5 GLY6        0.0000 
     46 CA         20.7322    5.9049   13.1349 C.3       5 GLY6        0.0000 
     47 N          19.4461    6.5332   13.5835 N.2       2 ALA2        0.0000 
     48 OG         23.9772    3.7180   10.4539 O.2       1 SER1        0.0000 
     49 OG         22.6911    4.3463   10.9025 O.2       1 SER1        0.0000 
     50 N          21.4050    4.9746   11.3511 N.2       2 ALA2        0.0000 
     51 N          20.1189    5.6030   11.7997 N.2       2 ALA2        0.0000 
     52 CZ         18.8329    6.2313   12.2483 C.ar      4 PHE5        0.0000 
     53 O          22.0778    4.0444    9.5673 O.2       2 ALA2        0.0000 
     54 O          20.7918    4.6727   10.0159 O.2       2 ALA2        0.0000 
     55 N          19.5057    5.3010   10.4645 N.2       2 ALA2        0.0000 
     56 OG         22.2221    3.0181   11.4183 O.2       1 SER1        0.0000 
     57 CA         22.3086   10.3015   21.5275 C.3       5 GLY6        0.0000 
     58 CZ         21.0225   10.9298   21.9761 C.ar      4 PHE5        0.0000 
     59 CA         22.9814    9.3712   19.7437 C.3       5 GLY6        0.0000 
     60 OG         21.6954    9.9995   20.1923 O.2       1 SER1        0.0000 
     61 CZ         20.4093   10.6279   20.6409 C.ar      4 PHE5        0.0000 
     62 CA         21.0821    9.6976   18.8571 C.3       5 GLY6        0.0000 
     63 CA         19.7960   10.3259   19.3057 C.3       5 GLY6        0.0000 
     64 CA         20.4688    9.3956   17.5219 C.3       5 GLY6        0.0000 
     65 CA         19.1828   10.0239   17.9705 C.3       5 GLY6        0.0000 
     66 CA         21.1416    8.4653   15.7381 C.3       5 GLY6        0.0000 
     67 N          19.8556    9.0937   16.1867 N.2       2 ALA2        0.0000 
     68 CA         18.5695    9.7220   16.6353 C.3       5 GLY6        0.0000 
     69 NZ         23.1005    6.9067   13.5057 N.2       3 LYS4        0.0000 
     70 CA         21.8144    7.5350   13.9543 C.3       5 GLY6        0.0000 
     71 N          20.5284    8.1634   14.4029 N.2       2 ALA2        0.0000 
     72 CA         19.2423    8.7917   14.8515 C.3       5 GLY6        0.0000 
     73 CA         26.3455    4.7198   10.8248 C.3       5 GLY6        0.0000 
     74 CA         25.0594    5.3481   11.2733 C.3       5 GLY6        0.0000 
     75 CA         23.7733    5.9764   11.7219 C.3       5 GLY6        0.0000 
     76 DU         22.4873    6.6048   12.1705 H         6 CUB7        0.0000 
     77 DU         21.2012    7.2331   12.6191 H         6 CUB7        0.0000 
     78 CZ         19.9151    7.8614   13.0677 C.ar      4 PHE5        0.0000 
     79 CA         24.4461    5.0462    9.9382 C.3       5 GLY6        0.0000 
     80 DU         23.1601    5.6745   10.3868 H         6 CUB7        0.0000 
     81 DU         21.8740    6.3028   10.8354 H         6 CUB7        0.0000 
     82 CZ         20.5879    6.9311   11.2840 C.ar      4 PHE5        0.0000 
     83 O          23.8329    4.7442    8.6030 O.2       2 ALA2        0.0000 
     84 O          22.5468    5.3725    9.0516 O.2       2 ALA2        0.0000 
     85 O          21.2607    6.0008    9.5002 O.2       2 ALA2        0.0000 
     86 O          19.9747    6.6292    9.9488 O.2       2 ALA2        0.0000 
     87 CZ         18.6886    7.2575   10.3974 C.ar      4 PHE5        0.0000 
     88 CZ         19.4227   12.1723   10.6338 C.ar      4 PHE5        0.0000 
     89 CA         20.6493   12.7762   13.3042 C.3       5 GLY6        0.0000 
     90 OG         22.6081   11.2176   11.0718 O.2       1 SER1        0.0000 
     91 OG         21.3221   11.8459   11.5204 O.2       1 SER1        0.0000 
@<TRIPOS>BOND
@<TRIPOS>SUBSTRUCTURE
     1 SER1        5 GROUP   
     2 ALA2        3 GROUP   
     3 LYS4       40 GROUP   
     4 PHE5        9 GROUP   
     5 GLY6        1 GROUP   
     6 CUB7       29 GROUP   
@<TRIPOS>SET

