#    Name: 2wyw_TCL_1_INTS_M
#    Modification time : Tue Mar 25 04:48:11 2014

@<TRIPOS>MOLECULE
2wyw_TCL_1_INTS_M
   67     0     9     0     0
SMALL
NO_CHARGES


@<TRIPOS>ATOM
      1 CA         21.1040   10.6675   25.0715 C.3       3 GLC5        0.0000 
      2 CA         22.3470   10.6330   23.3420 C.3       9 GLL5        0.0000 
      3 CA         19.8610   10.7020   26.8010 C.3       6 GLP5        0.0000 
      4 CA         18.1930    8.9600   16.1940 C.3       3 GLC5        0.0000 
      5 CA         20.0610    9.2970   17.1030 C.3       9 GLL5        0.0000 
      6 CA         16.3250    8.6230   15.2850 C.3       6 GLP5        0.0000 
      7 CA         20.0130   13.4665   18.2355 C.3       3 GLC5        0.0000 
      8 CA         20.6430   11.4500   18.0950 C.3       9 GLL5        0.0000 
      9 CA         19.3830   15.4830   18.3760 C.3       6 GLP5        0.0000 
     10 CA         23.8305   12.0775   26.1485 C.3       3 GLC5        0.0000 
     11 CA         24.5460   11.8260   24.4410 C.3       9 GLL5        0.0000 
     12 CA         23.1150   12.3290   27.8560 C.3       6 GLP5        0.0000 
     13 CA         26.1490   11.1390   25.4495 C.3       3 GLC5        0.0000 
     14 CA         27.7520   10.4520   26.4580 C.3       6 GLP5        0.0000 
     15 CA         23.9475   12.6715   22.8195 C.3       3 GLC5        0.0000 
     16 CA         23.3490   13.5170   21.1980 C.3       6 GLP5        0.0000 
     17 CA         26.2160   11.9770   23.4895 C.3       3 GLC5        0.0000 
     18 CA         27.8860   12.1280   22.5380 C.3       6 GLP5        0.0000 
     19 CA         24.7200   13.5640   24.6025 C.3       3 GLC5        0.0000 
     20 CA         24.8940   15.3020   24.7640 C.3       6 GLP5        0.0000 
     21 CA         24.0765    9.9750   24.9000 C.3       3 GLC5        0.0000 
     22 CA         23.6070    8.1240   25.3590 C.3       6 GLP5        0.0000 
     23 CA         17.8450   10.0245   15.4680 C.3       3 GLC5        0.0000 
     24 CA         19.3650   11.4260   15.6510 C.3       9 GLL5        0.0000 
     25 CA         17.4290   11.8375   15.1380 C.3       3 GLC5        0.0000 
     26 CA         15.4930   12.2490   14.6250 C.3       6 GLP5        0.0000 
     27 CA         19.0055   13.5975   15.7180 C.3       3 GLC5        0.0000 
     28 CA         18.6460   15.7690   15.7850 C.3       6 GLP5        0.0000 
     29 CA         18.0060   11.1380   17.0715 C.3       3 GLC5        0.0000 
     30 CA         16.6470   10.8500   18.4920 C.3       6 GLP5        0.0000 
     31 CA         21.1685   11.9045   15.2445 C.3       3 GLC5        0.0000 
     32 CA         22.9720   12.3830   14.8380 C.3       6 GLP5        0.0000 
     33 CA         18.9100    6.9075   18.8110 C.3       3 GLC5        0.0000 
     34 CA         20.6400    6.8960   18.3080 C.3       9 GLL5        0.0000 
     35 CA         17.1800    6.9190   19.3140 C.3       6 GLP5        0.0000 
     36 CA         22.1190    7.3145   17.7780 C.3       3 GLC5        0.0000 
     37 CA         23.5980    7.7330   17.2480 C.3       6 GLP5        0.0000 
     38 CA         20.1700    5.9825   19.8200 C.3       3 GLC5        0.0000 
     39 CA         19.7000    5.0690   21.3320 C.3       6 GLP5        0.0000 
     40 N          19.8675    8.5050   22.2295 N.am      2 SEC2        0.0000 
     41 N          20.3480    9.6250   22.4490 N.am      8 SEL2        0.0000 
     42 N          19.3870    7.3850   22.0100 N.am      5 SEP2        0.0000 
     43 O          19.6240   10.4450   23.0035 O.2       1 ALC1        0.0000 
     44 O          20.3480    9.6250   22.4490 O.2       7 ALL1        0.0000 
     45 O          18.9000   11.2650   23.5580 O.2       4 ALP1        0.0000 
     46 CA         23.1870   12.1387   22.2302 C.3       3 GLC5        0.0000 
     47 CA         22.7030   11.6017   21.4902 C.3       3 GLC5        0.0000 
     48 CA         21.6770    9.9260   22.3670 C.3       9 GLL5        0.0000 
     49 CA         21.1795    8.0042   21.8427 C.3       3 GLC5        0.0000 
     50 CA         20.3020    6.3220   21.9030 C.3       6 GLP5        0.0000 
     51 CA         23.3547    8.6570   19.1880 C.3       3 GLC5        0.0000 
     52 CA         22.4370    9.4470   21.1980 C.3       9 GLL5        0.0000 
     53 CA         25.5457   10.3923   20.0752 C.3       3 GLC5        0.0000 
     54 CA         23.7860    9.7150   21.0580 C.3       9 GLL5        0.0000 
     55 CA         26.9870   10.7010   18.5900 C.3       6 GLP5        0.0000 
     56 CA         23.7268   11.8003   21.3792 C.3       3 GLC5        0.0000 
     57 CA         21.6695   11.7212   16.2120 C.3       3 GLC5        0.0000 
     58 CA         20.0910   10.6690   17.0770 C.3       9 GLL5        0.0000 
     59 CA         18.7563    7.9505   18.4815 C.3       3 GLC5        0.0000 
     60 CA         21.9652    8.3575   17.4485 C.3       3 GLC5        0.0000 
     61 CA         20.6040    8.6670   18.1950 C.3       9 GLL5        0.0000 
     62 CA         20.6018    7.6923   20.3173 C.3       3 GLC5        0.0000 
     63 CA         22.4017    8.9450   18.2405 C.3       3 GLC5        0.0000 
     64 CA         21.1990    9.4580   19.2680 C.3       9 GLL5        0.0000 
     65 CA         18.5033   10.7832   18.0423 C.3       3 GLC5        0.0000 
     66 CA         22.1107   12.5825   19.2033 C.3       3 GLC5        0.0000 
     67 CA         23.2940   14.0120   19.7600 C.3       6 GLP5        0.0000 
@<TRIPOS>BOND
@<TRIPOS>SUBSTRUCTURE
     1 ALC1       43 GROUP        1 X    ALC  0     ROOT ALC X 1
     2 SEC2       40 GROUP        1 X    SEC  0     **** SEC X 2
     3 GLC5        1 GROUP        1 X    GLC  0     **** GLC X 6
     4 ALP1       45 GROUP        1 Y    ALP  0     ROOT ALP Y 8
     5 SEP2       42 GROUP        1 Y    SEP  0     **** SEP Y 9
     6 GLP5        3 GROUP        1 Y    GLP  0     **** GLP Y 13
     7 ALL1       44 GROUP        1 Z    ALL  0     ROOT ALL Z 15
     8 SEL2       41 GROUP        1 Z    SEL  0     **** SEL Z 16
     9 GLL5        2 GROUP        1 Z    GLL  0     **** GLL Z 20
@<TRIPOS>SET

