#    Name: 2wyw_TCL_1_ligand
#    Modification time : Tue Mar 25 04:48:12 2014

@<TRIPOS>MOLECULE
2wyw_TCL_1_ligand
   24    25     1     0     0
SMALL
NO_CHARGES


@<TRIPOS>ATOM
      1 C1         22.3470   10.6330   23.3420 C.ar      1 TCL1261     0.0000 
      2 C2         23.7030   10.8880   23.1830 C.ar      1 TCL1261     0.0000 
      3 C6         21.6770    9.9260   22.3670 C.ar      1 TCL1261     0.0000 
      4 C5         22.4370    9.4470   21.1980 C.ar      1 TCL1261     0.0000 
      5 C4         23.7860    9.7150   21.0580 C.ar      1 TCL1261     0.0000 
      6 C3         24.4230   10.4520   22.0630 C.ar      1 TCL1261     0.0000 
      7 C11        20.0910   10.6690   17.0770 C.ar      1 TCL1261     0.0000 
      8 C10        20.0610    9.2970   17.1030 C.ar      1 TCL1261     0.0000 
      9 C9         20.6040    8.6670   18.1950 C.ar      1 TCL1261     0.0000 
     10 C8         21.1990    9.4580   19.2680 C.ar      1 TCL1261     0.0000 
     11 C12        20.6430   11.4500   18.0950 C.ar      1 TCL1261     0.0000 
     12 C13        21.2120   10.8560   19.1980 C.ar      1 TCL1261     0.0000 
     13 O7         21.7390    8.7610   20.2730 O.3       1 TCL1261     0.0000 
     14 CL14       24.5460   11.8260   24.4410 Cl        1 TCL1261     0.0000 
     15 CL15       19.3650   11.4260   15.6510 Cl        1 TCL1261     0.0000 
     16 CL16       20.6400    6.8960   18.3080 Cl        1 TCL1261     0.0000 
     17 O17        20.3480    9.6250   22.4490 O.3       1 TCL1261     0.0000 
     18 H          21.8549   10.9687   24.1762 H         1 TCL1261     0.0000 
     19 H          24.3084    9.3891   20.2498 H         1 TCL1261     0.0000 
     20 H          25.4221   10.6744   21.9797 H         1 TCL1261     0.0000 
     21 H          19.6499    8.7645   16.3382 H         1 TCL1261     0.0000 
     22 H          20.6194   12.4789   18.0107 H         1 TCL1261     0.0000 
     23 H          21.6303   11.4036   19.9424 H         1 TCL1261     0.0000 
     24 H          19.8994   10.4917   22.6670 H         1 TCL1261     0.0000 
@<TRIPOS>BOND
     1    2    1 ar   
     2    3    1 ar   
     3   18    1 1    
     4    6    2 ar   
     5   14    2 1    
     6    4    3 ar   
     7   17    3 1    
     8    5    4 ar   
     9   13    4 1    
    10    6    5 ar   
    11   19    5 1    
    12   20    6 1    
    13    8    7 ar   
    14   11    7 ar   
    15   15    7 1    
    16    9    8 ar   
    17   21    8 1    
    18   10    9 ar   
    19   16    9 1    
    20   12   10 ar   
    21   13   10 1    
    22   12   11 ar   
    23   22   11 1    
    24   23   12 1    
    25   24   17 1    
@<TRIPOS>SUBSTRUCTURE
     1 TCL1261     1 GROUP   
@<TRIPOS>SET

