#    Name: 1w0x_OLO_1_INTS_M
#    Modification time : Tue Mar 25 08:25:48 2014

@<TRIPOS>MOLECULE
1w0x_OLO_1_INTS_M
   47     0     9     0     0
SMALL
NO_CHARGES


@<TRIPOS>ATOM
      1 N         108.3800  102.0160   78.2325 N.am      2 SEC2        0.0000 
      2 N         107.4580  101.3740   79.1990 N.am      8 SEL2        0.0000 
      3 N         109.3020  102.6580   77.2660 N.am      5 SEP2        0.0000 
      4 CA        105.2885   99.3270   77.7605 C.3       3 GLC5        0.0000 
      5 CA        105.0440  100.9680   78.3580 C.3       9 GLL5        0.0000 
      6 CA        105.5330   97.6860   77.1630 C.3       6 GLP5        0.0000 
      7 CA        103.5725  101.5190   80.2535 C.3       3 GLC5        0.0000 
      8 CA        103.7070   99.7520   79.8650 C.3       9 GLL5        0.0000 
      9 CA        103.4380  103.2860   80.6420 C.3       6 GLP5        0.0000 
     10 CA        104.6200   98.7190   78.5140 C.3       3 GLC5        0.0000 
     11 CA        107.2935  101.3345   82.7060 C.3       3 GLC5        0.0000 
     12 CA        107.3030   99.5740   82.4900 C.3       9 GLL5        0.0000 
     13 CA        107.2840  103.0950   82.9220 C.3       6 GLP5        0.0000 
     14 CA        109.2580   98.9035   82.0255 C.3       3 GLC5        0.0000 
     15 CA        111.2130   98.2330   81.5610 C.3       6 GLP5        0.0000 
     16 CA        108.8545  100.2150   83.4470 C.3       3 GLC5        0.0000 
     17 CA        110.4060  100.8560   84.4040 C.3       6 GLP5        0.0000 
     18 CA        107.4425   98.6900   80.5375 C.3       3 GLC5        0.0000 
     19 CA        107.5820   97.8060   78.5850 C.3       6 GLP5        0.0000 
     20 CA        103.5605   98.2000   78.0375 C.3       3 GLC5        0.0000 
     21 CA        101.5880   98.7140   78.9120 C.3       9 GLL5        0.0000 
     22 CA         99.8705   95.6880   78.1020 C.3       3 GLC5        0.0000 
     23 CA        100.8840   97.3220   78.7590 C.3       9 GLL5        0.0000 
     24 CA         98.8570   94.0540   77.4450 C.3       6 GLP5        0.0000 
     25 N          98.5210   96.5315   78.8335 N.am      2 SEC2        0.0000 
     26 N          99.4610   97.6010   78.7240 N.am      8 SEL2        0.0000 
     27 N          97.5810   95.4620   78.9430 N.am      5 SEP2        0.0000 
     28 O         106.0500  102.2050   76.5345 O.2       1 ALC1        0.0000 
     29 O         105.0290  101.6760   77.2000 O.2       7 ALL1        0.0000 
     30 O         107.0710  102.7340   75.8690 O.2       4 ALP1        0.0000 
     31 CA        104.3520  100.8865   74.3580 C.3       3 GLC5        0.0000 
     32 CA        104.0080  101.3500   76.1800 C.3       9 GLL5        0.0000 
     33 CA        104.6960  100.4230   72.5360 C.3       6 GLP5        0.0000 
     34 CA        104.7705   99.5180   76.6715 C.3       3 GLC5        0.0000 
     35 CA        106.6495  101.8417   81.3792 C.3       3 GLC5        0.0000 
     36 CA        106.1350  100.9110   79.2460 C.3       9 GLL5        0.0000 
     37 CA        106.7985   99.1972   79.2107 C.3       3 GLC5        0.0000 
     38 CA        105.8950  100.2660   80.4270 C.3       9 GLL5        0.0000 
     39 CA        104.4838  102.0321   79.8696 C.3       3 GLC5        0.0000 
     40 CA        101.9905   97.4485   76.9578 C.3       3 GLC5        0.0000 
     41 CA        102.7450   96.8790   75.0800 C.3       6 GLP5        0.0000 
     42 CA        101.8181  104.4525   77.7103 C.3       3 GLC5        0.0000 
     43 CA        100.6270  103.8740   76.1430 C.3       9 GLL5        0.0000 
     44 CA        101.4580  105.0810   79.4770 C.3       6 GLP5        0.0000 
     45 CA        101.5032  102.9431   78.1667 C.3       3 GLC5        0.0000 
     46 CA        102.8890  102.2430   76.2340 C.3       9 GLL5        0.0000 
     47 CA        101.0410  103.6970   79.9520 C.3       6 GLP5        0.0000 
@<TRIPOS>BOND
@<TRIPOS>SUBSTRUCTURE
     1 ALC1       28 GROUP        1 X    ALC  0     ROOT ALC X 1
     2 SEC2        1 GROUP        1 X    SEC  0     **** SEC X 2
     3 GLC5        4 GROUP        1 X    GLC  0     **** GLC X 6
     4 ALP1       30 GROUP        1 Y    ALP  0     ROOT ALP Y 8
     5 SEP2        3 GROUP        1 Y    SEP  0     **** SEP Y 9
     6 GLP5        6 GROUP        1 Y    GLP  0     **** GLP Y 13
     7 ALL1       29 GROUP        1 Z    ALL  0     ROOT ALL Z 15
     8 SEL2        2 GROUP        1 Z    SEL  0     **** SEL Z 16
     9 GLL5        5 GROUP        1 Z    GLL  0     **** GLL Z 20
@<TRIPOS>SET

