#    Name: 1w0x_OLO_1_ligand
#    Modification time : Tue Mar 25 08:25:48 2014

@<TRIPOS>MOLECULE
1w0x_OLO_1_ligand
   40    42     1     0     0
SMALL
NO_CHARGES


@<TRIPOS>ATOM
      1 N         107.0840  100.2570   81.1410 N.pl3     1 OLO1299     0.0000 
      2 C         108.0000  100.9480   80.3360 C.2       1 OLO1299     0.0000 
      3 N1        107.4580  101.3740   79.1990 N.2       1 OLO1299     0.0000 
      4 C3A       106.1350  100.9110   79.2460 C.ar      1 OLO1299     0.0000 
      5 C7A       105.8950  100.2660   80.4270 C.ar      1 OLO1299     0.0000 
      6 C1        105.0440  100.9680   78.3580 C.ar      1 OLO1299     0.0000 
      7 N2        103.9470  100.3120   78.6750 N.ar      1 OLO1299     0.0000 
      8 C2        103.7070   99.7520   79.8650 C.ar      1 OLO1299     0.0000 
      9 N3        104.6740   99.7320   80.8190 N.ar      1 OLO1299     0.0000 
     10 C3        107.3030   99.5740   82.4900 C.3       1 OLO1299     0.0000 
     11 N4        102.4930   99.0410   80.0920 N.pl3     1 OLO1299     0.0000 
     12 C4        101.5880   98.7140   78.9120 C.3       1 OLO1299     0.0000 
     13 C5        100.8840   97.3220   78.7590 C.3       1 OLO1299     0.0000 
     14 O          99.4610   97.6010   78.7240 O.3       1 OLO1299     0.0000 
     15 N5        105.0290  101.6760   77.2000 N.pl3     1 OLO1299     0.0000 
     16 C6        104.0080  101.3500   76.1800 C.3       1 OLO1299     0.0000 
     17 C7        101.6240  101.7240   76.5510 C.ar      1 OLO1299     0.0000 
     18 C8        100.4600  102.5470   76.5070 C.ar      1 OLO1299     0.0000 
     19 C9        100.6270  103.8740   76.1430 C.ar      1 OLO1299     0.0000 
     20 C10       101.9520  104.3680   75.8390 C.ar      1 OLO1299     0.0000 
     21 C11       103.0670  103.5270   75.8960 C.ar      1 OLO1299     0.0000 
     22 C12       102.8890  102.2430   76.2340 C.ar      1 OLO1299     0.0000 
     23 H         108.9361  101.0833   80.6165 H         1 OLO1299     0.0000 
     24 H         102.2010   98.7420   80.9968 H         1 OLO1299     0.0000 
     25 H         102.1688   98.8959   77.9509 H         1 OLO1299     0.0000 
     26 H         100.7710   99.5035   78.8546 H         1 OLO1299     0.0000 
     27 H         101.1603   96.7259   79.6080 H         1 OLO1299     0.0000 
     28 H         101.2343   96.8823   77.8445 H         1 OLO1299     0.0000 
     29 H         105.6782  102.4214   76.9856 H         1 OLO1299     0.0000 
     30 H         103.6779  100.3006   76.3289 H         1 OLO1299     0.0000 
     31 H         104.4836  101.3799   75.1774 H         1 OLO1299     0.0000 
     32 H         101.5248  100.7374   76.8200 H         1 OLO1299     0.0000 
     33 H          99.5596  102.1609   76.7350 H         1 OLO1299     0.0000 
     34 H          99.8416  104.5166   76.0823 H         1 OLO1299     0.0000 
     35 H         102.0532  105.3554   75.5794 H         1 OLO1299     0.0000 
     36 H         103.9941  103.9120   75.6780 H         1 OLO1299     0.0000 
     37 H         107.9893   98.8490   82.4321 H         1 OLO1299     0.0000 
     38 H         107.6165  100.2194   83.1865 H         1 OLO1299     0.0000 
     39 H         106.4629   99.1555   82.8351 H         1 OLO1299     0.0000 
     40 H          99.3886   98.5311   78.3638 H         1 OLO1299     0.0000 
@<TRIPOS>BOND
     1    2    1 1    
     2    5    1 1    
     3   10    1 1    
     4    3    2 2    
     5   23    2 1    
     6    4    3 1    
     7    5    4 ar   
     8    6    4 ar   
     9    9    5 ar   
    10    7    6 ar   
    11   15    6 1    
    12    8    7 ar   
    13    9    8 ar   
    14   11    8 1    
    15   37   10 1    
    16   38   10 1    
    17   39   10 1    
    18   12   11 1    
    19   24   11 1    
    20   13   12 1    
    21   25   12 1    
    22   26   12 1    
    23   14   13 1    
    24   27   13 1    
    25   28   13 1    
    26   40   14 1    
    27   16   15 1    
    28   29   15 1    
    29   22   16 1    
    30   30   16 1    
    31   31   16 1    
    32   18   17 ar   
    33   22   17 ar   
    34   32   17 1    
    35   19   18 ar   
    36   33   18 1    
    37   20   19 ar   
    38   34   19 1    
    39   21   20 ar   
    40   35   20 1    
    41   22   21 ar   
    42   36   21 1    
@<TRIPOS>SUBSTRUCTURE
     1 OLO1299     1 GROUP   
@<TRIPOS>SET

