#    Name: 2ha6_SCK_3_INTS_M
#    Modification time : Tue Mar 25 15:46:47 2014

@<TRIPOS>MOLECULE
2ha6_SCK_3_INTS_M
   51     0     3     0     0
SMALL
NO_CHARGES


@<TRIPOS>ATOM
      1 CA          6.4275   -5.6450  -36.2285 C.3       1 GLC5        0.0000 
      2 CA          6.9770   -4.3790  -37.8550 C.3       3 GLL5        0.0000 
      3 CA          5.8780   -6.9110  -34.6020 C.3       2 GLP5        0.0000 
      4 CA          3.8830   -3.9820  -38.7585 C.3       1 GLC5        0.0000 
      5 CA          5.5880   -3.7920  -37.9820 C.3       3 GLL5        0.0000 
      6 CA          2.1780   -4.1720  -39.5350 C.3       2 GLP5        0.0000 
      7 CA          5.0715   -5.2780  -36.4820 C.3       1 GLC5        0.0000 
      8 CA          4.5550   -6.7640  -34.9820 C.3       2 GLP5        0.0000 
      9 CA          2.8435   -1.7405  -38.0145 C.3       1 GLC5        0.0000 
     10 CA          4.5740   -1.7000  -37.4760 C.3       3 GLL5        0.0000 
     11 CA          1.1130   -1.7810  -38.5530 C.3       2 GLP5        0.0000 
     12 CA          5.8925   -1.0650  -35.9680 C.3       1 GLC5        0.0000 
     13 CA          7.2110   -0.4300  -34.4600 C.3       2 GLP5        0.0000 
     14 CA          3.5220   -0.5530  -36.4415 C.3       1 GLC5        0.0000 
     15 CA          2.4700    0.5940  -35.4070 C.3       2 GLP5        0.0000 
     16 CA          7.0905   -1.1625  -35.9760 C.3       1 GLC5        0.0000 
     17 CA          6.9700   -1.8950  -37.4920 C.3       3 GLL5        0.0000 
     18 CA          3.9820   -2.5150  -39.9425 C.3       1 GLC5        0.0000 
     19 CA          5.7790   -1.9900  -39.5320 C.3       3 GLL5        0.0000 
     20 CA          2.1850   -3.0400  -40.3530 C.3       2 GLP5        0.0000 
     21 CA          7.4770   -1.9900  -40.7180 C.3       1 GLC5        0.0000 
     22 CA          9.1750   -1.9900  -41.9040 C.3       2 GLP5        0.0000 
     23 CA          7.4625   -6.2620  -35.2375 C.3       1 GLC5        0.0000 
     24 CA          9.0470   -5.6130  -35.8730 C.3       3 GLL5        0.0000 
     25 CA         10.0790   -4.6045  -34.9000 C.3       1 GLC5        0.0000 
     26 CA         11.1110   -3.5960  -33.9270 C.3       2 GLP5        0.0000 
     27 CA          8.1735   -6.4820  -34.3595 C.3       1 GLC5        0.0000 
     28 CA         10.0040   -6.6520  -35.2980 C.3       3 GLL5        0.0000 
     29 CA          6.3430   -6.3120  -33.4210 C.3       2 GLP5        0.0000 
     30 CA         10.6940   -5.5710  -34.0955 C.3       1 GLC5        0.0000 
     31 CA         11.3840   -4.4900  -32.8930 C.3       2 GLP5        0.0000 
     32 CA          9.3880   -8.1800  -34.3440 C.3       1 GLC5        0.0000 
     33 CA          8.7720   -9.7080  -33.3900 C.3       2 GLP5        0.0000 
     34 CA         12.1300   -7.5225  -39.0635 C.3       1 GLC5        0.0000 
     35 CA         12.7380   -8.4150  -37.3450 C.3       3 GLL5        0.0000 
     36 CA         11.5220   -6.6300  -40.7820 C.3       2 GLP5        0.0000 
     37 CA         11.2110  -10.5905  -36.2005 C.3       1 GLC5        0.0000 
     38 CA         12.5710   -9.9300  -37.5370 C.3       3 GLL5        0.0000 
     39 CA          9.8510  -11.2510  -34.8640 C.3       2 GLP5        0.0000 
     40 CA         12.4265  -10.9540  -40.6105 C.3       1 GLC5        0.0000 
     41 CA         13.7180   -9.9030  -39.6140 C.3       3 GLL5        0.0000 
     42 CA         11.1350  -12.0050  -41.6070 C.3       2 GLP5        0.0000 
     43 CA         12.6200   -8.2665  -40.1980 C.3       1 GLC5        0.0000 
     44 CA         14.9020   -9.6980  -40.5235 C.3       1 GLC5        0.0000 
     45 CA         16.0860   -9.4930  -41.4330 C.3       2 GLP5        0.0000 
     46 CA         16.0710  -10.1565  -39.1455 C.3       1 GLC5        0.0000 
     47 CA         14.9450  -10.3700  -37.6050 C.3       3 GLL5        0.0000 
     48 CA         17.1970   -9.9430  -40.6860 C.3       2 GLP5        0.0000 
     49 CA         12.6390  -12.5590  -39.9855 C.3       1 GLC5        0.0000 
     50 CA         13.3850  -11.9660  -38.4680 C.3       3 GLL5        0.0000 
     51 CA         11.8930  -13.1520  -41.5030 C.3       2 GLP5        0.0000 
@<TRIPOS>BOND
@<TRIPOS>SUBSTRUCTURE
     1 GLC5        1 GROUP        1 X    GLC  0     ROOT GLC X 6
     2 GLP5        3 GROUP        1 Y    GLP  0     ROOT GLP Y 13
     3 GLL5        2 GROUP        1 Z    GLL  0     ROOT GLL Z 20
@<TRIPOS>SET

