#    Name: 2ha6_SCK_3_ligand
#    Modification time : Tue Mar 25 15:46:47 2014

@<TRIPOS>MOLECULE
2ha6_SCK_3_ligand
   50    49     1     0     0
SMALL
NO_CHARGES


@<TRIPOS>ATOM
      1 O13         8.2190   -7.4110  -37.2380 O.2       1 SCK951      0.0000 
      2 C12         8.0540   -6.2860  -36.7840 C.2       1 SCK951      0.0000 
      3 O14         6.8420   -5.5710  -37.1130 O.3       1 SCK951      0.0000 
      4 C15         6.9770   -4.3790  -37.8550 C.3       1 SCK951      0.0000 
      5 C16         5.5880   -3.7920  -37.9820 C.3       1 SCK951      0.0000 
      6 N17         5.7240   -2.3500  -38.1160 N.4       1 SCK951      0.0000 
      7 C20         4.5740   -1.7000  -37.4760 C.3       1 SCK951      0.0000 
      8 C19         6.9700   -1.8950  -37.4920 C.3       1 SCK951      0.0000 
      9 C18         5.7790   -1.9900  -39.5320 C.3       1 SCK951      0.0000 
     10 C11         9.0470   -5.6130  -35.8730 C.3       1 SCK951      0.0000 
     11 C6         10.0040   -6.6520  -35.2980 C.3       1 SCK951      0.0000 
     12 C5         11.1790   -6.7870  -36.2180 C.2       1 SCK951      0.0000 
     13 O7         11.6520   -5.8450  -36.8190 O.2       1 SCK951      0.0000 
     14 O4         11.7330   -8.0920  -36.3920 O.3       1 SCK951      0.0000 
     15 C3         12.7380   -8.4150  -37.3450 C.3       1 SCK951      0.0000 
     16 C2         12.5710   -9.9300  -37.5370 C.3       1 SCK951      0.0000 
     17 N1         13.6630  -10.5360  -38.2990 N.4       1 SCK951      0.0000 
     18 C8         13.7180   -9.9030  -39.6140 C.3       1 SCK951      0.0000 
     19 C9         14.9450  -10.3700  -37.6050 C.3       1 SCK951      0.0000 
     20 C10        13.3850  -11.9660  -38.4680 C.3       1 SCK951      0.0000 
     21 H           7.3617   -4.5569  -38.8557 H         1 SCK951      0.0000 
     22 H           7.6078   -3.6497  -37.3536 H         1 SCK951      0.0000 
     23 H           5.0177   -4.0503  -37.0941 H         1 SCK951      0.0000 
     24 H           5.1060   -4.2223  -38.8555 H         1 SCK951      0.0000 
     25 H           8.5246   -5.1209  -35.0570 H         1 SCK951      0.0000 
     26 H           9.6172   -4.8744  -36.4301 H         1 SCK951      0.0000 
     27 H           9.4866   -7.6004  -35.2122 H         1 SCK951      0.0000 
     28 H          10.3330   -6.3260  -34.3182 H         1 SCK951      0.0000 
     29 H          13.7278   -8.2356  -36.9779 H         1 SCK951      0.0000 
     30 H          12.5760   -7.9421  -38.2920 H         1 SCK951      0.0000 
     31 H          11.6021  -10.1014  -38.0402 H         1 SCK951      0.0000 
     32 H          12.4919  -10.3902  -36.5353 H         1 SCK951      0.0000 
     33 H           4.5130   -1.9264  -36.5039 H         1 SCK951      0.0000 
     34 H           4.6263   -0.7036  -37.5422 H         1 SCK951      0.0000 
     35 H           3.7098   -1.9767  -37.8961 H         1 SCK951      0.0000 
     36 H           7.7723   -2.3178  -37.9133 H         1 SCK951      0.0000 
     37 H           7.0850   -0.9048  -37.5711 H         1 SCK951      0.0000 
     38 H           6.9997   -2.1166  -36.5173 H         1 SCK951      0.0000 
     39 H           5.8764   -1.0031  -39.6608 H         1 SCK951      0.0000 
     40 H           6.5515   -2.4237  -39.9957 H         1 SCK951      0.0000 
     41 H           4.9510   -2.2688  -40.0185 H         1 SCK951      0.0000 
     42 H          13.8798   -8.9185  -39.5458 H         1 SCK951      0.0000 
     43 H          14.4513  -10.2822  -40.1783 H         1 SCK951      0.0000 
     44 H          12.8648  -10.0254  -40.1211 H         1 SCK951      0.0000 
     45 H          15.6994  -10.7838  -38.1145 H         1 SCK951      0.0000 
     46 H          15.1741   -9.4055  -37.4738 H         1 SCK951      0.0000 
     47 H          14.9349  -10.7946  -36.6997 H         1 SCK951      0.0000 
     48 H          14.1054  -12.4255  -38.9875 H         1 SCK951      0.0000 
     49 H          13.3120  -12.4366  -37.5887 H         1 SCK951      0.0000 
     50 H          12.5264  -12.1223  -38.9562 H         1 SCK951      0.0000 
@<TRIPOS>BOND
     1    2    1 2    
     2    3    2 1    
     3   10    2 1    
     4    4    3 1    
     5    5    4 1    
     6   21    4 1    
     7   22    4 1    
     8    6    5 1    
     9   23    5 1    
    10   24    5 1    
    11    7    6 1    
    12    8    6 1    
    13    9    6 1    
    14   33    7 1    
    15   34    7 1    
    16   35    7 1    
    17   36    8 1    
    18   37    8 1    
    19   38    8 1    
    20   39    9 1    
    21   40    9 1    
    22   41    9 1    
    23   11   10 1    
    24   25   10 1    
    25   26   10 1    
    26   12   11 1    
    27   27   11 1    
    28   28   11 1    
    29   13   12 2    
    30   14   12 1    
    31   15   14 1    
    32   16   15 1    
    33   29   15 1    
    34   30   15 1    
    35   17   16 1    
    36   31   16 1    
    37   32   16 1    
    38   18   17 1    
    39   19   17 1    
    40   20   17 1    
    41   42   18 1    
    42   43   18 1    
    43   44   18 1    
    44   45   19 1    
    45   46   19 1    
    46   47   19 1    
    47   48   20 1    
    48   49   20 1    
    49   50   20 1    
@<TRIPOS>SUBSTRUCTURE
     1 SCK951      1 GROUP   
@<TRIPOS>SET

