#    Name: 2FAH_2_CAVITY_N1_ALL.mol2
#    Modification time : Tue Mar 11 12:06:18 2014

@<TRIPOS>MOLECULE
2FAH_2_CAVITY_N1_ALL.mol2
   90     0     5     0     0
SMALL
NO_CHARGES


@<TRIPOS>ATOM
      1 CA         -4.3780   11.3300    4.5811 C.3       4 GLY6        0.0000 
      2 CA         -4.1931   10.5784    5.8660 C.3       4 GLY6        0.0000 
      3 CA         -5.5752   10.0110    5.7329 C.3       4 GLY6        0.0000 
      4 CZ         -5.7596   17.7350    8.5267 C.ar      3 PHE5        0.0000 
      5 CZ         -5.5747   16.9834    9.8115 C.ar      3 PHE5        0.0000 
      6 CZ         -7.3266   17.9192    7.1087 C.ar      3 PHE5        0.0000 
      7 CZ         -7.1417   17.1676    8.3936 C.ar      3 PHE5        0.0000 
      8 N          -8.8936   18.1034    5.6908 N.2       1 ALA2        0.0000 
      9 N          -8.7087   17.3517    6.9756 N.2       1 ALA2        0.0000 
     10 CZ         -5.4835   13.6651    6.1061 C.ar      3 PHE5        0.0000 
     11 CZ         -5.2986   12.9134    7.3910 C.ar      3 PHE5        0.0000 
     12 CZ         -7.0505   13.8492    4.6882 C.ar      3 PHE5        0.0000 
     13 CZ         -6.8656   13.0976    5.9730 C.ar      3 PHE5        0.0000 
     14 CA         -8.4326   13.2818    4.5551 C.3       4 GLY6        0.0000 
     15 O          -8.2477   12.5302    5.8400 O.2       1 ALA2        0.0000 
     16 O          -9.6299   11.9627    5.7069 O.2       1 ALA2        0.0000 
     17 O          -0.0467   12.2808    6.2652 O.2       1 ALA2        0.0000 
     18 CA          0.1382   11.5292    7.5501 C.3       4 GLY6        0.0000 
     19 O          -1.4288   11.7133    6.1322 O.2       1 ALA2        0.0000 
     20 N          -1.2440   10.9617    7.4170 N.2       1 ALA2        0.0000 
     21 N          -1.0591   10.2101    8.7019 N.2       1 ALA2        0.0000 
     22 O          -2.8110   11.1459    5.9991 O.2       1 ALA2        0.0000 
     23 N          -2.6261   10.3943    7.2840 N.2       1 ALA2        0.0000 
     24 N          -2.4412    9.6427    8.5688 N.2       1 ALA2        0.0000 
     25 CA          0.5060   11.1133    5.5027 C.3       4 GLY6        0.0000 
     26 N          -0.8761   10.5458    5.3697 N.2       1 ALA2        0.0000 
     27 CA         -0.6912    9.7942    6.6545 C.3       4 GLY6        0.0000 
     28 N          -2.2582    9.9784    5.2366 N.2       1 ALA2        0.0000 
     29 N          -2.0734    9.2268    6.5215 N.2       1 ALA2        0.0000 
     30 N          -1.8885    8.4751    7.8063 N.2       1 ALA2        0.0000 
     31 O          -3.6404    9.4109    5.1035 O.2       1 ALA2        0.0000 
     32 N          -3.4555    8.6593    6.3884 N.2       1 ALA2        0.0000 
     33 CA         -1.7055    8.8109    4.4741 C.3       4 GLY6        0.0000 
     34 OD1        -1.5206    8.0593    5.7590 O.3       2 ASP3        0.0000 
     35 OD1        -1.3357    7.3076    7.0438 O.3       2 ASP3        0.0000 
     36 N          -2.9027    7.4918    5.6259 N.2       1 ALA2        0.0000 
     37 OD1        -2.7179    6.7402    6.9108 O.3       2 ASP3        0.0000 
     38 CZ         -5.2069   16.5675    7.7642 C.ar      3 PHE5        0.0000 
     39 CZ         -5.0220   15.8159    9.0490 C.ar      3 PHE5        0.0000 
     40 CZ         -6.9587   17.5033    5.0613 C.ar      3 PHE5        0.0000 
     41 CZ         -6.7739   16.7517    6.3462 C.ar      3 PHE5        0.0000 
     42 CZ         -6.5890   16.0001    7.6311 C.ar      3 PHE5        0.0000 
     43 N          -8.3409   16.9359    4.9283 N.2       1 ALA2        0.0000 
     44 CZ         -8.1560   16.1842    6.2131 C.ar      3 PHE5        0.0000 
     45 N          -9.7230   16.3684    4.7952 N.2       1 ALA2        0.0000 
     46 CA         -9.5381   15.6168    6.0801 C.3       4 GLY6        0.0000 
     47 O          -2.9041   15.5516    5.0874 O.2       1 ALA2        0.0000 
     48 O          -2.7192   14.8000    6.3723 O.2       1 ALA2        0.0000 
     49 DU         -2.5343   14.0483    7.6571 H         5 CUB7        0.0000 
     50 N          -2.3495   13.2967    8.9420 N.2       1 ALA2        0.0000 
     51 CZ         -4.2862   14.9841    4.9543 C.ar      3 PHE5        0.0000 
     52 O          -4.1013   14.2325    6.2392 O.2       1 ALA2        0.0000 
     53 CZ         -3.9165   13.4809    7.5241 C.ar      3 PHE5        0.0000 
     54 CZ         -3.7316   12.7293    8.8089 C.ar      3 PHE5        0.0000 
     55 CA         -3.5467   11.9777   10.0938 C.3       4 GLY6        0.0000 
     56 N           0.9675   13.2641    8.4457 N.2       1 ALA2        0.0000 
     57 O          -0.5995   13.4483    7.0277 O.2       1 ALA2        0.0000 
     58 N          -0.4146   12.6967    8.3126 N.2       1 ALA2        0.0000 
     59 O          -1.9816   12.8808    6.8946 O.2       1 ALA2        0.0000 
     60 N          -1.7967   12.1292    8.1795 N.2       1 ALA2        0.0000 
     61 O          -3.5486   13.0650    5.4767 O.2       1 ALA2        0.0000 
     62 O          -3.3637   12.3134    6.7616 O.2       1 ALA2        0.0000 
     63 DU         -3.1789   11.5618    8.0464 H         5 CUB7        0.0000 
     64 N          -2.9940   10.8102    9.3313 N.2       1 ALA2        0.0000 
     65 CZ         -4.9307   12.4976    5.3436 C.ar      3 PHE5        0.0000 
     66 CZ         -4.7459   11.7459    6.6285 C.ar      3 PHE5        0.0000 
     67 N          -4.5610   10.9943    7.9134 N.2       1 ALA2        0.0000 
     68 CZ         -6.3129   11.9301    5.2105 C.ar      3 PHE5        0.0000 
     69 CZ         -6.1280   11.1785    6.4954 C.ar      3 PHE5        0.0000 
     70 CZ         -7.8794   19.0867    7.8712 C.ar      3 PHE5        0.0000 
     71 N          -9.2615   18.5193    7.7381 N.2       1 ALA2        0.0000 
     72 N          -9.0766   17.7676    9.0230 N.2       1 ALA2        0.0000 
     73 CZ         -3.4568   16.7191    5.8499 C.ar      3 PHE5        0.0000 
     74 DU         -3.2720   15.9675    7.1348 H         5 CUB7        0.0000 
     75 DU         -3.0871   15.2159    8.4196 H         5 CUB7        0.0000 
     76 CZ         -4.8390   16.1516    5.7168 C.ar      3 PHE5        0.0000 
     77 CZ         -4.6541   15.4000    7.0017 C.ar      3 PHE5        0.0000 
     78 CZ         -4.4692   14.6484    8.2866 C.ar      3 PHE5        0.0000 
     79 CZ         -4.2844   13.8968    9.5714 C.ar      3 PHE5        0.0000 
     80 CZ         -6.2211   15.5842    5.5837 C.ar      3 PHE5        0.0000 
     81 CZ         -6.0362   14.8326    6.8686 C.ar      3 PHE5        0.0000 
     82 CZ         -7.7881   15.7683    4.1658 C.ar      3 PHE5        0.0000 
     83 CZ         -7.6032   15.0167    5.4506 C.ar      3 PHE5        0.0000 
     84 CZ         -7.4184   14.2651    6.7355 C.ar      3 PHE5        0.0000 
     85 CA         -9.1702   15.2009    4.0327 C.3       4 GLY6        0.0000 
     86 CA         -8.9854   14.4493    5.3176 C.3       4 GLY6        0.0000 
     87 O          -8.8005   13.6977    6.6024 O.2       1 ALA2        0.0000 
     88 CA         -7.6950   11.3626    5.0775 C.3       4 GLY6        0.0000 
     89 CA         -7.5101   10.6110    6.3623 C.3       4 GLY6        0.0000 
     90 O          -9.0771   10.7952    4.9444 O.2       1 ALA2        0.0000 
@<TRIPOS>BOND
@<TRIPOS>SUBSTRUCTURE
     1 ALA2        8 GROUP   
     2 ASP3       34 GROUP   
     3 PHE5        4 GROUP   
     4 GLY6        1 GROUP   
     5 CUB7       49 GROUP   
@<TRIPOS>SET

