#    Name: 2fah_GDP_2_INTS_M
#    Modification time : Tue Mar 25 12:24:42 2014

@<TRIPOS>MOLECULE
2fah_GDP_2_INTS_M
   56     0    15     0     0
SMALL
NO_CHARGES


@<TRIPOS>ATOM
      1 NZ         -1.5375    5.0930    1.7185 N.4       3 LYC4        0.0000 
      2 NZ         -0.5830    5.8280    3.3130 N.4      13 LYL4        0.0000 
      3 NZ         -2.4920    4.3580    0.1240 N.4       8 LYP4        0.0000 
      4 N          -0.1135    6.7490    2.4510 N.am      2 SEC2        0.0000 
      5 N          -0.5830    5.8280    3.3130 N.am     12 SEL2        0.0000 
      6 N           0.3560    7.6700    1.5890 N.am      7 SEP2        0.0000 
      7 NZ         -2.6015    4.5350    2.0905 N.4       3 LYC4        0.0000 
      8 NZ         -2.7110    4.7120    4.0570 N.4      13 LYL4        0.0000 
      9 N          -4.0640    4.5365    4.5720 N.am      2 SEC2        0.0000 
     10 N          -2.7110    4.7120    4.0570 N.am     12 SEL2        0.0000 
     11 N          -5.4170    4.3610    5.0870 N.am      7 SEP2        0.0000 
     12 N          -2.9345    3.9500    5.2445 N.am      2 SEC2        0.0000 
     13 N          -3.1580    3.1880    6.4320 N.am      7 SEP2        0.0000 
     14 NZ         -2.6115    5.2340    1.0860 N.4       3 LYC4        0.0000 
     15 NZ         -2.7310    6.1100    2.0480 N.4      13 LYL4        0.0000 
     16 N          -2.3455    7.7045    1.7110 N.am      2 SEC2        0.0000 
     17 N          -2.7310    6.1100    2.0480 N.am     12 SEL2        0.0000 
     18 N          -1.9600    9.2990    1.3740 N.am      7 SEP2        0.0000 
     19 N          -3.5665    7.4840    2.3000 N.am      2 SEC2        0.0000 
     20 N          -4.4020    8.8580    2.5520 N.am      7 SEP2        0.0000 
     21 N          -4.1585    6.1840    2.4440 N.am      2 SEC2        0.0000 
     22 N          -5.5860    6.2580    2.8400 N.am      7 SEP2        0.0000 
     23 N          -2.6115    5.2340    1.0860 N.am      2 SEC2        0.0000 
     24 N          -2.4920    4.3580    0.1240 N.am      7 SEP2        0.0000 
     25 N          -3.4360    8.0700    3.3770 N.am      2 SEC2        0.0000 
     26 N          -2.4700    7.2820    4.2020 N.am     12 SEL2        0.0000 
     27 N          -5.5025    6.4490    6.5825 N.am      2 SEC2        0.0000 
     28 N          -4.3600    7.0900    5.9890 N.am     12 SEL2        0.0000 
     29 N          -6.6450    5.8080    7.1760 N.am      7 SEP2        0.0000 
     30 N          -4.6775    7.5575    7.2805 N.am      2 SEC2        0.0000 
     31 N          -4.9950    8.0250    8.5720 N.am      7 SEP2        0.0000 
     32 Zn         -1.2195    5.7545    6.4685 Zn        4 ZIC7        0.0000 
     33 Zn         -2.0750    6.6430    6.6800 Zn       14 ZIL7        0.0000 
     34 Zn         -0.3640    4.8660    6.2570 Zn        9 ZIP7        0.0000 
     35 CA         -0.6540    9.2305    4.0855 C.3       5 GLC5        0.0000 
     36 CA         -1.4510    9.6660    5.6610 C.3      15 GLL5        0.0000 
     37 CA          0.1430    8.7950    2.5100 C.3      10 GLP5        0.0000 
     38 CA          0.0010    8.6740    6.6055 C.3       5 GLC5        0.0000 
     39 CA          1.4530    7.6820    7.5500 C.3      10 GLP5        0.0000 
     40 O          -0.4560   11.8830    9.4370 O.2       1 ALC1        0.0000 
     41 O          -1.0030   12.2860    8.1790 O.2      11 ALL1        0.0000 
     42 O           0.0910   11.4800   10.6950 O.2       6 ALP1        0.0000 
     43 O          -3.8760   11.0370   10.1140 O.2       1 ALC1        0.0000 
     44 O          -3.5920   11.9210    9.1320 O.2      11 ALL1        0.0000 
     45 O          -4.1600   10.1530   11.0960 O.2       6 ALP1        0.0000 
     46 N         -10.4165   12.7445    6.4720 N.am      2 SEC2        0.0000 
     47 N          -9.4200   12.7510    5.3840 N.am     12 SEL2        0.0000 
     48 N         -11.4130   12.7380    7.5600 N.am      7 SEP2        0.0000 
     49 N         -10.6545   11.9485    5.0505 N.am      2 SEC2        0.0000 
     50 N         -11.8890   11.1460    4.7170 N.am      7 SEP2        0.0000 
     51 CA          0.0937   10.1005    7.4823 C.3       5 GLC5        0.0000 
     52 CA         -1.5440   11.0950    6.2010 C.3      15 GLL5        0.0000 
     53 CA          1.8090    9.0950    8.0060 C.3      10 GLP5        0.0000 
     54 CA         -5.2225   12.0380    8.3495 C.3       5 GLC5        0.0000 
     55 CA         -3.1990   11.2400    7.9350 C.3      15 GLL5        0.0000 
     56 CA         -7.0430   12.4160    9.3660 C.3      10 GLP5        0.0000 
@<TRIPOS>BOND
@<TRIPOS>SUBSTRUCTURE
     1 ALC1       40 GROUP        1 X    ALC  0     ROOT ALC X 1
     2 SEC2        4 GROUP        1 X    SEC  0     **** SEC X 2
     3 LYC4        1 GROUP        1 X    LYC  0     **** LYC X 4
     4 ZIC7       32 GROUP        1 X    ZIC  0     **** ZIC X 5
     5 GLC5       35 GROUP        1 X    GLC  0     **** GLC X 6
     6 ALP1       42 GROUP        1 Y    ALP  0     ROOT ALP Y 8
     7 SEP2        6 GROUP        1 Y    SEP  0     **** SEP Y 9
     8 LYP4        3 GROUP        1 Y    LYP  0     **** LYP Y 11
     9 ZIP7       34 GROUP        1 Y    ZIP  0     **** ZIP Y 12
    10 GLP5       37 GROUP        1 Y    GLP  0     **** GLP Y 13
    11 ALL1       41 GROUP        1 Z    ALL  0     ROOT ALL Z 15
    12 SEL2        5 GROUP        1 Z    SEL  0     **** SEL Z 16
    13 LYL4        2 GROUP        1 Z    LYL  0     **** LYL Z 18
    14 ZIL7       33 GROUP        1 Z    ZIL  0     **** ZIL Z 19
    15 GLL5       36 GROUP        1 Z    GLL  0     **** GLL Z 20
@<TRIPOS>SET

