#    Name: 2fah_GDP_2_ligand
#    Modification time : Tue Mar 25 12:24:42 2014

@<TRIPOS>MOLECULE
2fah_GDP_2_ligand
   40    42     1     0     0
SMALL
NO_CHARGES


@<TRIPOS>ATOM
      1 PB         -2.0900    5.9340    3.4020 P.3       1 GDP3000     0.0000 
      2 O1B        -0.5830    5.8280    3.3130 O.co2     1 GDP3000     0.0000 
      3 O2B        -2.7110    4.7120    4.0570 O.co2     1 GDP3000     0.0000 
      4 O3B        -2.7310    6.1100    2.0480 O.co2     1 GDP3000     0.0000 
      5 O3A        -2.4700    7.2820    4.2020 O.3       1 GDP3000     0.0000 
      6 PA         -2.9170    7.4400    5.7510 P.3       1 GDP3000     0.0000 
      7 O1A        -4.3600    7.0900    5.9890 O.co2     1 GDP3000     0.0000 
      8 O2A        -2.0750    6.6430    6.6800 O.co2     1 GDP3000     0.0000 
      9 O5'        -2.7120    9.0240    5.8440 O.3       1 GDP3000     0.0000 
     10 C5'        -1.4510    9.6660    5.6610 C.3       1 GDP3000     0.0000 
     11 C4'        -1.5440   11.0950    6.2010 C.3       1 GDP3000     0.0000 
     12 O4'        -2.7040   11.7450    5.6710 O.3       1 GDP3000     0.0000 
     13 C3'        -1.6990   11.1170    7.7160 C.3       1 GDP3000     0.0000 
     14 O3'        -1.0030   12.2860    8.1790 O.3       1 GDP3000     0.0000 
     15 C2'        -3.1990   11.2400    7.9350 C.3       1 GDP3000     0.0000 
     16 O2'        -3.5920   11.9210    9.1320 O.3       1 GDP3000     0.0000 
     17 C1'        -3.6050   12.0800    6.7310 C.3       1 GDP3000     0.0000 
     18 N9         -5.0380   11.8970    6.3830 N.pl3     1 GDP3000     0.0000 
     19 C8         -5.6950   10.7380    6.2200 C.2       1 GDP3000     0.0000 
     20 N7         -6.9910   10.9650    5.9080 N.2       1 GDP3000     0.0000 
     21 C5         -7.1670   12.2960    5.8890 C.2       1 GDP3000     0.0000 
     22 C6         -8.2960   13.2110    5.6490 C.2       1 GDP3000     0.0000 
     23 O6         -9.4200   12.7510    5.3840 O.2       1 GDP3000     0.0000 
     24 N1         -8.0770   14.5270    5.7240 N.am      1 GDP3000     0.0000 
     25 C2         -6.8700   15.0430    6.0250 C.2       1 GDP3000     0.0000 
     26 N2         -6.7340   16.3930    6.0840 N.pl3     1 GDP3000     0.0000 
     27 N3         -5.7870   14.2560    6.2580 N.2       1 GDP3000     0.0000 
     28 C4         -5.8860   12.9060    6.2120 C.2       1 GDP3000     0.0000 
     29 H          -1.1722    9.7256    4.6070 H         1 GDP3000     0.0000 
     30 H          -0.6510    9.1567    6.2022 H         1 GDP3000     0.0000 
     31 H          -0.6531   11.6297    5.9426 H         1 GDP3000     0.0000 
     32 H          -1.3445   10.2242    8.1080 H         1 GDP3000     0.0000 
     33 H          -3.6421   10.2836    7.8116 H         1 GDP3000     0.0000 
     34 H          -3.4413   13.1312    7.0262 H         1 GDP3000     0.0000 
     35 H          -5.2956    9.8472    6.3130 H         1 GDP3000     0.0000 
     36 H          -8.8816   15.1945    5.5402 H         1 GDP3000     0.0000 
     37 H          -6.0278   16.7375    6.7025 H         1 GDP3000     0.0000 
     38 H          -7.3522   16.9233    5.5037 H         1 GDP3000     0.0000 
     39 H          -0.6234   12.0263    9.0670 H         1 GDP3000     0.0000 
     40 H          -3.7402   11.1964    9.8051 H         1 GDP3000     0.0000 
@<TRIPOS>BOND
     1    2    1 ar   
     2    3    1 ar   
     3    4    1 ar   
     4    5    1 1    
     5    6    5 1    
     6    7    6 ar   
     7    8    6 ar   
     8    9    6 1    
     9   10    9 1    
    10   11   10 1    
    11   29   10 1    
    12   30   10 1    
    13   12   11 1    
    14   13   11 1    
    15   31   11 1    
    16   17   12 1    
    17   14   13 1    
    18   15   13 1    
    19   32   13 1    
    20   39   14 1    
    21   16   15 1    
    22   17   15 1    
    23   33   15 1    
    24   40   16 1    
    25   18   17 1    
    26   34   17 1    
    27   19   18 1    
    28   28   18 1    
    29   20   19 2    
    30   35   19 1    
    31   21   20 1    
    32   22   21 1    
    33   28   21 2    
    34   23   22 2    
    35   24   22 am   
    36   25   24 1    
    37   36   24 1    
    38   26   25 1    
    39   27   25 2    
    40   37   26 1    
    41   38   26 1    
    42   28   27 1    
@<TRIPOS>SUBSTRUCTURE
     1 GDP3000     1 GROUP   
@<TRIPOS>SET

