#    Name: 2bxm_IMN_1_INTS_M
#    Modification time : Mon Mar 24 21:55:12 2014

@<TRIPOS>MOLECULE
2bxm_IMN_1_INTS_M
   56     0     9     0     0
SMALL
NO_CHARGES


@<TRIPOS>ATOM
      1 CA         29.5155   11.1840    5.4185 C.3       3 GLC5        0.0000 
      2 CA         29.7380   12.3430    7.2390 C.3       9 GLL5        0.0000 
      3 CA         29.2930   10.0250    3.5980 C.3       6 GLP5        0.0000 
      4 CA         27.9155   13.4730    7.1670 C.3       3 GLC5        0.0000 
      5 CA         26.0930   14.6030    7.0950 C.3       6 GLP5        0.0000 
      6 CA         31.1055   11.9740    6.3195 C.3       3 GLC5        0.0000 
      7 CA         32.4730   11.6050    5.4000 C.3       6 GLP5        0.0000 
      8 CA         28.7545    2.0260    9.0830 C.3       3 GLC5        0.0000 
      9 CA         27.6380    3.7810    9.1270 C.3       9 GLL5        0.0000 
     10 CA         29.8710    0.2710    9.0390 C.3       6 GLP5        0.0000 
     11 CA         28.0925    4.6930   11.7295 C.3       3 GLC5        0.0000 
     12 CA         27.3090    4.8420    9.9820 C.3       9 GLL5        0.0000 
     13 CA         28.8760    4.5440   13.4770 C.3       6 GLP5        0.0000 
     14 CA         23.6500    8.8880   11.0340 C.3       3 GLC5        0.0000 
     15 CA         25.0840    9.0080   12.6500 C.3       9 GLL5        0.0000 
     16 CA         22.2160    8.7680    9.4180 C.3       6 GLP5        0.0000 
     17 CA         27.9790   10.5870   12.4640 C.3       3 GLC5        0.0000 
     18 CA         26.6550   11.5740   11.6700 C.3       9 GLL5        0.0000 
     19 CA         29.3030    9.6000   13.2580 C.3       6 GLP5        0.0000 
     20 NZ         24.0170   13.7620   10.1325 N.4       2 LYC4        0.0000 
     21 NZ         24.6310   12.3710   10.6850 N.4       8 LYL4        0.0000 
     22 NZ         23.4030   15.1530    9.5800 N.4       5 LYP4        0.0000 
     23 NZ         24.8420   14.2215   10.6360 N.4       2 LYC4        0.0000 
     24 NZ         26.4490   13.6230   10.4190 N.4       8 LYL4        0.0000 
     25 N          25.5140   14.2910    9.7065 N.am      1 SEC2        0.0000 
     26 N          26.4490   13.6230   10.4190 N.am      7 SEL2        0.0000 
     27 N          24.5790   14.9590    8.9940 N.am      4 SEP2        0.0000 
     28 N          24.8420   14.2215   10.6360 N.am      1 SEC2        0.0000 
     29 N          23.2350   14.8200   10.8530 N.am      4 SEP2        0.0000 
     30 CA         26.6525    1.8550    9.1350 C.3       3 GLC5        0.0000 
     31 CA         27.1230    2.1200    7.0560 C.3       9 GLL5        0.0000 
     32 CA         26.1820    1.5900   11.2140 C.3       6 GLP5        0.0000 
     33 CA         28.4970    1.1955    8.0475 C.3       3 GLC5        0.0000 
     34 CA         26.0195    0.4385    6.8345 C.3       3 GLC5        0.0000 
     35 CA         24.9160   -1.2430    6.6130 C.3       6 GLP5        0.0000 
     36 CA         26.0220    1.7690    5.4625 C.3       3 GLC5        0.0000 
     37 CA         24.9210    1.4180    3.8690 C.3       6 GLP5        0.0000 
     38 CA         27.6550    3.2590    5.8230 C.3       3 GLC5        0.0000 
     39 CA         28.1870    4.3980    4.5900 C.3       6 GLP5        0.0000 
     40 CA         28.5199    9.7800   11.3229 C.3       3 GLC5        0.0000 
     41 CA         27.1520    8.5260    9.5280 C.3       9 GLL5        0.0000 
     42 CA         29.0102    9.7677    5.6842 C.3       3 GLC5        0.0000 
     43 CA         28.8310   10.1940    7.9510 C.3       9 GLL5        0.0000 
     44 CA         26.5807    7.9768    6.6830 C.3       3 GLC5        0.0000 
     45 CA         28.6240    8.8270    7.5900 C.3       9 GLL5        0.0000 
     46 CA         24.9530    7.5480    5.3900 C.3       6 GLP5        0.0000 
     47 CA         25.9175    3.4742   10.2525 C.3       3 GLC5        0.0000 
     48 CA         26.0920    5.5480    9.8130 C.3       9 GLL5        0.0000 
     49 CA         25.1650    6.0942    6.8672 C.3       3 GLC5        0.0000 
     50 CA         25.2140    5.1690    8.7690 C.3       9 GLL5        0.0000 
     51 CA         26.1615    2.6800    9.6133 C.3       3 GLC5        0.0000 
     52 CA         25.5400    4.1120    7.9200 C.3       9 GLL5        0.0000 
     53 CA         27.1640    4.0840    6.3012 C.3       3 GLC5        0.0000 
     54 CA         26.7420    3.4280    8.1050 C.3       9 GLL5        0.0000 
     55 CA         26.8278    2.9508   10.3842 C.3       3 GLC5        0.0000 
     56 CA         27.5003    9.4650   12.6024 C.3       3 GLC5        0.0000 
@<TRIPOS>BOND
@<TRIPOS>SUBSTRUCTURE
     1 SEC2       25 GROUP        1 X    SEC  0     ROOT SEC X 2
     2 LYC4       20 GROUP        1 X    LYC  0     **** LYC X 4
     3 GLC5        1 GROUP        1 X    GLC  0     **** GLC X 6
     4 SEP2       27 GROUP        1 Y    SEP  0     ROOT SEP Y 9
     5 LYP4       22 GROUP        1 Y    LYP  0     **** LYP Y 11
     6 GLP5        3 GROUP        1 Y    GLP  0     **** GLP Y 13
     7 SEL2       26 GROUP        1 Z    SEL  0     ROOT SEL Z 16
     8 LYL4       21 GROUP        1 Z    LYL  0     **** LYL Z 18
     9 GLL5        2 GROUP        1 Z    GLL  0     **** GLL Z 20
@<TRIPOS>SET

