#    Name: 2bxm_IMN_1_ligand
#    Modification time : Mon Mar 24 21:55:12 2014

@<TRIPOS>MOLECULE
2bxm_IMN_1_ligand
   40    42     1     0     0
SMALL
NO_CHARGES


@<TRIPOS>ATOM
      1 C          27.1520    8.5260    9.5280 C.ar      1 IMN2001     0.0000 
      2 C1         27.3750    9.8880    9.8630 C.ar      1 IMN2001     0.0000 
      3 C2         28.2100   10.7130    9.0800 C.ar      1 IMN2001     0.0000 
      4 C3         28.8310   10.1940    7.9510 C.ar      1 IMN2001     0.0000 
      5 C4         28.6240    8.8270    7.5900 C.ar      1 IMN2001     0.0000 
      6 C5         27.7930    7.9840    8.3620 C.ar      1 IMN2001     0.0000 
      7 C6         29.7380   12.3430    7.2390 C.3       1 IMN2001     0.0000 
      8 C7         26.6470   10.2000   11.0340 C.2       1 IMN2001     0.0000 
      9 C8         25.9750    9.1040   11.4530 C.2       1 IMN2001     0.0000 
     10 C9         25.6750    6.6670   10.6940 C.2       1 IMN2001     0.0000 
     11 C10        26.0920    5.5480    9.8130 C.ar      1 IMN2001     0.0000 
     12 C11        25.2140    5.1690    8.7690 C.ar      1 IMN2001     0.0000 
     13 C12        25.5400    4.1120    7.9200 C.ar      1 IMN2001     0.0000 
     14 C13        26.7420    3.4280    8.1050 C.ar      1 IMN2001     0.0000 
     15 C14        27.6380    3.7810    9.1270 C.ar      1 IMN2001     0.0000 
     16 C15        27.3090    4.8420    9.9820 C.ar      1 IMN2001     0.0000 
     17 C16        25.0840    9.0080   12.6500 C.3       1 IMN2001     0.0000 
     18 C17        26.6550   11.5740   11.6700 C.3       1 IMN2001     0.0000 
     19 C18        25.9050   12.6280   10.8670 C.2       1 IMN2001     0.0000 
     20 N          26.2480    8.0030   10.5430 N.am      1 IMN2001     0.0000 
     21 O          29.6680   10.9160    7.1110 O.3       1 IMN2001     0.0000 
     22 O1         24.8260    6.4620   11.5250 O.2       1 IMN2001     0.0000 
     23 O2         24.6310   12.3710   10.6850 O.co2     1 IMN2001     0.0000 
     24 O3         26.4490   13.6230   10.4190 O.co2     1 IMN2001     0.0000 
     25 CL         27.1230    2.1200    7.0560 Cl        1 IMN2001     0.0000 
     26 H          28.3515   11.6900    9.3514 H         1 IMN2001     0.0000 
     27 H          29.0904    8.4570    6.7536 H         1 IMN2001     0.0000 
     28 H          27.6460    7.0198    8.1085 H         1 IMN2001     0.0000 
     29 H          24.3334    5.6819    8.6439 H         1 IMN2001     0.0000 
     30 H          24.9029    3.8397    7.1670 H         1 IMN2001     0.0000 
     31 H          28.5117    3.2741    9.2441 H         1 IMN2001     0.0000 
     32 H          27.9479    5.1139   10.7358 H         1 IMN2001     0.0000 
     33 H          27.6994   11.9050   11.8046 H         1 IMN2001     0.0000 
     34 H          26.2090   11.5096   12.6777 H         1 IMN2001     0.0000 
     35 H          30.0478   12.6195    8.1487 H         1 IMN2001     0.0000 
     36 H          30.3726   12.7444    6.5786 H         1 IMN2001     0.0000 
     37 H          28.8479   12.7734    7.0891 H         1 IMN2001     0.0000 
     38 H          25.5752    9.2147   13.4962 H         1 IMN2001     0.0000 
     39 H          24.3161    9.6461   12.5935 H         1 IMN2001     0.0000 
     40 H          24.6968    8.0917   12.7522 H         1 IMN2001     0.0000 
@<TRIPOS>BOND
     1    2    1 ar   
     2    6    1 ar   
     3   20    1 1    
     4    3    2 ar   
     5    8    2 1    
     6    4    3 ar   
     7   26    3 1    
     8    5    4 ar   
     9   21    4 1    
    10    6    5 ar   
    11   27    5 1    
    12   28    6 1    
    13   21    7 1    
    14   35    7 1    
    15   36    7 1    
    16   37    7 1    
    17    9    8 2    
    18   18    8 1    
    19   17    9 1    
    20   20    9 1    
    21   11   10 1    
    22   20   10 am   
    23   22   10 2    
    24   12   11 ar   
    25   16   11 ar   
    26   13   12 ar   
    27   29   12 1    
    28   14   13 ar   
    29   30   13 1    
    30   15   14 ar   
    31   25   14 1    
    32   16   15 ar   
    33   31   15 1    
    34   32   16 1    
    35   38   17 1    
    36   39   17 1    
    37   40   17 1    
    38   19   18 1    
    39   33   18 1    
    40   34   18 1    
    41   23   19 ar   
    42   24   19 ar   
@<TRIPOS>SUBSTRUCTURE
     1 IMN2001     1 GROUP   
@<TRIPOS>SET

