#    Name: 2q7h_YLY_1_INTS_M
#    Modification time : Mon Mar 24 20:58:06 2014

@<TRIPOS>MOLECULE
2q7h_YLY_1_INTS_M
  102     0    12     0     0
SMALL
NO_CHARGES


@<TRIPOS>ATOM
      1 CA         14.7030   34.2875   36.8345 C.3       4 GLC5        0.0000 
      2 CA         15.8790   35.6670   35.8960 C.3      12 GLL5        0.0000 
      3 CA         13.5270   32.9080   37.7730 C.3       8 GLP5        0.0000 
      4 CA         17.5480   36.5835   34.7755 C.3       4 GLC5        0.0000 
      5 CA         19.2170   37.5000   33.6550 C.3       8 GLP5        0.0000 
      6 N          17.5410   33.9770   35.8245 N.am      2 SEC2        0.0000 
      7 N          16.6840   34.9470   35.0990 N.am     10 SEL2        0.0000 
      8 N          18.3980   33.0070   36.5500 N.am      6 SEP2        0.0000 
      9 CA         10.1940   50.3160   32.3685 C.3       4 GLC5        0.0000 
     10 CA          9.2260   50.7560   30.6160 C.3      12 GLL5        0.0000 
     11 CA         11.1620   49.8760   34.1210 C.3       8 GLP5        0.0000 
     12 CA         10.6805   51.6610   30.5620 C.3       4 GLC5        0.0000 
     13 CA         12.1350   52.5660   30.5080 C.3       8 GLP5        0.0000 
     14 CA          7.1465   53.3680   32.9990 C.3       4 GLC5        0.0000 
     15 CA          7.5550   51.7890   32.0260 C.3      12 GLL5        0.0000 
     16 CA          6.7380   54.9470   33.9720 C.3       8 GLP5        0.0000 
     17 CA          8.8370   49.9225   33.9330 C.3       4 GLC5        0.0000 
     18 CA          7.6800   50.7130   33.0900 C.3      12 GLL5        0.0000 
     19 CA          9.9940   49.1320   34.7760 C.3       8 GLP5        0.0000 
     20 CA          7.1035   51.8005   34.4670 C.3       4 GLC5        0.0000 
     21 CA          6.5270   52.8880   35.8440 C.3       8 GLP5        0.0000 
     22 CA          6.3755   49.2935   33.9310 C.3       4 GLC5        0.0000 
     23 CA          5.0710   47.8740   34.7720 C.3       8 GLP5        0.0000 
     24 CA          6.0620   48.7810   32.9700 C.3       4 GLC5        0.0000 
     25 CA          7.0530   49.6880   31.1680 C.3      12 GLL5        0.0000 
     26 N           8.9255   48.0515   28.8690 N.am      2 SEC2        0.0000 
     27 N           7.7430   48.6210   29.0840 N.am     10 SEL2        0.0000 
     28 N          10.1080   47.4820   28.6540 N.am      6 SEP2        0.0000 
     29 CA          4.7610   48.0320   31.4925 C.3       4 GLC5        0.0000 
     30 CA          6.1010   46.6870   31.5840 C.3      12 GLL5        0.0000 
     31 CA          3.4210   49.3770   31.4010 C.3       8 GLP5        0.0000 
     32 CA         11.2800   43.6820   32.7000 C.3       4 GLC5        0.0000 
     33 CA          9.3740   44.1420   33.4660 C.3      12 GLL5        0.0000 
     34 CA         13.1860   43.2220   31.9340 C.3       8 GLP5        0.0000 
     35 CA          7.7935   45.0145   34.4995 C.3       4 GLC5        0.0000 
     36 CA          6.2130   45.8870   35.5330 C.3       8 GLP5        0.0000 
     37 O           8.1720   46.5235   34.5655 O.2       1 ALC1        0.0000 
     38 O           8.9410   45.2440   34.3450 O.2       9 ALL1        0.0000 
     39 O           7.4030   47.8030   34.7860 O.2       5 ALP1        0.0000 
     40 N          11.4280   42.2060   35.9145 N.am      2 SEC2        0.0000 
     41 N          10.4520   43.0170   35.2150 N.am     10 SEL2        0.0000 
     42 N          12.4040   41.3950   36.6140 N.am      6 SEP2        0.0000 
     43 N           7.0860   39.0775   33.4910 N.am      2 SEC2        0.0000 
     44 N           8.5180   39.2390   34.0570 N.am     10 SEL2        0.0000 
     45 N           5.6540   38.9160   32.9250 N.am      6 SEP2        0.0000 
     46 NZ         11.0445   40.8220   36.3230 N.4       3 LYC4        0.0000 
     47 NZ          9.6850   40.2490   36.0320 N.4      11 LYL4        0.0000 
     48 NZ         12.6590   40.4610   37.5260 N.4       7 LYP4        0.0000 
     49 N          10.7150   39.8915   36.9260 N.am      2 SEC2        0.0000 
     50 N           9.6850   40.2490   36.0320 N.am     10 SEL2        0.0000 
     51 N          11.7450   39.5340   37.8200 N.am      6 SEP2        0.0000 
     52 N          11.0445   40.8220   36.3230 N.am      2 SEC2        0.0000 
     53 N          11.6265   40.8510   35.1660 N.am      2 SEC2        0.0000 
     54 N          10.8490   40.3070   33.7180 N.am     10 SEL2        0.0000 
     55 CA         12.2080   41.2905   32.9390 C.3       4 GLC5        0.0000 
     56 CA         10.7940   40.0680   32.3390 C.3      12 GLL5        0.0000 
     57 CA         13.6220   42.5130   33.5390 C.3       8 GLP5        0.0000 
     58 CA         10.6205   41.4385   30.6465 C.3       4 GLC5        0.0000 
     59 CA         10.4470   42.8090   28.9540 C.3       8 GLP5        0.0000 
     60 CA          9.6365   37.7575   29.9445 C.3       4 GLC5        0.0000 
     61 CA         11.0580   37.6640   31.3390 C.3      12 GLL5        0.0000 
     62 CA          8.2150   37.8510   28.5500 C.3       8 GLP5        0.0000 
     63 CA         11.6310   38.6775   29.4655 C.3       4 GLC5        0.0000 
     64 CA         12.2040   39.6910   27.5920 C.3       8 GLP5        0.0000 
     65 CA         12.7115   34.7765   31.2890 C.3       4 GLC5        0.0000 
     66 CA         12.1470   36.7000   31.7210 C.3      12 GLL5        0.0000 
     67 CA         13.2760   32.8530   30.8570 C.3       8 GLP5        0.0000 
     68 N          13.1270   37.1475   29.6035 N.am      2 SEC2        0.0000 
     69 N          12.4860   36.1320   30.5030 N.am     10 SEL2        0.0000 
     70 N          13.7680   38.1630   28.7040 N.am      6 SEP2        0.0000 
     71 CA         14.7310   38.6795   33.0720 C.3       4 GLC5        0.0000 
     72 CA         13.3170   37.5880   32.1870 C.3      12 GLL5        0.0000 
     73 CA         16.1450   39.7710   33.9570 C.3       8 GLP5        0.0000 
     74 CA         18.4870   34.4540   34.6330 C.3       4 GLC5        0.0000 
     75 CA         16.5470   34.9840   33.7800 C.3      12 GLL5        0.0000 
     76 CA         20.4270   33.9240   35.4860 C.3       8 GLP5        0.0000 
     77 CA         17.8820   36.2420   33.7175 C.3       4 GLC5        0.0000 
     78 CA         15.5370   34.1045   31.9840 C.3       4 GLC5        0.0000 
     79 CA         14.5270   33.2250   30.1880 C.3       8 GLP5        0.0000 
     80 CA         16.9685   33.2075   32.6980 C.3       4 GLC5        0.0000 
     81 CA         17.3900   31.4310   31.6160 C.3       8 GLP5        0.0000 
     82 O          15.3020   35.8115   38.5700 O.2       1 ALC1        0.0000 
     83 O          16.0330   35.6370   37.2090 O.2       9 ALL1        0.0000 
     84 O          14.5710   35.9860   39.9310 O.2       5 ALP1        0.0000 
     85 O          17.4140   35.5360   37.4480 O.2       1 ALC1        0.0000 
     86 O          18.7950   35.4350   37.6870 O.2       5 ALP1        0.0000 
     87 CA          8.7918   51.4852   28.9142 C.3       4 GLC5        0.0000 
     88 CA          9.0970   52.0980   27.1360 C.3       8 GLP5        0.0000 
     89 CA          5.6155   49.8872   30.5112 C.3       4 GLC5        0.0000 
     90 CA          7.7470   50.9890   30.7690 C.3      12 GLL5        0.0000 
     91 CA          3.8310   49.4360   30.0540 C.3       8 GLP5        0.0000 
     92 CA          6.2707   46.5685   33.2645 C.3       4 GLC5        0.0000 
     93 CA          6.2310   47.1880   35.0350 C.3       8 GLP5        0.0000 
     94 CA          4.4757   45.4825   31.8230 C.3       4 GLC5        0.0000 
     95 CA          2.6410   45.0160   32.1520 C.3       8 GLP5        0.0000 
     96 CA          7.3035   44.6658   29.3455 C.3       4 GLC5        0.0000 
     97 CA          6.5200   45.2110   31.4040 C.3      12 GLL5        0.0000 
     98 CA          7.3090   44.1780   27.2690 C.3       8 GLP5        0.0000 
     99 CA          9.3693   43.6427   30.3942 C.3       4 GLC5        0.0000 
    100 CA          8.0760   45.0960   31.4400 C.3      12 GLL5        0.0000 
    101 CA         13.9195   37.4250   30.5235 C.3       4 GLC5        0.0000 
    102 CA         15.1070   37.7060   29.0930 C.3       8 GLP5        0.0000 
@<TRIPOS>BOND
@<TRIPOS>SUBSTRUCTURE
     1 ALC1       37 GROUP        1 X    ALC  0     ROOT ALC X 1
     2 SEC2        6 GROUP        1 X    SEC  0     **** SEC X 2
     3 LYC4       46 GROUP        1 X    LYC  0     **** LYC X 4
     4 GLC5        1 GROUP        1 X    GLC  0     **** GLC X 6
     5 ALP1       39 GROUP        1 Y    ALP  0     ROOT ALP Y 8
     6 SEP2        8 GROUP        1 Y    SEP  0     **** SEP Y 9
     7 LYP4       48 GROUP        1 Y    LYP  0     **** LYP Y 11
     8 GLP5        3 GROUP        1 Y    GLP  0     **** GLP Y 13
     9 ALL1       38 GROUP        1 Z    ALL  0     ROOT ALL Z 15
    10 SEL2        7 GROUP        1 Z    SEL  0     **** SEL Z 16
    11 LYL4       47 GROUP        1 Z    LYL  0     **** LYL Z 18
    12 GLL5        2 GROUP        1 Z    GLL  0     **** GLL Z 20
@<TRIPOS>SET

