#    Name: 2q7h_YLY_1_ligand
#    Modification time : Mon Mar 24 20:58:06 2014

@<TRIPOS>MOLECULE
2q7h_YLY_1_ligand
   74    77     1     0     0
SMALL
NO_CHARGES


@<TRIPOS>ATOM
      1 C4         14.7780   36.4730   33.9100 C.ar      1 YLY900      0.0000 
      2 C5         14.8800   36.4610   35.2980 C.ar      1 YLY900      0.0000 
      3 C6         15.8790   35.6670   35.8960 C.ar      1 YLY900      0.0000 
      4 C8         13.2600   37.7810   34.7320 C.2       1 YLY900      0.0000 
      5 N1         16.6840   34.9470   35.0990 N.ar      1 YLY900      0.0000 
      6 N3         15.6150   35.7250   33.1800 N.ar      1 YLY900      0.0000 
      7 CAA         9.2260   50.7560   30.6160 C.3       1 YLY900      0.0000 
      8 CBF         7.7470   50.9890   30.7690 C.3       1 YLY900      0.0000 
      9 CAP         7.5550   51.7890   32.0260 C.3       1 YLY900      0.0000 
     10 CAJ         7.6800   50.7130   33.0900 C.3       1 YLY900      0.0000 
     11 NAS         7.4100   49.5010   32.5800 N.4       1 YLY900      0.0000 
     12 CBK         7.0530   49.6880   31.1680 C.3       1 YLY900      0.0000 
     13 CBA         7.2500   48.4870   30.2010 C.2       1 YLY900      0.0000 
     14 OAD         7.7430   48.6210   29.0840 O.2       1 YLY900      0.0000 
     15 NAW         6.7390   47.3050   30.4600 N.am      1 YLY900      0.0000 
     16 CAO         6.1010   46.6870   31.5840 C.3       1 YLY900      0.0000 
     17 CAM         6.5200   45.2110   31.4040 C.3       1 YLY900      0.0000 
     18 CAN         8.0760   45.0960   31.4400 C.3       1 YLY900      0.0000 
     19 CB          8.5070   43.8570   32.2290 C.3       1 YLY900      0.0000 
     20 CA          9.3740   44.1420   33.4660 C.3       1 YLY900      0.0000 
     21 N           8.9410   45.2440   34.3450 N.4       1 YLY900      0.0000 
     22 C           9.6200   42.8900   34.3300 C.2       1 YLY900      0.0000 
     23 O          10.4520   43.0170   35.2150 O.2       1 YLY900      0.0000 
     24 OAY         8.8960   41.7450   34.0400 O.3       1 YLY900      0.0000 
     25 PBN         9.5060   40.2950   34.5730 P.3       1 YLY900      0.0000 
     26 OAI         8.5180   39.2390   34.0570 O.co2     1 YLY900      0.0000 
     27 OAF         9.6850   40.2490   36.0320 O.co2     1 YLY900      0.0000 
     28 O5'        10.8490   40.3070   33.7180 O.3       1 YLY900      0.0000 
     29 C5'        10.7940   40.0680   32.3390 C.3       1 YLY900      0.0000 
     30 C4'        11.4260   38.7260   32.3180 C.3       1 YLY900      0.0000 
     31 O4'        12.8440   38.9150   32.0940 O.3       1 YLY900      0.0000 
     32 C3'        11.0580   37.6640   31.3390 C.3       1 YLY900      0.0000 
     33 O3'         9.8220   37.0570   31.6260 O.3       1 YLY900      0.0000 
     34 C2'        12.1470   36.7000   31.7210 C.3       1 YLY900      0.0000 
     35 O2'        12.4860   36.1320   30.5030 O.3       1 YLY900      0.0000 
     36 C1'        13.3170   37.5880   32.1870 C.3       1 YLY900      0.0000 
     37 N9         13.7680   37.2950   33.5920 N.pl3     1 YLY900      0.0000 
     38 N7         13.9340   37.2730   35.7620 N.2       1 YLY900      0.0000 
     39 C2         16.5470   34.9840   33.7800 C.ar      1 YLY900      0.0000 
     40 N6         16.0330   35.6370   37.2090 N.pl3     1 YLY900      0.0000 
     41 H          12.5145   38.4075   34.7933 H         1 YLY900      0.0000 
     42 H           7.3032   51.4221   29.9780 H         1 YLY900      0.0000 
     43 H           6.5863   52.2071   32.0527 H         1 YLY900      0.0000 
     44 H           8.3329   52.4935   32.1372 H         1 YLY900      0.0000 
     45 H           6.9976   51.0086   33.9188 H         1 YLY900      0.0000 
     46 H           8.7086   50.8005   33.5074 H         1 YLY900      0.0000 
     47 H           5.9462   49.9461   31.1515 H         1 YLY900      0.0000 
     48 H           6.8024   46.5562   29.5922 H         1 YLY900      0.0000 
     49 H           5.0416   46.7364   31.5312 H         1 YLY900      0.0000 
     50 H           6.4882   47.0275   32.5123 H         1 YLY900      0.0000 
     51 H           6.1660   44.8503   30.4509 H         1 YLY900      0.0000 
     52 H           6.1083   44.6198   32.2069 H         1 YLY900      0.0000 
     53 H           8.4767   45.9869   31.9099 H         1 YLY900      0.0000 
     54 H           8.4402   45.0262   30.4214 H         1 YLY900      0.0000 
     55 H           9.0647   43.1801   31.5553 H         1 YLY900      0.0000 
     56 H           7.6038   43.3056   32.5504 H         1 YLY900      0.0000 
     57 H          10.4057   44.4167   33.0754 H         1 YLY900      0.0000 
     58 H          11.3914   40.7458   31.7804 H         1 YLY900      0.0000 
     59 H           9.7991   39.9929   31.9744 H         1 YLY900      0.0000 
     60 H          11.3542   38.2781   33.3422 H         1 YLY900      0.0000 
     61 H          11.2189   37.9844   30.3797 H         1 YLY900      0.0000 
     62 H          11.8429   36.0723   32.4497 H         1 YLY900      0.0000 
     63 H          14.1356   37.4289   31.5002 H         1 YLY900      0.0000 
     64 H          17.2031   34.4024   33.1766 H         1 YLY900      0.0000 
     65 H          15.2419   35.3298   37.7379 H         1 YLY900      0.0000 
     66 H          16.9266   35.9242   37.5539 H         1 YLY900      0.0000 
     67 H           9.7318   51.6156   30.5434 H         1 YLY900      0.0000 
     68 H           9.6059   50.2572   31.3950 H         1 YLY900      0.0000 
     69 H           9.4351   50.2227   29.7963 H         1 YLY900      0.0000 
     70 H           9.7161   45.6834   34.7989 H         1 YLY900      0.0000 
     71 H           8.4568   45.9562   33.8367 H         1 YLY900      0.0000 
     72 H           8.3229   44.9251   35.0635 H         1 YLY900      0.0000 
     73 H           9.3906   37.6552   32.3013 H         1 YLY900      0.0000 
     74 H          13.4840   36.0697   30.5154 H         1 YLY900      0.0000 
@<TRIPOS>BOND
     1    2    1 ar   
     2    6    1 ar   
     3   37    1 1    
     4    3    2 ar   
     5   38    2 1    
     6    5    3 ar   
     7   40    3 1    
     8   37    4 1    
     9   38    4 2    
    10   41    4 1    
    11   39    5 ar   
    12   39    6 ar   
    13    8    7 1    
    14   67    7 1    
    15   68    7 1    
    16   69    7 1    
    17    9    8 1    
    18   12    8 1    
    19   42    8 1    
    20   10    9 1    
    21   43    9 1    
    22   44    9 1    
    23   11   10 1    
    24   45   10 1    
    25   46   10 1    
    26   12   11 1    
    27   13   12 1    
    28   47   12 1    
    29   14   13 2    
    30   15   13 am   
    31   16   15 1    
    32   48   15 1    
    33   17   16 1    
    34   49   16 1    
    35   50   16 1    
    36   18   17 1    
    37   51   17 1    
    38   52   17 1    
    39   19   18 1    
    40   53   18 1    
    41   54   18 1    
    42   20   19 1    
    43   55   19 1    
    44   56   19 1    
    45   21   20 1    
    46   22   20 1    
    47   57   20 1    
    48   70   21 1    
    49   71   21 1    
    50   72   21 1    
    51   23   22 2    
    52   24   22 1    
    53   25   24 1    
    54   26   25 ar   
    55   27   25 ar   
    56   28   25 1    
    57   29   28 1    
    58   30   29 1    
    59   58   29 1    
    60   59   29 1    
    61   31   30 1    
    62   32   30 1    
    63   60   30 1    
    64   36   31 1    
    65   33   32 1    
    66   34   32 1    
    67   61   32 1    
    68   73   33 1    
    69   35   34 1    
    70   36   34 1    
    71   62   34 1    
    72   74   35 1    
    73   37   36 1    
    74   63   36 1    
    75   64   39 1    
    76   65   40 1    
    77   66   40 1    
@<TRIPOS>SUBSTRUCTURE
     1 YLY900      1 GROUP   
@<TRIPOS>SET

