#    Name: 1q1k_PRT_1_INTS_M
#    Modification time : Mon Mar 24 22:42:19 2014

@<TRIPOS>MOLECULE
1q1k_PRT_1_INTS_M
   60     0    12     0     0
SMALL
NO_CHARGES


@<TRIPOS>ATOM
      1 NZ         41.8135   36.4980   40.2465 N.4       3 LYC4        0.0000 
      2 NZ         41.7840   37.6650   41.7190 N.4      11 LYL4        0.0000 
      3 NZ         41.8430   35.3310   38.7740 N.4       7 LYP4        0.0000 
      4 N          41.7335   36.9650   42.9425 N.am      2 SEC2        0.0000 
      5 N          41.7840   37.6650   41.7190 N.am     10 SEL2        0.0000 
      6 N          41.6830   36.2650   44.1660 N.am      6 SEP2        0.0000 
      7 N          42.7225   37.2510   43.5260 N.am      2 SEC2        0.0000 
      8 N          43.7620   38.2370   42.8860 N.am     10 SEL2        0.0000 
      9 N          39.0235   38.9475   43.2435 N.am      2 SEC2        0.0000 
     10 N          39.4890   40.2720   43.1510 N.am     10 SEL2        0.0000 
     11 N          38.5580   37.6230   43.3360 N.am      6 SEP2        0.0000 
     12 CA         40.6450   41.1650   48.0100 C.3       4 GLC5        0.0000 
     13 CA         41.9990   42.7340   48.1020 C.3      12 GLL5        0.0000 
     14 CA         39.2910   39.5960   47.9180 C.3       8 GLP5        0.0000 
     15 N          41.4005   41.6660   50.4850 N.am      2 SEC2        0.0000 
     16 N          43.0630   41.2120   50.2310 N.am     10 SEL2        0.0000 
     17 N          39.7380   42.1200   50.7390 N.am      6 SEP2        0.0000 
     18 CA         46.6410   41.1295   48.5880 C.3       4 GLC5        0.0000 
     19 CA         45.1070   42.2420   49.3000 C.3      12 GLL5        0.0000 
     20 CA         48.1750   40.0170   47.8760 C.3       8 GLP5        0.0000 
     21 CA         46.9590   42.7220   47.4440 C.3       4 GLC5        0.0000 
     22 CA         45.1510   43.0230   48.1590 C.3      12 GLL5        0.0000 
     23 CA         48.7670   42.4210   46.7290 C.3       8 GLP5        0.0000 
     24 CA         43.7000   44.3040   47.5210 C.3       4 GLC5        0.0000 
     25 CA         42.2490   45.5850   46.8830 C.3       8 GLP5        0.0000 
     26 CA         44.0365   45.1670   46.8560 C.3       4 GLC5        0.0000 
     27 CA         45.8240   44.7490   46.8290 C.3      12 GLL5        0.0000 
     28 CA         44.7270   47.0215   46.8045 C.3       4 GLC5        0.0000 
     29 CA         46.4430   46.0750   47.1050 C.3      12 GLL5        0.0000 
     30 CA         43.0110   47.9680   46.5040 C.3       8 GLP5        0.0000 
     31 O          45.1660   51.0540   41.2790 O.2       1 ALC1        0.0000 
     32 O          45.5340   49.8180   41.4590 O.2       9 ALL1        0.0000 
     33 O          44.7980   52.2900   41.0990 O.2       5 ALP1        0.0000 
     34 CA         47.9445   51.9685   42.2030 C.3       4 GLC5        0.0000 
     35 CA         47.7390   50.4730   43.4610 C.3      12 GLL5        0.0000 
     36 CA         48.1500   53.4640   40.9450 C.3       8 GLP5        0.0000 
     37 N          50.7775   51.7750   47.0825 N.am      2 SEC2        0.0000 
     38 N          50.8920   51.1970   45.4360 N.am     10 SEL2        0.0000 
     39 N          50.6630   52.3530   48.7290 N.am      6 SEP2        0.0000 
     40 N          51.7120   52.3280   45.8945 N.am      2 SEC2        0.0000 
     41 N          52.5320   53.4590   46.3530 N.am      6 SEP2        0.0000 
     42 N          49.8465   53.6490   42.9250 N.am      2 SEC2        0.0000 
     43 N          49.8000   52.5080   43.7070 N.am     10 SEL2        0.0000 
     44 N          49.8930   54.7900   42.1430 N.am      6 SEP2        0.0000 
     45 N          49.3810   52.4045   42.4010 N.am      2 SEC2        0.0000 
     46 N          48.9620   52.3010   41.0950 N.am      6 SEP2        0.0000 
     47 N          48.2835   51.8460   47.3675 N.am      2 SEC2        0.0000 
     48 N          48.8550   52.3790   46.1140 N.am     10 SEL2        0.0000 
     49 N          47.7120   51.3130   48.6210 N.am      6 SEP2        0.0000 
     50 N          49.3905   53.5060   46.7360 N.am      2 SEC2        0.0000 
     51 N          49.9260   54.6330   47.3580 N.am      6 SEP2        0.0000 
     52 CA         43.0418   43.7805   49.6740 C.3       4 GLC5        0.0000 
     53 CA         43.3180   42.0180   48.1680 C.3      12 GLL5        0.0000 
     54 CA         43.4250   45.1850   51.2130 C.3       8 GLP5        0.0000 
     55 CA         42.4537   43.9805   47.5090 C.3       4 GLC5        0.0000 
     56 CA         44.1144   43.8430   49.9765 C.3       4 GLC5        0.0000 
     57 CA         43.8060   41.7160   49.3420 C.3      12 GLL5        0.0000 
     58 CA         47.4503   43.9165   46.8480 C.3       4 GLC5        0.0000 
     59 CA         44.3615   47.9215   44.9265 C.3       4 GLC5        0.0000 
     60 CA         46.1630   47.5210   43.6960 C.3      12 GLL5        0.0000 
@<TRIPOS>BOND
@<TRIPOS>SUBSTRUCTURE
     1 ALC1       31 GROUP        1 X    ALC  0     ROOT ALC X 1
     2 SEC2        4 GROUP        1 X    SEC  0     **** SEC X 2
     3 LYC4        1 GROUP        1 X    LYC  0     **** LYC X 4
     4 GLC5       12 GROUP        1 X    GLC  0     **** GLC X 6
     5 ALP1       33 GROUP        1 Y    ALP  0     ROOT ALP Y 8
     6 SEP2        6 GROUP        1 Y    SEP  0     **** SEP Y 9
     7 LYP4        3 GROUP        1 Y    LYP  0     **** LYP Y 11
     8 GLP5       14 GROUP        1 Y    GLP  0     **** GLP Y 13
     9 ALL1       32 GROUP        1 Z    ALL  0     ROOT ALL Z 15
    10 SEL2        5 GROUP        1 Z    SEL  0     **** SEL Z 16
    11 LYL4        2 GROUP        1 Z    LYL  0     **** LYL Z 18
    12 GLL5       13 GROUP        1 Z    GLL  0     **** GLL Z 20
@<TRIPOS>SET

