#    Name: 1q1k_PRT_1_ligand
#    Modification time : Mon Mar 24 22:42:19 2014

@<TRIPOS>MOLECULE
1q1k_PRT_1_ligand
   62    65     1     0     0
SMALL
NO_CHARGES


@<TRIPOS>ATOM
      1 O1G        41.7840   37.6650   41.7190 O.co2     1 PRT500      0.0000 
      2 PG         42.8280   38.7600   41.8320 P.3       1 PRT500      0.0000 
      3 O2G        43.7620   38.2370   42.8860 O.co2     1 PRT500      0.0000 
      4 O3G        43.4800   39.4630   40.6610 O.co2     1 PRT500      0.0000 
      5 O3B        41.9490   39.9580   42.4630 O.3       1 PRT500      0.0000 
      6 PB         40.8480   39.7780   43.6440 P.3       1 PRT500      0.0000 
      7 O1B        39.4890   40.2720   43.1510 O.co2     1 PRT500      0.0000 
      8 O2B        40.9450   38.3400   44.0960 O.co2     1 PRT500      0.0000 
      9 O3A        41.4670   40.8020   44.7860 O.3       1 PRT500      0.0000 
     10 PA         41.0560   40.9690   46.3740 P.3       1 PRT500      0.0000 
     11 O1A        41.8750   40.0210   47.2600 O.co2     1 PRT500      0.0000 
     12 O2A        39.5300   40.9950   46.4190 O.co2     1 PRT500      0.0000 
     13 O5'        41.4710   42.4860   46.7670 O.3       1 PRT500      0.0000 
     14 C5'        41.9990   42.7340   48.1020 C.3       1 PRT500      0.0000 
     15 C4'        43.3180   42.0180   48.1680 C.3       1 PRT500      0.0000 
     16 O4'        44.3490   42.2860   47.1810 O.3       1 PRT500      0.0000 
     17 C3'        43.8060   41.7160   49.3420 C.3       1 PRT500      0.0000 
     18 O3'        43.0630   41.2120   50.2310 O.3       1 PRT500      0.0000 
     19 C2'        45.1070   42.2420   49.3000 C.3       1 PRT500      0.0000 
     20 O2'        46.1360   41.7370   49.8270 O.3       1 PRT500      0.0000 
     21 C1'        45.1510   43.0230   48.1590 C.3       1 PRT500      0.0000 
     22 N9         45.8780   44.1020   48.0110 N.pl3     1 PRT500      0.0000 
     23 C8         46.4570   44.9040   48.9500 C.2       1 PRT500      0.0000 
     24 C4         45.8240   44.7490   46.8290 C.2       1 PRT500      0.0000 
     25 C5         46.4430   46.0750   47.1050 C.2       1 PRT500      0.0000 
     26 N7         46.8010   46.1100   48.4100 N.2       1 PRT500      0.0000 
     27 C6         46.5280   47.0180   45.9560 C.2       1 PRT500      0.0000 
     28 N6         47.0930   48.2400   46.1680 N.2       1 PRT500      0.0000 
     29 N3         45.3690   44.4700   45.5800 N.2       1 PRT500      0.0000 
     30 C2         45.4790   45.3870   44.5740 C.2       1 PRT500      0.0000 
     31 N1         46.0250   46.6340   44.7470 N.pl3     1 PRT500      0.0000 
     32 C11        46.1630   47.5210   43.6960 C.3       1 PRT500      0.0000 
     33 C12        45.2610   48.2290   43.0020 C.3       1 PRT500      0.0000 
     34 O12        44.2940   47.7490   42.4390 O.3       1 PRT500      0.0000 
     35 C13        45.8440   49.3260   42.5350 C.3       1 PRT500      0.0000 
     36 O13        45.5340   49.8180   41.4590 O.3       1 PRT500      0.0000 
     37 O14        47.4880   48.0500   43.4130 O.3       1 PRT500      0.0000 
     38 C14        47.0780   49.3820   43.0350 C.3       1 PRT500      0.0000 
     39 C15        47.7390   50.4730   43.4610 C.3       1 PRT500      0.0000 
     40 O15        48.7370   50.3840   44.5270 O.3       1 PRT500      0.0000 
     41 P          49.5650   51.7040   44.9590 P.3       1 PRT500      0.0000 
     42 O3P        50.8920   51.1970   45.4360 O.co2     1 PRT500      0.0000 
     43 O1P        49.8000   52.5080   43.7070 O.co2     1 PRT500      0.0000 
     44 O2P        48.8550   52.3790   46.1140 O.co2     1 PRT500      0.0000 
     45 H          41.3403   42.3353   48.8599 H         1 PRT500      0.0000 
     46 H          42.1596   43.7898   48.2657 H         1 PRT500      0.0000 
     47 H          42.9425   40.8800   47.7524 H         1 PRT500      0.0000 
     48 H          44.2671   40.4890   48.8307 H         1 PRT500      0.0000 
     49 H          44.8590   43.2434   50.1181 H         1 PRT500      0.0000 
     50 H          43.9859   43.7033   48.5855 H         1 PRT500      0.0000 
     51 H          46.6053   44.6515   49.8798 H         1 PRT500      0.0000 
     52 H          45.1260   45.1252   43.6109 H         1 PRT500      0.0000 
     53 H          46.3170   46.5581   42.7236 H         1 PRT500      0.0000 
     54 H          44.6931   48.8006   44.0372 H         1 PRT500      0.0000 
     55 H          45.2978   50.1601   43.3737 H         1 PRT500      0.0000 
     56 H          47.6926   49.2819   41.8218 H         1 PRT500      0.0000 
     57 H          46.9953   51.3074   43.7800 H         1 PRT500      0.0000 
     58 H          48.2586   51.0134   42.5727 H         1 PRT500      0.0000 
     59 H          42.1951   41.7023   50.1512 H         1 PRT500      0.0000 
     60 H          46.8855   41.9721   49.2082 H         1 PRT500      0.0000 
     61 H          43.5119   48.2731   42.7761 H         1 PRT500      0.0000 
     62 H          45.2982   50.7673   41.6669 H         1 PRT500      0.0000 
@<TRIPOS>BOND
     1    2    1 ar   
     2    3    2 ar   
     3    4    2 ar   
     4    5    2 1    
     5    6    5 1    
     6    7    6 ar   
     7    8    6 ar   
     8    9    6 1    
     9   10    9 1    
    10   11   10 ar   
    11   12   10 ar   
    12   13   10 1    
    13   14   13 1    
    14   15   14 1    
    15   45   14 1    
    16   46   14 1    
    17   16   15 1    
    18   17   15 1    
    19   47   15 1    
    20   21   16 1    
    21   18   17 1    
    22   19   17 1    
    23   48   17 1    
    24   59   18 1    
    25   20   19 1    
    26   21   19 1    
    27   49   19 1    
    28   60   20 1    
    29   22   21 1    
    30   50   21 1    
    31   23   22 1    
    32   24   22 1    
    33   26   23 2    
    34   51   23 1    
    35   25   24 2    
    36   29   24 1    
    37   26   25 1    
    38   27   25 1    
    39   28   27 2    
    40   31   27 1    
    41   30   29 2    
    42   31   30 1    
    43   52   30 1    
    44   32   31 1    
    45   33   32 1    
    46   37   32 1    
    47   53   32 1    
    48   34   33 1    
    49   35   33 1    
    50   54   33 1    
    51   61   34 1    
    52   36   35 1    
    53   38   35 1    
    54   55   35 1    
    55   62   36 1    
    56   38   37 1    
    57   39   38 1    
    58   56   38 1    
    59   40   39 1    
    60   57   39 1    
    61   58   39 1    
    62   41   40 1    
    63   42   41 ar   
    64   43   41 ar   
    65   44   41 ar   
@<TRIPOS>SUBSTRUCTURE
     1 PRT500      1 GROUP   
@<TRIPOS>SET

