#    Name: 3jvv_ACP_2_INTS_M
#    Modification time : Tue Mar 25 17:59:43 2014

@<TRIPOS>MOLECULE
3jvv_ACP_2_INTS_M
   52     0    12     0     0
SMALL
NO_CHARGES


@<TRIPOS>ATOM
      1 NZ        -50.0280   23.3065   13.6750 N.4       2 LYC4        0.0000 
      2 NZ        -49.2300   24.8090   12.9340 N.4      10 LYL4        0.0000 
      3 NZ        -50.8260   21.8040   14.4160 N.4       6 LYP4        0.0000 
      4 N         -48.4415   23.9275   12.2240 N.am      1 SEC2        0.0000 
      5 N         -49.2300   24.8090   12.9340 N.am      9 SEL2        0.0000 
      6 N         -47.6530   23.0460   11.5140 N.am      5 SEP2        0.0000 
      7 NZ        -51.2260   23.4900   14.0170 N.4       2 LYC4        0.0000 
      8 NZ        -51.6260   25.1760   13.6180 N.4      10 LYL4        0.0000 
      9 NZ        -50.0915   28.2855   12.1655 N.4       2 LYC4        0.0000 
     10 NZ        -50.0680   27.1270   13.1990 N.4      10 LYL4        0.0000 
     11 NZ        -50.4800   30.4250   11.9560 N.4       6 LYP4        0.0000 
     12 N         -50.0915   28.2855   12.1655 N.am      1 SEC2        0.0000 
     13 N         -50.0680   27.1270   13.1990 N.am      9 SEL2        0.0000 
     14 N         -50.1150   29.4440   11.1320 N.am      5 SEP2        0.0000 
     15 Zn        -52.9800   25.2375   11.0940 Zn        3 ZIC7        0.0000 
     16 Zn        -53.0580   23.9150   10.7150 Zn       11 ZIL7        0.0000 
     17 Zn        -52.9020   26.5600   11.4730 Zn        7 ZIP7        0.0000 
     18 N         -54.3520   23.7075   10.5825 N.am      1 SEC2        0.0000 
     19 N         -53.0580   23.9150   10.7150 N.am      9 SEL2        0.0000 
     20 N         -55.6460   23.5000   10.4500 N.am      5 SEP2        0.0000 
     21 NZ        -50.8225   22.3775   12.9630 N.4       2 LYC4        0.0000 
     22 NZ        -50.8190   22.9510   11.5100 N.4      10 LYL4        0.0000 
     23 N         -51.0515   21.8735   10.2435 N.am      1 SEC2        0.0000 
     24 N         -50.8190   22.9510   11.5100 N.am      9 SEL2        0.0000 
     25 N         -51.2840   20.7960    8.9770 N.am      5 SEP2        0.0000 
     26 N         -50.8225   22.3775   12.9630 N.am      1 SEC2        0.0000 
     27 N         -50.8260   21.8040   14.4160 N.am      5 SEP2        0.0000 
     28 N         -54.8700   23.9415    7.8665 N.am      1 SEC2        0.0000 
     29 N         -53.3440   24.0290    8.0080 N.am      9 SEL2        0.0000 
     30 N         -56.3960   23.8540    7.7250 N.am      5 SEP2        0.0000 
     31 N         -53.9950   24.0145    6.7640 N.am      1 SEC2        0.0000 
     32 N         -54.6460   24.0000    5.5200 N.am      5 SEP2        0.0000 
     33 N         -51.2250   22.2830    9.0855 N.am      1 SEC2        0.0000 
     34 N         -51.1660   23.7700    9.1940 N.am      9 SEL2        0.0000 
     35 N         -48.1075   22.7180    4.4275 N.am      1 SEC2        0.0000 
     36 N         -49.6190   23.3200    4.7590 N.am      9 SEL2        0.0000 
     37 N         -46.5960   22.1160    4.0960 N.am      5 SEP2        0.0000 
     38 CA        -49.6785   21.6810    4.4480 C.3       4 GLC5        0.0000 
     39 CA        -50.3720   23.3880    3.5630 C.3      12 GLL5        0.0000 
     40 CA        -48.9850   19.9740    5.3330 C.3       8 GLP5        0.0000 
     41 CA        -54.6640   19.7495    1.7125 C.3       4 GLC5        0.0000 
     42 CA        -52.7570   19.1900    2.3930 C.3      12 GLL5        0.0000 
     43 CA        -56.5710   20.3090    1.0320 C.3       8 GLP5        0.0000 
     44 CA        -53.0445   17.3515    3.5790 C.3       4 GLC5        0.0000 
     45 CA        -53.3320   15.5130    4.7650 C.3       8 GLP5        0.0000 
     46 CA        -50.7465   18.8815    2.9790 C.3       4 GLC5        0.0000 
     47 CA        -50.9750   19.8030    0.9630 C.3      12 GLL5        0.0000 
     48 CA        -50.5180   17.9600    4.9950 C.3       8 GLP5        0.0000 
     49 CA        -50.1825   20.6185    4.0375 C.3       4 GLC5        0.0000 
     50 CA        -51.3800   21.2630    2.7420 C.3      12 GLL5        0.0000 
     51 CA        -51.5693   18.8780    3.8927 C.3       4 GLC5        0.0000 
     52 CA        -52.4840   20.4020    3.1880 C.3      12 GLL5        0.0000 
@<TRIPOS>BOND
@<TRIPOS>SUBSTRUCTURE
     1 SEC2        4 GROUP        1 X    SEC  0     ROOT SEC X 2
     2 LYC4        1 GROUP        1 X    LYC  0     **** LYC X 4
     3 ZIC7       15 GROUP        1 X    ZIC  0     **** ZIC X 5
     4 GLC5       38 GROUP        1 X    GLC  0     **** GLC X 6
     5 SEP2        6 GROUP        1 Y    SEP  0     ROOT SEP Y 9
     6 LYP4        3 GROUP        1 Y    LYP  0     **** LYP Y 11
     7 ZIP7       17 GROUP        1 Y    ZIP  0     **** ZIP Y 12
     8 GLP5       40 GROUP        1 Y    GLP  0     **** GLP Y 13
     9 SEL2        5 GROUP        1 Z    SEL  0     ROOT SEL Z 16
    10 LYL4        2 GROUP        1 Z    LYL  0     **** LYL Z 18
    11 ZIL7       16 GROUP        1 Z    ZIL  0     **** ZIL Z 19
    12 GLL5       39 GROUP        1 Z    GLL  0     **** GLL Z 20
@<TRIPOS>SET

