#    Name: 3jvv_ACP_2_ligand
#    Modification time : Tue Mar 25 17:59:43 2014

@<TRIPOS>MOLECULE
3jvv_ACP_2_ligand
   45    47     1     0     0
SMALL
NO_CHARGES


@<TRIPOS>ATOM
      1 PG        -50.4270   25.7040   12.8800 P.3       1 ACP400      0.0000 
      2 O1G       -49.2300   24.8090   12.9340 O.co2     1 ACP400      0.0000 
      3 O2G       -51.6260   25.1760   13.6180 O.co2     1 ACP400      0.0000 
      4 O3G       -50.0680   27.1270   13.1990 O.co2     1 ACP400      0.0000 
      5 PB        -51.5620   23.9950   10.7210 P.3       1 ACP400      0.0000 
      6 O1B       -53.0580   23.9150   10.7150 O.co2     1 ACP400      0.0000 
      7 O2B       -50.8190   22.9510   11.5100 O.co2     1 ACP400      0.0000 
      8 C3B       -51.0260   25.6710   11.1580 C.3       1 ACP400      0.0000 
      9 PA        -51.9810   24.6450    8.1020 P.3       1 ACP400      0.0000 
     10 O1A       -51.7990   26.1000    8.5030 O.co2     1 ACP400      0.0000 
     11 O2A       -53.3440   24.0290    8.0080 O.co2     1 ACP400      0.0000 
     12 O3A       -51.1660   23.7700    9.1940 O.3       1 ACP400      0.0000 
     13 O5'       -51.1770   24.3520    6.7260 O.3       1 ACP400      0.0000 
     14 C5'       -49.8170   24.7920    6.6140 C.3       1 ACP400      0.0000 
     15 C4'       -49.3290   24.6370    5.1900 C.3       1 ACP400      0.0000 
     16 O4'       -49.6190   23.3200    4.7590 O.3       1 ACP400      0.0000 
     17 C3'       -50.0460   25.6030    4.2630 C.3       1 ACP400      0.0000 
     18 O3'       -49.1090   26.0040    3.2750 O.3       1 ACP400      0.0000 
     19 C2'       -51.1150   24.7150    3.6330 C.3       1 ACP400      0.0000 
     20 O2'       -51.5010   25.1530    2.3180 O.3       1 ACP400      0.0000 
     21 C1'       -50.3720   23.3880    3.5630 C.3       1 ACP400      0.0000 
     22 N9        -51.3280   22.2670    3.6060 N.pl3     1 ACP400      0.0000 
     23 C8        -52.2870   22.0910    4.5290 C.2       1 ACP400      0.0000 
     24 N7        -53.0050   20.9650    4.2910 N.2       1 ACP400      0.0000 
     25 C5        -52.4840   20.4020    3.1880 C.ar      1 ACP400      0.0000 
     26 C6        -52.7570   19.1900    2.3930 C.ar      1 ACP400      0.0000 
     27 N6        -53.7600   18.3410    2.7480 N.pl3     1 ACP400      0.0000 
     28 N1        -51.9680   18.9610    1.3160 N.ar      1 ACP400      0.0000 
     29 C2        -50.9750   19.8030    0.9630 C.ar      1 ACP400      0.0000 
     30 N3        -50.6750   20.9200    1.6410 N.ar      1 ACP400      0.0000 
     31 C4        -51.3800   21.2630    2.7420 C.ar      1 ACP400      0.0000 
     32 H         -50.2204   25.8919   10.5641 H         1 ACP400      0.0000 
     33 H         -51.8579   26.2689   11.1265 H         1 ACP400      0.0000 
     34 H         -49.1530   24.2096    7.2686 H         1 ACP400      0.0000 
     35 H         -49.7139   25.8491    6.8979 H         1 ACP400      0.0000 
     36 H         -48.2793   24.8394    5.1552 H         1 ACP400      0.0000 
     37 H         -50.4776   26.3559    4.8060 H         1 ACP400      0.0000 
     38 H         -51.9096   24.6111    4.3139 H         1 ACP400      0.0000 
     39 H         -49.7745   23.3594    2.7102 H         1 ACP400      0.0000 
     40 H         -52.4543   22.6986    5.2865 H         1 ACP400      0.0000 
     41 H         -54.2972   18.6051    3.5491 H         1 ACP400      0.0000 
     42 H         -53.8713   17.5280    2.1765 H         1 ACP400      0.0000 
     43 H         -50.3989   19.5640    0.0964 H         1 ACP400      0.0000 
     44 H         -49.6374   26.0687    2.4285 H         1 ACP400      0.0000 
     45 H         -51.3215   24.3706    1.7217 H         1 ACP400      0.0000 
@<TRIPOS>BOND
     1    2    1 ar   
     2    3    1 ar   
     3    4    1 ar   
     4    8    1 1    
     5    6    5 ar   
     6    7    5 ar   
     7    8    5 1    
     8   12    5 1    
     9   32    8 1    
    10   33    8 1    
    11   10    9 ar   
    12   11    9 ar   
    13   12    9 1    
    14   13    9 1    
    15   14   13 1    
    16   15   14 1    
    17   34   14 1    
    18   35   14 1    
    19   16   15 1    
    20   17   15 1    
    21   36   15 1    
    22   21   16 1    
    23   18   17 1    
    24   19   17 1    
    25   37   17 1    
    26   44   18 1    
    27   20   19 1    
    28   21   19 1    
    29   38   19 1    
    30   45   20 1    
    31   22   21 1    
    32   39   21 1    
    33   23   22 1    
    34   31   22 1    
    35   24   23 2    
    36   40   23 1    
    37   25   24 1    
    38   26   25 ar   
    39   31   25 ar   
    40   27   26 1    
    41   28   26 ar   
    42   41   27 1    
    43   42   27 1    
    44   29   28 ar   
    45   30   29 ar   
    46   43   29 1    
    47   31   30 ar   
@<TRIPOS>SUBSTRUCTURE
     1 ACP400      1 GROUP   
@<TRIPOS>SET

