#    Name: 3qdq_COA_1_INTS_M
#    Modification time : Tue Mar 25 09:41:40 2014

@<TRIPOS>MOLECULE
3qdq_COA_1_INTS_M
   81     0     9     0     0
SMALL
NO_CHARGES


@<TRIPOS>ATOM
      1 CA        -21.6735    3.0280   18.2730 C.3       3 GLC5        0.0000 
      2 CA        -22.6250    1.9670   19.5130 C.3       9 GLL5        0.0000 
      3 CA        -20.7220    4.0890   17.0330 C.3       6 GLP5        0.0000 
      4 CA        -22.1455    0.8350   20.9000 C.3       3 GLC5        0.0000 
      5 CA        -21.6660   -0.2970   22.2870 C.3       6 GLP5        0.0000 
      6 CA        -24.3850    3.3300   17.5525 C.3       3 GLC5        0.0000 
      7 CA        -24.9550    2.2830   19.4350 C.3       9 GLL5        0.0000 
      8 CA        -23.8150    4.3770   15.6700 C.3       6 GLP5        0.0000 
      9 CA        -25.2935    5.3105   20.2855 C.3       3 GLC5        0.0000 
     10 CA        -24.8410    3.2560   20.5310 C.3       9 GLL5        0.0000 
     11 CA        -25.7460    7.3650   20.0400 C.3       6 GLP5        0.0000 
     12 CA        -22.5785    1.6110   21.6785 C.3       3 GLC5        0.0000 
     13 CA        -23.4910    3.5190   21.0700 C.3       9 GLL5        0.0000 
     14 O         -24.5320    5.1510   22.5730 O.2       1 ALC1        0.0000 
     15 O         -23.3150    4.4040   22.0820 O.2       7 ALL1        0.0000 
     16 O         -25.7490    5.8980   23.0640 O.2       4 ALP1        0.0000 
     17 N         -27.3860    4.1140   21.7645 N.am      2 SEC2        0.0000 
     18 N         -26.0790    3.7000   20.7940 N.am      8 SEL2        0.0000 
     19 N         -28.6930    4.5280   22.7350 N.am      5 SEP2        0.0000 
     20 N         -35.5575    5.8760   18.4285 N.am      2 SEC2        0.0000 
     21 N         -34.0710    5.5600   18.4330 N.am      8 SEL2        0.0000 
     22 N         -37.0440    6.1920   18.4240 N.am      5 SEP2        0.0000 
     23 CA        -31.9820    9.3455   20.3060 C.3       3 GLC5        0.0000 
     24 CA        -30.5300    9.3530   18.8620 C.3       9 GLL5        0.0000 
     25 CA        -33.4340    9.3380   21.7500 C.3       6 GLP5        0.0000 
     26 CA        -29.7805    9.7010   20.5840 C.3       3 GLC5        0.0000 
     27 CA        -29.0310   10.0490   22.3060 C.3       6 GLP5        0.0000 
     28 CA        -28.9680    7.5765   17.7365 C.3       3 GLC5        0.0000 
     29 CA        -29.9550    8.5390   16.5550 C.3       9 GLL5        0.0000 
     30 CA        -27.9810    6.6140   18.9180 C.3       6 GLP5        0.0000 
     31 CA        -29.3700    7.3380   15.3395 C.3       3 GLC5        0.0000 
     32 CA        -28.7850    6.1370   14.1240 C.3       6 GLP5        0.0000 
     33 CA        -32.9850   11.1225   15.6585 C.3       3 GLC5        0.0000 
     34 CA        -32.1270    9.7000   16.9290 C.3       9 GLL5        0.0000 
     35 CA        -33.8430   12.5450   14.3880 C.3       6 GLP5        0.0000 
     36 O         -34.5245   10.4105   17.7715 O.2       1 ALC1        0.0000 
     37 O         -33.1990    9.9230   17.8560 O.2       7 ALL1        0.0000 
     38 O         -35.8500   10.8980   17.6870 O.2       4 ALP1        0.0000 
     39 N         -29.9160   10.8130   14.6105 N.am      2 SEC2        0.0000 
     40 N         -31.0540   10.9970   15.2890 N.am      8 SEL2        0.0000 
     41 N         -28.7780   10.6290   13.9320 N.am      5 SEP2        0.0000 
     42 CA        -29.2655   13.1550   18.4200 C.3       3 GLC5        0.0000 
     43 CA        -30.7220   13.2860   17.0560 C.3       9 GLL5        0.0000 
     44 CA        -27.8090   13.0240   19.7840 C.3       6 GLP5        0.0000 
     45 CA        -31.5985   14.4790   14.4060 C.3       3 GLC5        0.0000 
     46 CA        -31.7200   14.2320   16.3930 C.3       9 GLL5        0.0000 
     47 CA        -31.4770   14.7260   12.4190 C.3       6 GLP5        0.0000 
     48 CA        -31.4795   15.7175   18.0345 C.3       3 GLC5        0.0000 
     49 CA        -31.2390   17.2030   19.6760 C.3       6 GLP5        0.0000 
     50 N         -31.6010   14.4205   19.7525 N.am      2 SEC2        0.0000 
     51 N         -32.7340   14.5220   18.5600 N.am      8 SEL2        0.0000 
     52 N         -30.4680   14.3190   20.9450 N.am      5 SEP2        0.0000 
     53 CA        -33.6495   17.2055   18.3690 C.3       3 GLC5        0.0000 
     54 CA        -34.9750   16.1060   17.1400 C.3       9 GLL5        0.0000 
     55 CA        -32.3240   18.3050   19.5980 C.3       6 GLP5        0.0000 
     56 CA        -37.0930   17.8655   15.6195 C.3       3 GLC5        0.0000 
     57 CA        -35.7510   16.2150   15.8210 C.3       9 GLL5        0.0000 
     58 CA        -38.4350   19.5160   15.4180 C.3       6 GLP5        0.0000 
     59 CA        -37.7605   14.9280   17.3075 C.3       3 GLC5        0.0000 
     60 CA        -37.5290   15.7950   15.9560 C.3       9 GLL5        0.0000 
     61 CA        -37.9920   14.0610   18.6590 C.3       6 GLP5        0.0000 
     62 CA        -36.3045   14.2515   15.5775 C.3       3 GLC5        0.0000 
     63 CA        -35.0800   12.7080   15.1990 C.3       6 GLP5        0.0000 
     64 CA        -38.5815   17.2460   15.8130 C.3       3 GLC5        0.0000 
     65 CA        -39.6340   18.6970   15.6700 C.3       6 GLP5        0.0000 
     66 CA        -38.6600   14.4330   14.9775 C.3       3 GLC5        0.0000 
     67 CA        -39.7910   13.0710   13.9990 C.3       6 GLP5        0.0000 
     68 CA        -25.6085    1.2047   21.3100 C.3       3 GLC5        0.0000 
     69 CA        -26.3190   -0.3600   22.6370 C.3       6 GLP5        0.0000 
     70 CA        -24.9680    3.2652   22.8498 C.3       3 GLC5        0.0000 
     71 CA        -25.7700    3.1430   24.8990 C.3       6 GLP5        0.0000 
     72 CA        -28.7323    3.5737   15.0922 C.3       3 GLC5        0.0000 
     73 CA        -28.5420    1.6940   16.4450 C.3       9 GLL5        0.0000 
     74 CA        -28.5060    4.8190   13.7740 C.3       6 GLP5        0.0000 
     75 CA        -29.4710    7.6734   18.6044 C.3       3 GLC5        0.0000 
     76 CA        -31.7080    7.4460   17.8810 C.3       9 GLL5        0.0000 
     77 CA        -32.5320   13.1520   15.5563 C.3       3 GLC5        0.0000 
     78 CA        -36.6775   15.1107   17.5697 C.3       3 GLC5        0.0000 
     79 CA        -35.2215   14.4343   15.8397 C.3       3 GLC5        0.0000 
     80 CA        -34.5810   18.0503   16.5018 C.3       3 GLC5        0.0000 
     81 CA        -33.7990   19.9400   16.5230 C.3       6 GLP5        0.0000 
@<TRIPOS>BOND
@<TRIPOS>SUBSTRUCTURE
     1 ALC1       14 GROUP        1 X    ALC  0     ROOT ALC X 1
     2 SEC2       17 GROUP        1 X    SEC  0     **** SEC X 2
     3 GLC5        1 GROUP        1 X    GLC  0     **** GLC X 6
     4 ALP1       16 GROUP        1 Y    ALP  0     ROOT ALP Y 8
     5 SEP2       19 GROUP        1 Y    SEP  0     **** SEP Y 9
     6 GLP5        3 GROUP        1 Y    GLP  0     **** GLP Y 13
     7 ALL1       15 GROUP        1 Z    ALL  0     ROOT ALL Z 15
     8 SEL2       18 GROUP        1 Z    SEL  0     **** SEL Z 16
     9 GLL5        2 GROUP        1 Z    GLL  0     **** GLL Z 20
@<TRIPOS>SET

