#    Name: 3qdq_COA_1_ligand
#    Modification time : Tue Mar 25 09:41:40 2014

@<TRIPOS>MOLECULE
3qdq_COA_1_ligand
   79    81     1     0     0
SMALL
NO_CHARGES


@<TRIPOS>ATOM
      1 N1A       -22.4580    2.8400   20.5200 N.ar      1 COA500      0.0000 
      2 C2A       -22.6250    1.9670   19.5130 C.ar      1 COA500      0.0000 
      3 N3A       -23.8230    1.6920   18.9770 N.ar      1 COA500      0.0000 
      4 C4A       -24.9550    2.2830   19.4350 C.ar      1 COA500      0.0000 
      5 C5A       -24.8410    3.2560   20.5310 C.ar      1 COA500      0.0000 
      6 C6A       -23.4910    3.5190   21.0700 C.ar      1 COA500      0.0000 
      7 N6A       -23.3150    4.4040   22.0820 N.pl3     1 COA500      0.0000 
      8 N7A       -26.0790    3.7000   20.7940 N.2       1 COA500      0.0000 
      9 C8A       -26.9120    3.0590   19.9380 C.2       1 COA500      0.0000 
     10 N9A       -26.2520    2.2160   19.1240 N.pl3     1 COA500      0.0000 
     11 C1B       -26.8500    1.3510   18.0590 C.3       1 COA500      0.0000 
     12 C2B       -28.0560    0.5360   18.5350 C.3       1 COA500      0.0000 
     13 O2B       -27.6580   -0.8200   18.7310 O.3       1 COA500      0.0000 
     14 C3B       -29.1060    0.6730   17.4360 C.3       1 COA500      0.0000 
     15 O3B       -29.5100   -0.6030   16.8810 O.3       1 COA500      0.0000 
     16 P3B       -29.1680   -1.3060   15.4360 P.3       1 COA500      0.0000 
     17 O7A       -29.6330   -2.7250   15.7070 O.co2     1 COA500      0.0000 
     18 O8A       -27.6760   -1.1660   15.2440 O.co2     1 COA500      0.0000 
     19 O9A       -29.9860   -0.6060   14.3630 O.co2     1 COA500      0.0000 
     20 C4B       -28.5420    1.6940   16.4450 C.3       1 COA500      0.0000 
     21 O4B       -27.2460    2.0870   16.8940 O.3       1 COA500      0.0000 
     22 C5B       -29.3750    2.9630   16.3760 C.3       1 COA500      0.0000 
     23 O5B       -29.8020    3.4020   17.6740 O.3       1 COA500      0.0000 
     24 P1A       -31.3890    3.5020   17.9780 P.3       1 COA500      0.0000 
     25 O1A       -31.4760    3.5710   19.4830 O.co2     1 COA500      0.0000 
     26 O2A       -32.0460    2.3700   17.1920 O.co2     1 COA500      0.0000 
     27 O3A       -31.8160    4.9010   17.2690 O.3       1 COA500      0.0000 
     28 P2A       -33.2940    5.5920   17.1220 P.3       1 COA500      0.0000 
     29 O4A       -34.0710    5.5600   18.4330 O.co2     1 COA500      0.0000 
     30 O5A       -33.9430    5.2060   15.8070 O.co2     1 COA500      0.0000 
     31 O6A       -32.7410    7.0880   16.9580 O.3       1 COA500      0.0000 
     32 CBP       -31.0760    8.7790   17.5580 C.3       1 COA500      0.0000 
     33 CCP       -31.7080    7.4460   17.8810 C.3       1 COA500      0.0000 
     34 CDP       -30.5300    9.3530   18.8620 C.3       1 COA500      0.0000 
     35 CEP       -29.9550    8.5390   16.5550 C.3       1 COA500      0.0000 
     36 CAP       -32.1270    9.7000   16.9290 C.3       1 COA500      0.0000 
     37 OAP       -33.1990    9.9230   17.8560 O.3       1 COA500      0.0000 
     38 C9P       -31.4660   10.9670   16.4410 C.2       1 COA500      0.0000 
     39 O9P       -31.0540   10.9970   15.2890 O.2       1 COA500      0.0000 
     40 N8P       -31.3490   11.9880   17.2920 N.am      1 COA500      0.0000 
     41 C7P       -30.7220   13.2860   17.0560 C.3       1 COA500      0.0000 
     42 C6P       -31.7200   14.2320   16.3930 C.3       1 COA500      0.0000 
     43 C5P       -32.7850   14.7430   17.3500 C.2       1 COA500      0.0000 
     44 O5P       -32.7340   14.5220   18.5600 O.2       1 COA500      0.0000 
     45 N4P       -33.7420   15.4370   16.7170 N.am      1 COA500      0.0000 
     46 C3P       -34.9750   16.1060   17.1400 C.3       1 COA500      0.0000 
     47 C2P       -35.7510   16.2150   15.8210 C.3       1 COA500      0.0000 
     48 S1P       -37.5290   15.7950   15.9560 S.3       1 COA500      0.0000 
     49 H         -21.7670    1.4715   19.1235 H         1 COA500      0.0000 
     50 H         -22.3697    4.5668   22.3647 H         1 COA500      0.0000 
     51 H         -24.1460    4.8156   22.4561 H         1 COA500      0.0000 
     52 H         -27.8913    3.1990   19.9188 H         1 COA500      0.0000 
     53 H         -26.0822    0.6012   17.7548 H         1 COA500      0.0000 
     54 H         -28.4286    0.9947   19.4221 H         1 COA500      0.0000 
     55 H         -29.9754    1.1729   17.9252 H         1 COA500      0.0000 
     56 H         -28.4930    1.2539   15.4739 H         1 COA500      0.0000 
     57 H         -30.2407    2.7640   15.7167 H         1 COA500      0.0000 
     58 H         -28.7689    3.7386   15.8713 H         1 COA500      0.0000 
     59 H         -30.9036    6.6817   17.8955 H         1 COA500      0.0000 
     60 H         -32.0996    7.4965   18.9181 H         1 COA500      0.0000 
     61 H         -32.5061    9.1605   16.0398 H         1 COA500      0.0000 
     62 H         -31.7540   11.8875   18.2926 H         1 COA500      0.0000 
     63 H         -29.8543   13.1872   16.3991 H         1 COA500      0.0000 
     64 H         -30.3929   13.7376   17.9951 H         1 COA500      0.0000 
     65 H         -32.2066   13.7084   15.5573 H         1 COA500      0.0000 
     66 H         -31.1737   15.0877   15.9704 H         1 COA500      0.0000 
     67 H         -33.5992   15.5535   15.6011 H         1 COA500      0.0000 
     68 H         -34.7838   17.0833   17.5053 H         1 COA500      0.0000 
     69 H         -35.5324   15.5075   17.8155 H         1 COA500      0.0000 
     70 H         -35.4151   15.5226   15.0662 H         1 COA500      0.0000 
     71 H         -35.7881   17.2172   15.4257 H         1 COA500      0.0000 
     72 H         -29.8452    8.7521   19.2743 H         1 COA500      0.0000 
     73 H         -30.0940   10.2421   18.7226 H         1 COA500      0.0000 
     74 H         -31.2521    9.4840   19.5413 H         1 COA500      0.0000 
     75 H         -29.4959    9.3901   16.3004 H         1 COA500      0.0000 
     76 H         -29.2545    7.9261   16.9206 H         1 COA500      0.0000 
     77 H         -30.2947    8.1252   15.7104 H         1 COA500      0.0000 
     78 H         -28.3892   -1.3659   18.3219 H         1 COA500      0.0000 
     79 H         -33.9518   10.2765   17.3007 H         1 COA500      0.0000 
@<TRIPOS>BOND
     1    2    1 ar   
     2    6    1 ar   
     3    3    2 ar   
     4   49    2 1    
     5    4    3 ar   
     6    5    4 ar   
     7   10    4 1    
     8    6    5 ar   
     9    8    5 1    
    10    7    6 1    
    11   50    7 1    
    12   51    7 1    
    13    9    8 2    
    14   10    9 1    
    15   52    9 1    
    16   11   10 1    
    17   12   11 1    
    18   21   11 1    
    19   53   11 1    
    20   13   12 1    
    21   14   12 1    
    22   54   12 1    
    23   78   13 1    
    24   15   14 1    
    25   20   14 1    
    26   55   14 1    
    27   16   15 1    
    28   17   16 ar   
    29   18   16 ar   
    30   19   16 ar   
    31   21   20 1    
    32   22   20 1    
    33   56   20 1    
    34   23   22 1    
    35   57   22 1    
    36   58   22 1    
    37   24   23 1    
    38   25   24 ar   
    39   26   24 ar   
    40   27   24 1    
    41   28   27 1    
    42   29   28 ar   
    43   30   28 ar   
    44   31   28 1    
    45   33   31 1    
    46   33   32 1    
    47   34   32 1    
    48   35   32 1    
    49   36   32 1    
    50   59   33 1    
    51   60   33 1    
    52   72   34 1    
    53   73   34 1    
    54   74   34 1    
    55   75   35 1    
    56   76   35 1    
    57   77   35 1    
    58   37   36 1    
    59   38   36 1    
    60   61   36 1    
    61   79   37 1    
    62   39   38 2    
    63   40   38 am   
    64   41   40 1    
    65   62   40 1    
    66   42   41 1    
    67   63   41 1    
    68   64   41 1    
    69   43   42 1    
    70   65   42 1    
    71   66   42 1    
    72   44   43 2    
    73   45   43 am   
    74   46   45 1    
    75   67   45 1    
    76   47   46 1    
    77   68   46 1    
    78   69   46 1    
    79   48   47 1    
    80   70   47 1    
    81   71   47 1    
@<TRIPOS>SUBSTRUCTURE
     1 COA500      1 GROUP   
@<TRIPOS>SET

