#    Name: 4gn6_TYL_1_INTS_M
#    Modification time : Mon Mar 24 22:48:32 2014

@<TRIPOS>MOLECULE
4gn6_TYL_1_INTS_M
   20     0     3     0     0
SMALL
NO_CHARGES


@<TRIPOS>ATOM
      1 CA          2.3080    2.3455   27.8620 C.3       1 GLC5        0.0000 
      2 CA          3.5380    2.9910   29.6230 C.3       3 GLL5        0.0000 
      3 CA          1.0780    1.7000   26.1010 C.3       2 GLP5        0.0000 
      4 CA         -1.0950    3.9630   28.9515 C.3       1 GLC5        0.0000 
      5 CA          0.1440    5.4950   28.7150 C.3       3 GLL5        0.0000 
      6 CA         -2.3340    2.4310   29.1880 C.3       2 GLP5        0.0000 
      7 CA          0.1645    4.6985   26.9875 C.3       1 GLC5        0.0000 
      8 CA          0.1850    3.9020   25.2600 C.3       2 GLP5        0.0000 
      9 CA          0.7045    7.0025   28.9345 C.3       1 GLC5        0.0000 
     10 CA          1.2650    8.5100   29.1540 C.3       2 GLP5        0.0000 
     11 CA          3.9875    5.8050   27.6855 C.3       1 GLC5        0.0000 
     12 CA          3.3930    4.8110   28.0850 C.3       3 GLL5        0.0000 
     13 CA          4.7800    7.0950   26.6960 C.3       2 GLP5        0.0000 
     14 CA          2.5713    3.6745   26.6723 C.3       1 GLC5        0.0000 
     15 CA          1.3880    2.9890   25.3850 C.3       2 GLP5        0.0000 
     16 CA          4.6808    5.3522   27.0557 C.3       1 GLC5        0.0000 
     17 CA          4.3140    4.2050   27.2440 C.3       3 GLL5        0.0000 
     18 CA          3.3738    1.6705   26.9635 C.3       1 GLC5        0.0000 
     19 CA          4.8490    3.0140   27.5870 C.3       3 GLL5        0.0000 
     20 CA          2.0880    0.6390   25.7480 C.3       2 GLP5        0.0000 
@<TRIPOS>BOND
@<TRIPOS>SUBSTRUCTURE
     1 GLC5        1 GROUP        1 X    GLC  0     ROOT GLC X 6
     2 GLP5        3 GROUP        1 Y    GLP  0     ROOT GLP Y 13
     3 GLL5        2 GROUP        1 Z    GLL  0     ROOT GLL Z 20
@<TRIPOS>SET

