#    Name: 4gn6_TYL_1_ligand
#    Modification time : Mon Mar 24 22:48:32 2014

@<TRIPOS>MOLECULE
4gn6_TYL_1_ligand
   20    20     1     0     0
SMALL
NO_CHARGES


@<TRIPOS>ATOM
      1 C1          2.9970    4.2190   29.2650 C.ar      1 TYL621      0.0000 
      2 C2          3.3930    4.8110   28.0850 C.ar      1 TYL621      0.0000 
      3 C3          4.3140    4.2050   27.2440 C.ar      1 TYL621      0.0000 
      4 C4          4.8490    3.0140   27.5870 C.ar      1 TYL621      0.0000 
      5 C5          4.4700    2.3900   28.7710 C.ar      1 TYL621      0.0000 
      6 C6          3.5380    2.9910   29.6230 C.ar      1 TYL621      0.0000 
      7 N           2.0950    4.8620   30.0290 N.am      1 TYL621      0.0000 
      8 C           0.7880    4.7400   29.8350 C.2       1 TYL621      0.0000 
      9 CM          0.1440    5.4950   28.7150 C.3       1 TYL621      0.0000 
     10 O4          5.7300    2.4840   26.7230 O.3       1 TYL621      0.0000 
     11 O           0.1290    4.0440   30.5680 O.2       1 TYL621      0.0000 
     12 H           2.9936    5.7343   27.8157 H         1 TYL621      0.0000 
     13 H           4.5786    4.6760   26.3630 H         1 TYL621      0.0000 
     14 H           4.8770    1.4782   29.0251 H         1 TYL621      0.0000 
     15 H           3.2634    2.5322   30.4907 H         1 TYL621      0.0000 
     16 H           2.4490    5.4861   30.8113 H         1 TYL621      0.0000 
     17 H           0.2637    6.4827   28.8158 H         1 TYL621      0.0000 
     18 H           0.5287    5.2422   27.8272 H         1 TYL621      0.0000 
     19 H          -0.8398    5.3222   28.6680 H         1 TYL621      0.0000 
     20 H           6.6022    2.9214   26.9419 H         1 TYL621      0.0000 
@<TRIPOS>BOND
     1    2    1 ar   
     2    6    1 ar   
     3    7    1 1    
     4    3    2 ar   
     5   12    2 1    
     6    4    3 ar   
     7   13    3 1    
     8    5    4 ar   
     9   10    4 1    
    10    6    5 ar   
    11   14    5 1    
    12   15    6 1    
    13    8    7 am   
    14   16    7 1    
    15    9    8 1    
    16   11    8 2    
    17   17    9 1    
    18   18    9 1    
    19   19    9 1    
    20   20   10 1    
@<TRIPOS>SUBSTRUCTURE
     1 TYL621      1 GROUP   
@<TRIPOS>SET

