#    Name: 4E1K_1_CAVITY_N1_ALL.mol2
#    Modification time : Mon Mar 10 15:43:30 2014

@<TRIPOS>MOLECULE
4E1K_1_CAVITY_N1_ALL.mol2
   70     0     5     0     0
SMALL
NO_CHARGES


@<TRIPOS>ATOM
      1 DU         26.6804    4.2159   94.6278 H         5 CUB7        0.0000 
      2 N          24.8309    4.2522   95.6660 N.2       1 ALA2        0.0000 
      3 N          22.9813    4.2886   96.7041 N.2       1 ALA2        0.0000 
      4 DU         23.7277    3.2637   95.9026 H         5 CUB7        0.0000 
      5 DU         24.4742    2.2389   95.1010 H         5 CUB7        0.0000 
      6 CZ         22.6246    2.2752   96.1391 C.ar      3 PHE5        0.0000 
      7 N          26.3472    6.7010   93.9472 N.2       1 ALA2        0.0000 
      8 CZ         27.0937    5.6762   93.1457 C.ar      3 PHE5        0.0000 
      9 CZ         27.8402    4.6513   92.3441 C.ar      3 PHE5        0.0000 
     10 N          25.2441    5.7125   94.1838 N.2       1 ALA2        0.0000 
     11 DU         25.9906    4.6877   93.3822 H         5 CUB7        0.0000 
     12 DU         26.7370    3.6628   92.5807 H         5 CUB7        0.0000 
     13 N          24.1410    4.7240   94.4204 N.2       1 ALA2        0.0000 
     14 DU         24.8875    3.6991   93.6188 H         5 CUB7        0.0000 
     15 CA         21.5449    5.7851   96.2600 C.3       4 GLY6        0.0000 
     16 N          22.2914    4.7603   95.4585 N.2       1 ALA2        0.0000 
     17 DU         23.0379    3.7355   94.6569 H         5 CUB7        0.0000 
     18 CA         19.6953    5.8214   97.2982 C.3       4 GLY6        0.0000 
     19 CZ         20.4418    4.7966   96.4966 C.ar      3 PHE5        0.0000 
     20 CZ         21.1883    3.7718   95.6951 C.ar      3 PHE5        0.0000 
     21 CZ         21.9348    2.7469   94.8935 C.ar      3 PHE5        0.0000 
     22 DU         22.6812    1.7221   94.0920 H         5 CUB7        0.0000 
     23 DU         23.4277    0.6973   93.2904 H         5 CUB7        0.0000 
     24 CA         18.5922    4.8329   97.5348 C.3       4 GLY6        0.0000 
     25 CZ         19.3387    3.8081   96.7332 C.ar      3 PHE5        0.0000 
     26 CZ         21.5781    0.7336   94.3286 C.ar      3 PHE5        0.0000 
     27 CZ         25.6573    7.1727   92.7016 C.ar      3 PHE5        0.0000 
     28 CZ         26.4038    6.1479   91.9000 C.ar      3 PHE5        0.0000 
     29 CZ         27.1503    5.1231   91.0985 C.ar      3 PHE5        0.0000 
     30 N          24.5542    6.1842   92.9382 N.2       1 ALA2        0.0000 
     31 CZ         25.3007    5.1594   92.1366 C.ar      3 PHE5        0.0000 
     32 DU         26.0472    4.1346   91.3351 H         5 CUB7        0.0000 
     33 NZ         26.7936    3.1097   90.5335 N.2       2 LYS4        0.0000 
     34 N          22.7046    6.2205   93.9763 N.2       1 ALA2        0.0000 
     35 N          23.4511    5.1957   93.1748 N.2       1 ALA2        0.0000 
     36 DU         24.1976    4.1709   92.3732 H         5 CUB7        0.0000 
     37 DU         24.9441    3.1460   91.5716 H         5 CUB7        0.0000 
     38 NZ         25.6905    2.1212   90.7701 N.2       2 LYS4        0.0000 
     39 N          20.8551    6.2569   95.0144 N.2       1 ALA2        0.0000 
     40 N          21.6015    5.2320   94.2129 N.2       1 ALA2        0.0000 
     41 N          22.3480    4.2072   93.4113 N.2       1 ALA2        0.0000 
     42 O          23.0945    3.1823   92.6098 O.2       1 ALA2        0.0000 
     43 DU         23.8409    2.1575   91.8082 H         5 CUB7        0.0000 
     44 N          24.5874    1.1327   91.0067 N.2       1 ALA2        0.0000 
     45 CA         19.0055    6.2932   96.0526 C.3       4 GLY6        0.0000 
     46 CA         19.7519    5.2683   95.2510 C.3       4 GLY6        0.0000 
     47 N          20.4984    4.2435   94.4495 N.2       1 ALA2        0.0000 
     48 N          21.2449    3.2187   93.6479 N.2       1 ALA2        0.0000 
     49 O          21.9914    2.1938   92.8464 O.2       1 ALA2        0.0000 
     50 DU         22.7378    1.1690   92.0448 H         5 CUB7        0.0000 
     51 CA         17.9024    5.3047   96.2891 C.3       4 GLY6        0.0000 
     52 CZ         18.6488    4.2798   95.4876 C.ar      3 PHE5        0.0000 
     53 NZ         19.3953    3.2550   94.6860 N.2       2 LYS4        0.0000 
     54 NZ         20.1418    2.2301   93.8845 N.2       2 LYS4        0.0000 
     55 NZ         20.8883    1.2053   93.0829 N.2       2 LYS4        0.0000 
     56 NZ         19.7851    0.2168   93.3195 N.2       2 LYS4        0.0000 
     57 CZ         24.2210    8.6693   92.2575 C.ar      3 PHE5        0.0000 
     58 N          23.1179    7.6808   92.4941 N.2       1 ALA2        0.0000 
     59 N          23.8644    6.6560   91.6926 N.2       1 ALA2        0.0000 
     60 CA         24.6108    5.6311   90.8910 C.3       4 GLY6        0.0000 
     61 NZ         25.3573    4.6063   90.0895 N.2       2 LYS4        0.0000 
     62 O          23.5077    4.6426   91.1276 O.2       1 ALA2        0.0000 
     63 CA         24.2542    3.6178   90.3260 C.3       4 GLY6        0.0000 
     64 O          22.4046    3.6541   91.3642 O.2       1 ALA2        0.0000 
     65 O          20.5550    3.6904   92.4023 O.2       1 ALA2        0.0000 
     66 NZ         20.1984    1.6770   91.8373 N.2       2 LYS4        0.0000 
     67 N          20.9449    0.6522   91.0358 N.2       1 ALA2        0.0000 
     68 N          19.8417   -0.3363   91.2724 N.2       1 ALA2        0.0000 
     69 CA         22.7846   10.1659   91.8135 C.3       4 GLY6        0.0000 
     70 CA         23.5311    9.1411   91.0119 C.3       4 GLY6        0.0000 
@<TRIPOS>BOND
@<TRIPOS>SUBSTRUCTURE
     1 ALA2        2 GROUP   
     2 LYS4       33 GROUP   
     3 PHE5        6 GROUP   
     4 GLY6       15 GROUP   
     5 CUB7        1 GROUP   
@<TRIPOS>SET

