#    Name: 4e1k_0N5_1_INTS_M
#    Modification time : Tue Mar 25 10:30:42 2014

@<TRIPOS>MOLECULE
4e1k_0N5_1_INTS_M
   72     0     9     0     0
SMALL
NO_CHARGES


@<TRIPOS>ATOM
      1 CA         30.0285    4.8430   84.3595 C.3       3 GLC5        0.0000 
      2 CA         28.8980    3.5580   85.2210 C.3       9 GLL5        0.0000 
      3 CA         31.1590    6.1280   83.4980 C.3       6 GLP5        0.0000 
      4 CA         30.2795    1.9530   84.7845 C.3       3 GLC5        0.0000 
      5 CA         31.6610    0.3480   84.3480 C.3       6 GLP5        0.0000 
      6 CA         27.8255    1.7375   84.7870 C.3       3 GLC5        0.0000 
      7 CA         26.7530   -0.0830   84.3530 C.3       6 GLP5        0.0000 
      8 CA         28.2880    4.1995   83.6420 C.3       3 GLC5        0.0000 
      9 CA         27.6780    4.8410   82.0630 C.3       6 GLP5        0.0000 
     10 CA         26.9510    3.6125   85.2305 C.3       3 GLC5        0.0000 
     11 CA         25.0040    3.6670   85.2400 C.3       6 GLP5        0.0000 
     12 N          31.2000    2.7090   84.9290 N.am      2 SEC2        0.0000 
     13 N          30.2190    3.7160   85.7240 N.am      8 SEL2        0.0000 
     14 N          32.1810    1.7020   84.1340 N.am      5 SEP2        0.0000 
     15 CA         30.7080    4.9500   85.3065 C.3       3 GLC5        0.0000 
     16 CA         30.2570    3.7720   87.1150 C.3       9 GLL5        0.0000 
     17 CA         31.4140    4.7255   91.8030 C.3       3 GLC5        0.0000 
     18 CA         30.6120    3.8780   89.8810 C.3       9 GLL5        0.0000 
     19 CA         32.2160    5.5730   93.7250 C.3       6 GLP5        0.0000 
     20 CA         31.5650    5.6510   87.8450 C.3       3 GLC5        0.0000 
     21 CA         31.5180    3.7830   87.6710 C.3       9 GLL5        0.0000 
     22 CA         31.6120    7.5190   88.0190 C.3       6 GLP5        0.0000 
     23 N          32.7255    4.0650   85.3415 N.am      2 SEC2        0.0000 
     24 N          32.6110    3.7420   86.8440 N.am      8 SEL2        0.0000 
     25 N          32.8400    4.3880   83.8390 N.am      5 SEP2        0.0000 
     26 CA         30.9650    4.7685   92.8445 C.3       3 GLC5        0.0000 
     27 CA         29.7140    3.9640   91.9640 C.3       9 GLL5        0.0000 
     28 CA         27.4220    5.8705   89.5660 C.3       3 GLC5        0.0000 
     29 CA         28.2650    3.9160   90.2060 C.3       9 GLL5        0.0000 
     30 CA         26.5790    7.8250   88.9260 C.3       6 GLP5        0.0000 
     31 O          26.4225    4.2860   88.4655 O.2       1 ALC1        0.0000 
     32 O          26.9420    3.9100   89.6990 O.2       7 ALL1        0.0000 
     33 O          25.9030    4.6620   87.2320 O.2       4 ALP1        0.0000 
     34 O          26.3545    3.1935   88.4315 O.2       1 ALC1        0.0000 
     35 O          25.7670    2.4770   87.1640 O.2       4 ALP1        0.0000 
     36 O          21.5730    5.4510   92.6045 O.2       1 ALC1        0.0000 
     37 O          22.4640    4.4630   93.0390 O.2       7 ALL1        0.0000 
     38 O          20.6820    6.4390   92.1700 O.2       4 ALP1        0.0000 
     39 CA         19.3655    4.5625   92.6820 C.3       3 GLC5        0.0000 
     40 CA         20.0370    4.1510   94.4910 C.3       9 GLL5        0.0000 
     41 CA         18.6940    4.9740   90.8730 C.3       6 GLP5        0.0000 
     42 CA         17.6120    4.2945   93.4090 C.3       3 GLC5        0.0000 
     43 CA         18.8410    4.3460   95.1480 C.3       9 GLL5        0.0000 
     44 CA         16.3830    4.2430   91.6700 C.3       6 GLP5        0.0000 
     45 CA         17.7645    4.0475   98.1100 C.3       3 GLC5        0.0000 
     46 CA         18.8220    4.9300   96.3990 C.3       9 GLL5        0.0000 
     47 CA         16.7070    3.1650   99.8210 C.3       6 GLP5        0.0000 
     48 CA         19.6460    5.5795   98.9905 C.3       3 GLC5        0.0000 
     49 CA         20.0030    5.3200   97.0010 C.3       9 GLL5        0.0000 
     50 CA         19.2890    5.8390  100.9800 C.3       6 GLP5        0.0000 
     51 CA         30.5675    5.6757   88.2253 C.3       3 GLC5        0.0000 
     52 CA         29.1570    3.8180   87.9530 C.3       9 GLL5        0.0000 
     53 CA         31.8695    5.4607   89.8690 C.3       3 GLC5        0.0000 
     54 CA         31.7000    3.8330   89.0330 C.3       9 GLL5        0.0000 
     55 CA         32.5830    7.0660   90.2810 C.3       6 GLP5        0.0000 
     56 CA         25.5631    6.3061   89.8434 C.3       3 GLC5        0.0000 
     57 CA         23.7550    5.0850   91.1050 C.3       9 GLL5        0.0000 
     58 CA         23.4130    6.2988   89.5530 C.3       3 GLC5        0.0000 
     59 CA         24.8530    4.9560   90.2790 C.3       9 GLL5        0.0000 
     60 CA         22.5220    7.5770   88.4140 C.3       6 GLP5        0.0000 
     61 CA         22.7706    4.0950   89.7841 C.3       3 GLC5        0.0000 
     62 CA         21.2740    3.3680   88.5970 C.3       6 GLP5        0.0000 
     63 CA         18.9760    6.1958   94.6072 C.3       3 GLC5        0.0000 
     64 CA         18.5130    8.1430   94.3950 C.3       6 GLP5        0.0000 
     65 CA         16.9053    5.1990   95.4098 C.3       3 GLC5        0.0000 
     66 CA         14.9790    5.7600   95.0460 C.3       6 GLP5        0.0000 
     67 CA         18.6363    6.5940   97.6885 C.3       3 GLC5        0.0000 
     68 CA         17.8600    8.0630   98.6770 C.3       6 GLP5        0.0000 
     69 CA         21.7722    6.8548   96.8705 C.3       3 GLC5        0.0000 
     70 CA         22.9420    8.4860   97.0670 C.3       6 GLP5        0.0000 
     71 CA         19.4101    6.6345   95.4592 C.3       3 GLC5        0.0000 
     72 CA         21.2020    5.1270   96.3470 C.3       9 GLL5        0.0000 
@<TRIPOS>BOND
@<TRIPOS>SUBSTRUCTURE
     1 ALC1       31 GROUP        1 X    ALC  0     ROOT ALC X 1
     2 SEC2       12 GROUP        1 X    SEC  0     **** SEC X 2
     3 GLC5        1 GROUP        1 X    GLC  0     **** GLC X 6
     4 ALP1       33 GROUP        1 Y    ALP  0     ROOT ALP Y 8
     5 SEP2       14 GROUP        1 Y    SEP  0     **** SEP Y 9
     6 GLP5        3 GROUP        1 Y    GLP  0     **** GLP Y 13
     7 ALL1       32 GROUP        1 Z    ALL  0     ROOT ALL Z 15
     8 SEL2       13 GROUP        1 Z    SEL  0     **** SEL Z 16
     9 GLL5        2 GROUP        1 Z    GLL  0     **** GLL Z 20
@<TRIPOS>SET

