#    Name: 4e1k_0N5_1_ligand
#    Modification time : Tue Mar 25 10:30:43 2014

@<TRIPOS>MOLECULE
4e1k_0N5_1_ligand
   47    50     1     0     0
SMALL
NO_CHARGES


@<TRIPOS>ATOM
      1 C1         28.8980    3.5580   85.2210 C.3       1 0N5505      0.0000 
      2 O1         30.2190    3.7160   85.7240 O.3       1 0N5505      0.0000 
      3 C2         30.2570    3.7720   87.1150 C.ar      1 0N5505      0.0000 
      4 C3         29.1570    3.8180   87.9530 C.ar      1 0N5505      0.0000 
      5 C4         29.3390    3.8700   89.3290 C.ar      1 0N5505      0.0000 
      6 C5         30.6120    3.8780   89.8810 C.ar      1 0N5505      0.0000 
      7 C6         31.7000    3.8330   89.0330 C.ar      1 0N5505      0.0000 
      8 C7         31.5180    3.7830   87.6710 C.ar      1 0N5505      0.0000 
      9 O2         32.6110    3.7420   86.8440 O.3       1 0N5505      0.0000 
     10 N1         30.8110    3.9250   91.2040 N.ar      1 0N5505      0.0000 
     11 C8         29.7140    3.9640   91.9640 C.ar      1 0N5505      0.0000 
     12 N2         28.4500    3.9660   91.5350 N.ar      1 0N5505      0.0000 
     13 C9         28.2650    3.9160   90.2060 C.ar      1 0N5505      0.0000 
     14 N3         26.9420    3.9100   89.6990 N.pl3     1 0N5505      0.0000 
     15 C10        25.8260    4.0230   90.5540 C.ar      1 0N5505      0.0000 
     16 C11        25.6720    3.2170   91.6690 C.ar      1 0N5505      0.0000 
     17 C12        24.5750    3.3470   92.5010 C.ar      1 0N5505      0.0000 
     18 C13        23.6080    4.2910   92.2220 C.ar      1 0N5505      0.0000 
     19 C14        23.7550    5.0850   91.1050 C.ar      1 0N5505      0.0000 
     20 C15        24.8530    4.9560   90.2790 C.ar      1 0N5505      0.0000 
     21 N4         22.4640    4.4630   93.0390 N.am      1 0N5505      0.0000 
     22 C16        22.5050    4.3480   94.4100 C.2       1 0N5505      0.0000 
     23 O3         23.5010    4.1010   95.0770 O.2       1 0N5505      0.0000 
     24 C17        21.2110    4.5460   95.0960 C.ar      1 0N5505      0.0000 
     25 C18        20.0370    4.1510   94.4910 C.ar      1 0N5505      0.0000 
     26 C19        18.8410    4.3460   95.1480 C.ar      1 0N5505      0.0000 
     27 C20        18.8220    4.9300   96.3990 C.ar      1 0N5505      0.0000 
     28 C21        20.0030    5.3200   97.0010 C.ar      1 0N5505      0.0000 
     29 C22        21.2020    5.1270   96.3470 C.ar      1 0N5505      0.0000 
     30 H          28.2065    3.8138   87.5606 H         1 0N5505      0.0000 
     31 H          32.6573    3.8370   89.4267 H         1 0N5505      0.0000 
     32 H          29.8661    3.9976   93.0442 H         1 0N5505      0.0000 
     33 H          26.7947    3.8210   88.6826 H         1 0N5505      0.0000 
     34 H          26.3941    2.5016   91.8841 H         1 0N5505      0.0000 
     35 H          24.4811    2.7390   93.3279 H         1 0N5505      0.0000 
     36 H          23.0274    5.7927   90.8804 H         1 0N5505      0.0000 
     37 H          24.9434    5.5662   89.4474 H         1 0N5505      0.0000 
     38 H          21.5588    4.6861   92.5653 H         1 0N5505      0.0000 
     39 H          20.0533    3.7160   93.5604 H         1 0N5505      0.0000 
     40 H          17.9546    4.0543   94.7034 H         1 0N5505      0.0000 
     41 H          17.9235    5.0758   96.8862 H         1 0N5505      0.0000 
     42 H          19.9869    5.7535   97.9354 H         1 0N5505      0.0000 
     43 H          22.0855    5.4151   96.7902 H         1 0N5505      0.0000 
     44 H          28.8828    3.5231   84.2217 H         1 0N5505      0.0000 
     45 H          28.4737    2.7145   85.5502 H         1 0N5505      0.0000 
     46 H          28.3027    4.3126   85.4971 H         1 0N5505      0.0000 
     47 H          33.1179    2.9272   87.1254 H         1 0N5505      0.0000 
@<TRIPOS>BOND
     1    2    1 1    
     2   44    1 1    
     3   45    1 1    
     4   46    1 1    
     5    3    2 1    
     6    4    3 ar   
     7    8    3 ar   
     8    5    4 ar   
     9   30    4 1    
    10    6    5 ar   
    11   13    5 ar   
    12    7    6 ar   
    13   10    6 ar   
    14    8    7 ar   
    15   31    7 1    
    16    9    8 1    
    17   47    9 1    
    18   11   10 ar   
    19   12   11 ar   
    20   32   11 1    
    21   13   12 ar   
    22   14   13 1    
    23   15   14 1    
    24   33   14 1    
    25   16   15 ar   
    26   20   15 ar   
    27   17   16 ar   
    28   34   16 1    
    29   18   17 ar   
    30   35   17 1    
    31   19   18 ar   
    32   21   18 1    
    33   20   19 ar   
    34   36   19 1    
    35   37   20 1    
    36   22   21 am   
    37   38   21 1    
    38   23   22 2    
    39   24   22 1    
    40   25   24 ar   
    41   29   24 ar   
    42   26   25 ar   
    43   39   25 1    
    44   27   26 ar   
    45   40   26 1    
    46   28   27 ar   
    47   41   27 1    
    48   29   28 ar   
    49   42   28 1    
    50   43   29 1    
@<TRIPOS>SUBSTRUCTURE
     1 0N5505      1 GROUP   
@<TRIPOS>SET

