#    Name: 1gwx_433_1_INTS_M
#    Modification time : Tue Mar 25 04:05:31 2014

@<TRIPOS>MOLECULE
1gwx_433_1_INTS_M
   99     0     6     0     0
SMALL
NO_CHARGES


@<TRIPOS>ATOM
      1 N          36.6010   10.5055   62.9180 N.am      1 SEC2        0.0000 
      2 N          36.3040   11.6710   62.7480 N.am      5 SEL2        0.0000 
      3 N          36.8980    9.3400   63.0880 N.am      3 SEP2        0.0000 
      4 N          36.5950   12.0545   63.9120 N.am      1 SEC2        0.0000 
      5 N          36.8860   12.4380   65.0760 N.am      3 SEP2        0.0000 
      6 N          34.2670   13.0700   63.3140 N.am      1 SEC2        0.0000 
      7 N          34.5370   12.7790   62.0220 N.am      5 SEL2        0.0000 
      8 N          33.9970   13.3610   64.6060 N.am      3 SEP2        0.0000 
      9 CA         37.4405   11.3270   58.8575 C.3       2 GLC5        0.0000 
     10 CA         36.0750   11.9710   60.4610 C.3       6 GLL5        0.0000 
     11 CA         38.8060   10.6830   57.2540 C.3       4 GLP5        0.0000 
     12 CA         38.3055   12.4965   58.7060 C.3       2 GLC5        0.0000 
     13 CA         37.2330   13.0430   60.2940 C.3       6 GLL5        0.0000 
     14 CA         39.3780   11.9500   57.1180 C.3       4 GLP5        0.0000 
     15 CA         37.9755   14.5210   59.3745 C.3       2 GLC5        0.0000 
     16 CA         38.7180   15.9990   58.4550 C.3       4 GLP5        0.0000 
     17 CA         37.4880   13.7825   62.2940 C.3       2 GLC5        0.0000 
     18 CA         37.7430   14.5220   64.2940 C.3       4 GLP5        0.0000 
     19 CA         34.6885   13.1940   58.0405 C.3       2 GLC5        0.0000 
     20 CA         35.0530   12.3230   59.3890 C.3       6 GLL5        0.0000 
     21 CA         34.3240   14.0650   56.6920 C.3       4 GLP5        0.0000 
     22 CA         33.2905   13.0565   60.1875 C.3       2 GLC5        0.0000 
     23 CA         31.5280   13.7900   60.9860 C.3       4 GLP5        0.0000 
     24 CA         34.7390   14.3695   59.3255 C.3       2 GLC5        0.0000 
     25 CA         34.4250   16.4160   59.2620 C.3       4 GLP5        0.0000 
     26 N          36.6065    9.9210   61.7190 N.am      1 SEC2        0.0000 
     27 N          36.3150   10.5020   60.3500 N.am      5 SEL2        0.0000 
     28 CA         34.1080    5.6240   58.0780 C.3       2 GLC5        0.0000 
     29 CA         34.2830    7.4720   59.1340 C.3       6 GLL5        0.0000 
     30 CA         33.9330    3.7760   57.0220 C.3       4 GLP5        0.0000 
     31 CA         37.3095    7.7440   58.5720 C.3       2 GLC5        0.0000 
     32 CA         35.3200    8.3810   59.2050 C.3       6 GLL5        0.0000 
     33 CA         39.2990    7.1070   57.9390 C.3       4 GLP5        0.0000 
     34 CA         26.4765    6.0810   58.9175 C.3       2 GLC5        0.0000 
     35 CA         28.0920    7.5370   58.4970 C.3       6 GLL5        0.0000 
     36 CA         24.8610    4.6250   59.3380 C.3       4 GLP5        0.0000 
     37 CA         31.3070    2.6400   50.9625 C.3       2 GLC5        0.0000 
     38 CA         32.1060    3.9630   51.1460 C.3       6 GLL5        0.0000 
     39 CA         30.5080    1.3170   50.7790 C.3       4 GLP5        0.0000 
     40 CA         32.9285    2.8090   49.6805 C.3       2 GLC5        0.0000 
     41 CA         33.7510    1.6550   48.2150 C.3       4 GLP5        0.0000 
     42 CA         28.8575    5.1580   53.3655 C.3       2 GLC5        0.0000 
     43 CA         30.9860    5.5280   53.1920 C.3       6 GLL5        0.0000 
     44 CA         26.7290    4.7880   53.5390 C.3       4 GLP5        0.0000 
     45 CA         32.7090    5.9975   54.9845 C.3       2 GLC5        0.0000 
     46 CA         31.8820    4.6150   54.3830 C.3       6 GLL5        0.0000 
     47 CA         33.5360    7.3800   55.5860 C.3       4 GLP5        0.0000 
     48 CA         30.5095    3.2005   55.1000 C.3       2 GLC5        0.0000 
     49 CA         29.1370    1.7860   55.8170 C.3       4 GLP5        0.0000 
     50 CA         32.9105    3.3270   53.7545 C.3       2 GLC5        0.0000 
     51 CA         33.9390    2.0390   53.1260 C.3       4 GLP5        0.0000 
     52 CA         32.9075    4.1955   55.7025 C.3       2 GLC5        0.0000 
     53 CA         27.9430    5.7305   63.0155 C.3       2 GLC5        0.0000 
     54 CA         28.0010    7.3380   62.4770 C.3       6 GLL5        0.0000 
     55 CA         27.8850    4.1230   63.5540 C.3       4 GLP5        0.0000 
     56 CA         38.3510   11.7945   60.7148 C.3       2 GLC5        0.0000 
     57 CA         40.0480   11.0820   61.0520 C.3       4 GLP5        0.0000 
     58 CA         33.9438    8.5370   57.7134 C.3       2 GLC5        0.0000 
     59 CA         33.3600    9.1160   56.0400 C.3       4 GLP5        0.0000 
     60 CA         32.8077    5.0292   58.1748 C.3       2 GLC5        0.0000 
     61 CA         32.0560    6.5490   59.9020 C.3       6 GLL5        0.0000 
     62 CA         32.2832    6.9660   56.9412 C.3       2 GLC5        0.0000 
     63 CA         31.3090    6.0160   58.7530 C.3       6 GLL5        0.0000 
     64 CA         26.8493    9.5017   57.9540 C.3       2 GLC5        0.0000 
     65 CA         25.8220   10.9170   56.8710 C.3       4 GLP5        0.0000 
     66 CA         30.5890    8.4177   52.0583 C.3       2 GLC5        0.0000 
     67 CA         30.1130    6.5870   53.6360 C.3       6 GLL5        0.0000 
     68 CA         31.4060    9.9150   51.0060 C.3       4 GLP5        0.0000 
     69 CA         32.0427    6.7188   54.5000 C.3       2 GLC5        0.0000 
     70 CA         30.7070    8.1567   51.0217 C.3       2 GLC5        0.0000 
     71 CA         29.5870    6.9150   51.2270 C.3       6 GLL5        0.0000 
     72 CA         28.2043    5.8529   52.8539 C.3       2 GLC5        0.0000 
     73 CA         29.2065    4.5013   51.0782 C.3       2 GLC5        0.0000 
     74 CA         28.4050    2.6040   51.1190 C.3       4 GLP5        0.0000 
     75 CA         33.2985    5.2345   51.8667 C.3       2 GLC5        0.0000 
     76 CA         31.1060    5.2210   51.8170 C.3       6 GLL5        0.0000 
     77 CA         34.9910    5.8770   52.2520 C.3       4 GLP5        0.0000 
     78 CA         29.7255    3.9893   51.8118 C.3       2 GLC5        0.0000 
     79 CA         32.7725    3.3155   52.3037 C.3       2 GLC5        0.0000 
     80 CA         33.2125    5.4742   53.0198 C.3       2 GLC5        0.0000 
     81 CA         25.6472    6.4040   60.2435 C.3       2 GLC5        0.0000 
     82 CA         26.3760    8.4620   60.5120 C.3       6 GLL5        0.0000 
     83 CA         28.3800    8.6050   63.3047 C.3       2 GLC5        0.0000 
     84 CA         26.4910    7.9040   61.7860 C.3       6 GLL5        0.0000 
     85 CA         29.5140    9.5890   64.4780 C.3       4 GLP5        0.0000 
     86 CA         26.1535    5.9192   62.8722 C.3       2 GLC5        0.0000 
     87 CA         26.3550    4.0170   63.5400 C.3       4 GLP5        0.0000 
     88 CA         24.2713    7.4482   64.1527 C.3       2 GLC5        0.0000 
     89 CA         24.1520    8.1040   62.2740 C.3       6 GLL5        0.0000 
     90 CA         23.7600    6.9750   65.8570 C.3       4 GLP5        0.0000 
     91 CA         24.4579   10.0821   62.5266 C.3       2 GLC5        0.0000 
     92 CA         25.4130    7.7390   62.6230 C.3       6 GLL5        0.0000 
     93 CA         24.5450   11.8720   63.3310 C.3       4 GLP5        0.0000 
     94 CA         24.6890    6.6915   59.9532 C.3       2 GLC5        0.0000 
     95 CA         23.9590    8.6630   60.9960 C.3       6 GLL5        0.0000 
     96 CA         25.5439    9.9664   58.2481 C.3       2 GLC5        0.0000 
     97 CA         25.2489   10.7404   60.8546 C.3       2 GLC5        0.0000 
     98 CA         24.8060    9.3740   58.9240 C.3       6 GLL5        0.0000 
     99 CA         25.2320   12.4650   62.0840 C.3       4 GLP5        0.0000 
@<TRIPOS>BOND
@<TRIPOS>SUBSTRUCTURE
     1 SEC2        1 GROUP        1 X    SEC  0     ROOT SEC X 2
     2 GLC5        9 GROUP        1 X    GLC  0     **** GLC X 6
     3 SEP2        3 GROUP        1 Y    SEP  0     ROOT SEP Y 9
     4 GLP5       11 GROUP        1 Y    GLP  0     **** GLP Y 13
     5 SEL2        2 GROUP        1 Z    SEL  0     ROOT SEL Z 16
     6 GLL5       10 GROUP        1 Z    GLL  0     **** GLL Z 20
@<TRIPOS>SET

