#    Name: 1gwx_433_1_ligand
#    Modification time : Tue Mar 25 04:05:31 2014

@<TRIPOS>MOLECULE
1gwx_433_1_ligand
   65    67     1     0     0
SMALL
NO_CHARGES


@<TRIPOS>ATOM
      1 C1A        35.6000   12.1910   61.8230 C.2       1 4331        0.0000 
      2 O1C        36.3040   11.6710   62.7480 O.co2     1 4331        0.0000 
      3 O1B        34.5370   12.7790   62.0220 O.co2     1 4331        0.0000 
      4 C1D        36.0750   11.9710   60.4610 C.3       1 4331        0.0000 
      5 C1X        37.2330   13.0430   60.2940 C.3       1 4331        0.0000 
      6 C1Y        35.0530   12.3230   59.3890 C.3       1 4331        0.0000 
      7 O1E        36.3150   10.5020   60.3500 O.3       1 4331        0.0000 
      8 C1F        35.3400    9.4410   60.1020 C.ar      1 4331        0.0000 
      9 C1G        34.2710    9.5320   60.9330 C.ar      1 4331        0.0000 
     10 C1I        33.2130    8.6390   60.9040 C.ar      1 4331        0.0000 
     11 C1K        33.1870    7.5980   60.0030 C.ar      1 4331        0.0000 
     12 C1J        34.2830    7.4720   59.1340 C.ar      1 4331        0.0000 
     13 C1H        35.3200    8.3810   59.2050 C.ar      1 4331        0.0000 
     14 C1L        32.0560    6.5490   59.9020 C.3       1 4331        0.0000 
     15 C1M        31.3090    6.0160   58.7530 C.3       1 4331        0.0000 
     16 C1N        30.7520    7.0880   57.8400 C.3       1 4331        0.0000 
     17 N2B        29.2840    7.3590   57.4340 N.am      1 4331        0.0000 
     18 C2C        28.0920    7.5370   58.4970 C.3       1 4331        0.0000 
     19 C2A        28.9860    7.1950   56.0570 C.2       1 4331        0.0000 
     20 O2A        27.8430    7.3520   55.6490 O.2       1 4331        0.0000 
     21 N3A        30.0000    6.9280   55.1040 N.am      1 4331        0.0000 
     22 C3B        30.1130    6.5870   53.6360 C.ar      1 4331        0.0000 
     23 C3C        29.4310    7.2540   52.5850 C.ar      1 4331        0.0000 
     24 C3E        29.5870    6.9150   51.2270 C.ar      1 4331        0.0000 
     25 C3G        30.4290    5.8820   50.8480 C.ar      1 4331        0.0000 
     26 C3F        31.1060    5.2210   51.8170 C.ar      1 4331        0.0000 
     27 CL3F       32.1060    3.9630   51.1460 Cl        1 4331        0.0000 
     28 C3D        30.9860    5.5280   53.1920 C.ar      1 4331        0.0000 
     29 CL3D       31.8820    4.6150   54.3830 Cl        1 4331        0.0000 
     30 C2D        27.6610    8.6360   59.5770 C.3       1 4331        0.0000 
     31 C2E        26.3760    8.4620   60.5120 C.ar      1 4331        0.0000 
     32 C2F        26.4910    7.9040   61.7860 C.ar      1 4331        0.0000 
     33 CL2F       28.0010    7.3380   62.4770 Cl        1 4331        0.0000 
     34 C2H        25.4130    7.7390   62.6230 C.ar      1 4331        0.0000 
     35 C2J        24.1520    8.1040   62.2740 C.ar      1 4331        0.0000 
     36 C2I        23.9590    8.6630   60.9960 C.ar      1 4331        0.0000 
     37 C2G        25.0750    8.8530   60.1410 C.ar      1 4331        0.0000 
     38 F2G        24.8060    9.3740   58.9240 F         1 4331        0.0000 
     39 H          34.2333   10.3167   61.6392 H         1 4331        0.0000 
     40 H          32.4282    8.7592   61.5739 H         1 4331        0.0000 
     41 H          34.3031    6.7050   58.4537 H         1 4331        0.0000 
     42 H          36.1354    8.2680   58.5496 H         1 4331        0.0000 
     43 H          31.2520    6.8959   60.7154 H         1 4331        0.0000 
     44 H          32.4591    5.6127   60.5259 H         1 4331        0.0000 
     45 H          30.4672    5.3861   59.1055 H         1 4331        0.0000 
     46 H          31.9602    5.3496   58.1518 H         1 4331        0.0000 
     47 H          31.3571    7.0304   56.8336 H         1 4331        0.0000 
     48 H          31.1739    8.1171   58.2213 H         1 4331        0.0000 
     49 H          28.0646    6.4944   59.0949 H         1 4331        0.0000 
     50 H          27.0919    7.3208   57.8658 H         1 4331        0.0000 
     51 H          31.0534    6.9798   55.5544 H         1 4331        0.0000 
     52 H          28.7834    8.0330   52.8354 H         1 4331        0.0000 
     53 H          29.0647    7.4472   50.5148 H         1 4331        0.0000 
     54 H          30.5265    5.6366   49.8601 H         1 4331        0.0000 
     55 H          27.5497    9.6167   59.0315 H         1 4331        0.0000 
     56 H          28.5475    8.8082   60.2524 H         1 4331        0.0000 
     57 H          25.5788    7.3113   63.5726 H         1 4331        0.0000 
     58 H          23.3585    7.9872   62.8977 H         1 4331        0.0000 
     59 H          23.0285    8.9300   60.6840 H         1 4331        0.0000 
     60 H          37.9638   12.9075   60.9630 H         1 4331        0.0000 
     61 H          37.6532   12.9977   59.3877 H         1 4331        0.0000 
     62 H          36.8951   13.9765   60.4140 H         1 4331        0.0000 
     63 H          35.4078   12.1573   58.4689 H         1 4331        0.0000 
     64 H          34.2163   11.7833   59.4821 H         1 4331        0.0000 
     65 H          34.7869   13.2860   59.4315 H         1 4331        0.0000 
@<TRIPOS>BOND
     1    2    1 ar   
     2    3    1 ar   
     3    4    1 1    
     4    5    4 1    
     5    6    4 1    
     6    7    4 1    
     7   60    5 1    
     8   61    5 1    
     9   62    5 1    
    10   63    6 1    
    11   64    6 1    
    12   65    6 1    
    13    8    7 1    
    14    9    8 ar   
    15   13    8 ar   
    16   10    9 ar   
    17   39    9 1    
    18   11   10 ar   
    19   40   10 1    
    20   12   11 ar   
    21   14   11 1    
    22   13   12 ar   
    23   41   12 1    
    24   42   13 1    
    25   15   14 1    
    26   43   14 1    
    27   44   14 1    
    28   16   15 1    
    29   45   15 1    
    30   46   15 1    
    31   17   16 1    
    32   47   16 1    
    33   48   16 1    
    34   18   17 1    
    35   19   17 am   
    36   30   18 1    
    37   49   18 1    
    38   50   18 1    
    39   20   19 2    
    40   21   19 am   
    41   22   21 1    
    42   51   21 1    
    43   23   22 ar   
    44   28   22 ar   
    45   24   23 ar   
    46   52   23 1    
    47   25   24 ar   
    48   53   24 1    
    49   26   25 ar   
    50   54   25 1    
    51   27   26 1    
    52   28   26 ar   
    53   29   28 1    
    54   31   30 1    
    55   55   30 1    
    56   56   30 1    
    57   32   31 ar   
    58   37   31 ar   
    59   33   32 1    
    60   34   32 ar   
    61   35   34 ar   
    62   57   34 1    
    63   36   35 ar   
    64   58   35 1    
    65   37   36 ar   
    66   59   36 1    
    67   38   37 1    
@<TRIPOS>SUBSTRUCTURE
     1 4331        1 GROUP   
@<TRIPOS>SET

