#    Name: 2XPB_1_CAVITY_N1_ALL.mol2
#    Modification time : Tue Mar 11 00:18:52 2014

@<TRIPOS>MOLECULE
2XPB_1_CAVITY_N1_ALL.mol2
   65     0     6     0     0
SMALL
NO_CHARGES


@<TRIPOS>ATOM
      1 O          41.8015  -11.3961   13.3537 O.2       2 ALA2        0.0000 
      2 O          41.9988  -11.9474   11.9727 O.2       2 ALA2        0.0000 
      3 OG         41.5686  -13.3656   14.1067 O.2       1 SER1        0.0000 
      4 OG         40.6401  -12.3232   13.5579 O.2       1 SER1        0.0000 
      5 OG         41.7659  -13.9169   12.7258 O.2       1 SER1        0.0000 
      6 DU         40.8374  -12.8745   12.1769 H         6 CUB7        0.0000 
      7 OD1        39.9088  -11.8321   11.6281 O.3       3 ASP3        0.0000 
      8 DU         41.9633  -14.4682   11.3448 H         6 CUB7        0.0000 
      9 DU         41.0347  -13.4258   10.7959 H         6 CUB7        0.0000 
     10 O          40.1062  -12.3835   10.2471 O.2       2 ALA2        0.0000 
     11 OG         39.4787  -13.2502   13.7621 O.2       1 SER1        0.0000 
     12 CA         43.3902  -17.9711   14.5765 C.3       5 GLY6        0.0000 
     13 N          42.4616  -16.9287   14.0276 N.2       2 ALA2        0.0000 
     14 OG         41.5331  -15.8863   13.4788 O.2       1 SER1        0.0000 
     15 OG         40.6045  -14.8440   12.9299 O.2       1 SER1        0.0000 
     16 OG         39.6760  -13.8016   12.3811 O.2       1 SER1        0.0000 
     17 OD1        38.7474  -12.7592   11.8322 O.3       3 ASP3        0.0000 
     18 DU         41.7304  -16.4377   12.0978 H         6 CUB7        0.0000 
     19 DU         40.8019  -15.3953   11.5490 H         6 CUB7        0.0000 
     20 DU         39.8733  -14.3529   11.0001 H         6 CUB7        0.0000 
     21 DU         38.9448  -13.3105   10.4513 H         6 CUB7        0.0000 
     22 DU         42.8563  -18.0314   11.2657 H         6 CUB7        0.0000 
     23 DU         40.9992  -15.9466   10.1680 H         6 CUB7        0.0000 
     24 CA         40.0707  -14.9043    9.6191 C.3       5 GLY6        0.0000 
     25 CA         39.1421  -13.8619    9.0703 C.3       5 GLY6        0.0000 
     26 CA         38.5146  -14.7286   12.5852 C.3       5 GLY6        0.0000 
     27 O          42.4261  -19.4495   13.3997 O.2       2 ALA2        0.0000 
     28 N          41.4976  -18.4071   12.8508 N.2       2 ALA2        0.0000 
     29 OG         40.5690  -17.3648   12.3020 O.2       1 SER1        0.0000 
     30 OG         39.6405  -16.3224   11.7531 O.2       1 SER1        0.0000 
     31 CA         38.7119  -15.2800   11.2043 C.3       5 GLY6        0.0000 
     32 CA         37.7834  -14.2376   10.6554 C.3       5 GLY6        0.0000 
     33 CA         42.6235  -20.0009   12.0187 C.3       5 GLY6        0.0000 
     34 CA         41.6949  -18.9585   11.4698 C.3       5 GLY6        0.0000 
     35 DU         40.7664  -17.9161   10.9210 H         6 CUB7        0.0000 
     36 CA         39.8378  -16.8737   10.3721 C.3       5 GLY6        0.0000 
     37 CA         38.9093  -15.8313    9.8233 C.3       5 GLY6        0.0000 
     38 CA         41.8922  -19.5098   10.0889 C.3       5 GLY6        0.0000 
     39 DU         40.9637  -18.4674    9.5400 H         6 CUB7        0.0000 
     40 CA         40.0351  -17.4251    8.9912 C.3       5 GLY6        0.0000 
     41 CA         42.0896  -20.0612    8.7079 C.3       5 GLY6        0.0000 
     42 CA         41.1610  -19.0188    8.1590 C.3       5 GLY6        0.0000 
     43 CA         40.2325  -17.9764    7.6102 C.3       5 GLY6        0.0000 
     44 CA         41.0674  -19.8253   14.9848 C.3       5 GLY6        0.0000 
     45 N          40.1388  -18.7829   14.4359 N.2       2 ALA2        0.0000 
     46 OG         39.2103  -17.7405   13.8871 O.2       1 SER1        0.0000 
     47 CA         38.2817  -16.6981   13.3383 C.3       5 GLY6        0.0000 
     48 O          41.2647  -20.3766   13.6038 O.2       2 ALA2        0.0000 
     49 DU         40.3362  -19.3342   13.0550 H         6 CUB7        0.0000 
     50 DU         39.4076  -18.2918   12.5061 H         6 CUB7        0.0000 
     51 DU         38.4791  -17.2494   11.9573 H         6 CUB7        0.0000 
     52 CA         37.5505  -16.2071   11.4084 C.3       5 GLY6        0.0000 
     53 CA         40.5335  -19.8856   11.6740 C.3       5 GLY6        0.0000 
     54 DU         39.6049  -18.8432   11.1252 H         6 CUB7        0.0000 
     55 N          38.6764  -17.8008   10.5763 N.2       2 ALA2        0.0000 
     56 CA         39.8023  -19.3945    9.7442 C.3       5 GLY6        0.0000 
     57 CA         38.8737  -18.3521    9.1953 C.3       5 GLY6        0.0000 
     58 CA         39.9996  -19.9458    8.3632 C.3       5 GLY6        0.0000 
     59 N          38.9774  -19.7099   14.6401 N.2       2 ALA2        0.0000 
     60 CZ         39.1748  -20.2613   13.2591 C.ar      4 PHE5        0.0000 
     61 O          38.2462  -19.2189   12.7103 O.2       2 ALA2        0.0000 
     62 O          37.3177  -18.1765   12.1615 O.2       2 ALA2        0.0000 
     63 CA         39.3721  -20.8126   11.8782 C.3       5 GLY6        0.0000 
     64 CZ         38.4435  -19.7702   11.3293 C.ar      4 PHE5        0.0000 
     65 CA         38.6409  -20.3216    9.9484 C.3       5 GLY6        0.0000 
@<TRIPOS>BOND
@<TRIPOS>SUBSTRUCTURE
     1 SER1        3 GROUP   
     2 ALA2        1 GROUP   
     3 ASP3        7 GROUP   
     4 PHE5       60 GROUP   
     5 GLY6       12 GROUP   
     6 CUB7        6 GROUP   
@<TRIPOS>SET

