#    Name: 2xpb_4GE_1_INTS_M
#    Modification time : Tue Mar 25 06:28:47 2014

@<TRIPOS>MOLECULE
2xpb_4GE_1_INTS_M
   60     0    12     0     0
SMALL
NO_CHARGES


@<TRIPOS>ATOM
      1 CA         38.8285  -16.4870   14.2340 C.3       4 GLC5        0.0000 
      2 CA         39.4070  -17.8470   12.7850 C.3      12 GLL5        0.0000 
      3 CA         38.2500  -15.1270   15.6830 C.3       8 GLP5        0.0000 
      4 CA         40.9055  -20.2570   15.8980 C.3       4 GLC5        0.0000 
      5 CA         39.6560  -20.0070   14.4540 C.3      12 GLL5        0.0000 
      6 CA         42.1550  -20.5070   17.3420 C.3       8 GLP5        0.0000 
      7 CA         39.0590  -21.5815   14.9985 C.3       4 GLC5        0.0000 
      8 CA         38.4620  -23.1560   15.5430 C.3       8 GLP5        0.0000 
      9 CA         38.6000  -20.1540   16.3230 C.3       4 GLC5        0.0000 
     10 CA         37.5440  -20.3010   18.1920 C.3       8 GLP5        0.0000 
     11 CA         38.3685  -19.1270    8.6700 C.3       4 GLC5        0.0000 
     12 CA         38.9510  -18.0020   10.4380 C.3      12 GLL5        0.0000 
     13 CA         37.7860  -20.2520    6.9020 C.3       8 GLP5        0.0000 
     14 O          39.7035  -15.2160   13.9670 O.2       1 ALC1        0.0000 
     15 O          39.7830  -15.1150   12.4820 O.2       9 ALL1        0.0000 
     16 O          39.6240  -15.3170   15.4520 O.2       5 ALP1        0.0000 
     17 CA         37.9635  -14.7705    9.4625 C.3       4 GLC5        0.0000 
     18 CA         39.1440  -13.7380   10.8640 C.3      12 GLL5        0.0000 
     19 CA         36.7830  -15.8030    8.0610 C.3       8 GLP5        0.0000 
     20 N          37.3610  -12.8320    7.6060 N.am      2 SEC2        0.0000 
     21 N          38.4260  -12.5990    8.8300 N.am     10 SEL2        0.0000 
     22 N          36.2960  -13.0650    6.3820 N.am      6 SEP2        0.0000 
     23 NZ         38.3990  -10.6220   11.4970 N.4       3 LYC4        0.0000 
     24 NZ         39.0700  -11.3200   10.4500 N.4      11 LYL4        0.0000 
     25 NZ         37.7280   -9.9240   12.5440 N.4       7 LYP4        0.0000 
     26 NZ         39.2920  -10.2105   10.2255 N.4       3 LYC4        0.0000 
     27 NZ         40.2150   -8.2750   10.7700 N.4       7 LYP4        0.0000 
     28 N          38.3990  -10.6220   11.4970 N.am      2 SEC2        0.0000 
     29 N          39.0700  -11.3200   10.4500 N.am     10 SEL2        0.0000 
     30 N          37.7280   -9.9240   12.5440 N.am      6 SEP2        0.0000 
     31 N          39.2920  -10.2105   10.2255 N.am      2 SEC2        0.0000 
     32 N          39.5140   -9.1010   10.0010 N.am      6 SEP2        0.0000 
     33 CA         38.9945  -14.4705   13.9105 C.3       4 GLC5        0.0000 
     34 CA         39.7390  -13.8140   12.1380 C.3      12 GLL5        0.0000 
     35 CA         41.5070  -10.1215   14.5170 C.3       4 GLC5        0.0000 
     36 CA         42.2280  -11.8120   14.3560 C.3      12 GLL5        0.0000 
     37 CA         40.7860   -8.4310   14.6780 C.3       8 GLP5        0.0000 
     38 CA         40.2600  -14.4220   15.8905 C.3       4 GLC5        0.0000 
     39 CA         42.2700  -13.7170   16.0980 C.3      12 GLL5        0.0000 
     40 CA         41.9795  -14.8875   18.7410 C.3       4 GLC5        0.0000 
     41 CA         42.9290  -14.5400   17.0230 C.3      12 GLL5        0.0000 
     42 CA         41.0300  -15.2350   20.4590 C.3       8 GLP5        0.0000 
     43 CA         38.1863  -20.9138    9.8598 C.3       4 GLC5        0.0000 
     44 CA         39.0910  -20.0120   11.7750 C.3      12 GLL5        0.0000 
     45 CA         37.3810  -22.1230    8.5690 C.3       8 GLP5        0.0000 
     46 CA         40.4108  -21.1208   10.9373 C.3       4 GLC5        0.0000 
     47 CA         38.8920  -19.3970   10.5260 C.3      12 GLL5        0.0000 
     48 CA         41.8300  -22.5370   10.7240 C.3       8 GLP5        0.0000 
     49 CA         37.9233  -16.7080    9.5308 C.3       4 GLC5        0.0000 
     50 CA         37.4378  -14.1390   12.0290 C.3       4 GLC5        0.0000 
     51 CA         35.4340  -14.5020   12.5570 C.3       8 GLP5        0.0000 
     52 CA         37.9997  -12.2750   12.2065 C.3       4 GLC5        0.0000 
     53 CA         36.5580  -10.7740   12.9120 C.3       8 GLP5        0.0000 
     54 CA         42.2572  -12.6397   17.5717 C.3       4 GLC5        0.0000 
     55 CA         41.9150  -11.1510   18.5830 C.3       8 GLP5        0.0000 
     56 CA         43.9380  -12.5892   18.1875 C.3       4 GLC5        0.0000 
     57 CA         44.3010  -14.4070   17.2490 C.3      12 GLL5        0.0000 
     58 CA         43.2190  -11.2660   19.4810 C.3       8 GLP5        0.0000 
     59 CA         42.6931  -11.7874   16.9142 C.3       4 GLC5        0.0000 
     60 CA         44.3460  -12.5820   15.6170 C.3      12 GLL5        0.0000 
@<TRIPOS>BOND
@<TRIPOS>SUBSTRUCTURE
     1 ALC1       14 GROUP        1 X    ALC  0     ROOT ALC X 1
     2 SEC2       20 GROUP        1 X    SEC  0     **** SEC X 2
     3 LYC4       23 GROUP        1 X    LYC  0     **** LYC X 4
     4 GLC5        1 GROUP        1 X    GLC  0     **** GLC X 6
     5 ALP1       16 GROUP        1 Y    ALP  0     ROOT ALP Y 8
     6 SEP2       22 GROUP        1 Y    SEP  0     **** SEP Y 9
     7 LYP4       25 GROUP        1 Y    LYP  0     **** LYP Y 11
     8 GLP5        3 GROUP        1 Y    GLP  0     **** GLP Y 13
     9 ALL1       15 GROUP        1 Z    ALL  0     ROOT ALL Z 15
    10 SEL2       21 GROUP        1 Z    SEL  0     **** SEL Z 16
    11 LYL4       24 GROUP        1 Z    LYL  0     **** LYL Z 18
    12 GLL5        2 GROUP        1 Z    GLL  0     **** GLL Z 20
@<TRIPOS>SET

