#    Name: 2xpb_4GE_1_ligand
#    Modification time : Tue Mar 25 06:28:47 2014

@<TRIPOS>MOLECULE
2xpb_4GE_1_ligand
   41    43     1     0     0
SMALL
NO_CHARGES


@<TRIPOS>ATOM
      1 C5         39.4070  -17.8470   12.7850 C.ar      1 4GE1165     0.0000 
      2 C6         39.3470  -19.2380   12.9100 C.ar      1 4GE1165     0.0000 
      3 CL1        39.6560  -20.0070   14.4540 Cl        1 4GE1165     0.0000 
      4 C1         39.0910  -20.0120   11.7750 C.ar      1 4GE1165     0.0000 
      5 C2         38.8920  -19.3970   10.5260 C.ar      1 4GE1165     0.0000 
      6 C3         38.9510  -18.0020   10.4380 C.ar      1 4GE1165     0.0000 
      7 C4         39.1760  -17.2240   11.5630 C.ar      1 4GE1165     0.0000 
      8 C7         39.2480  -15.8420   11.4880 C.2       1 4GE1165     0.0000 
      9 N8         39.7830  -15.1150   12.4820 N.pl3     1 4GE1165     0.0000 
     10 N11        38.8340  -14.9970   10.4890 N.2       1 4GE1165     0.0000 
     11 C10        39.1440  -13.7380   10.8640 C.2       1 4GE1165     0.0000 
     12 C13        38.8660  -12.4650    9.9880 C.2       1 4GE1165     0.0000 
     13 O15        38.4260  -12.5990    8.8300 O.co2     1 4GE1165     0.0000 
     14 O14        39.0700  -11.3200   10.4500 O.co2     1 4GE1165     0.0000 
     15 C9         39.7390  -13.8140   12.1380 C.2       1 4GE1165     0.0000 
     16 C16        40.3110  -12.7470   13.1350 C.2       1 4GE1165     0.0000 
     17 O18        39.5500  -12.0730   13.8250 O.2       1 4GE1165     0.0000 
     18 N17        41.6540  -12.7150   13.3110 N.am      1 4GE1165     0.0000 
     19 C21        42.5210  -13.5960   12.4530 C.3       1 4GE1165     0.0000 
     20 C19        42.2280  -11.8120   14.3560 C.3       1 4GE1165     0.0000 
     21 C20        42.9650  -12.7190   15.3920 C.ar      1 4GE1165     0.0000 
     22 C22        42.2700  -13.7170   16.0980 C.ar      1 4GE1165     0.0000 
     23 C23        42.9290  -14.5400   17.0230 C.ar      1 4GE1165     0.0000 
     24 C24        44.3010  -14.4070   17.2490 C.ar      1 4GE1165     0.0000 
     25 C25        45.0130  -13.4180   16.5390 C.ar      1 4GE1165     0.0000 
     26 C26        44.3460  -12.5820   15.6170 C.ar      1 4GE1165     0.0000 
     27 H          39.6273  -17.2734   13.6179 H         1 4GE1165     0.0000 
     28 H          39.0472  -21.0352   11.8492 H         1 4GE1165     0.0000 
     29 H          38.7078  -19.9618    9.6997 H         1 4GE1165     0.0000 
     30 H          38.8240  -17.5492    9.5162 H         1 4GE1165     0.0000 
     31 H          40.1421  -15.4666   13.3111 H         1 4GE1165     0.0000 
     32 H          41.4514  -11.2778   14.8696 H         1 4GE1165     0.0000 
     33 H          42.9461  -11.1385   13.9282 H         1 4GE1165     0.0000 
     34 H          41.2606  -13.8445   15.9320 H         1 4GE1165     0.0000 
     35 H          42.3919  -15.2512   17.5413 H         1 4GE1165     0.0000 
     36 H          44.7824  -15.0080   17.9107 H         1 4GE1165     0.0000 
     37 H          46.0191  -13.3050   16.6924 H         1 4GE1165     0.0000 
     38 H          44.8780  -11.8668   15.1065 H         1 4GE1165     0.0000 
     39 H          43.4908  -13.4894   12.6723 H         1 4GE1165     0.0000 
     40 H          42.2985  -14.5638   12.5707 H         1 4GE1165     0.0000 
     41 H          42.4156  -13.3871   11.4808 H         1 4GE1165     0.0000 
@<TRIPOS>BOND
     1    2    1 ar   
     2    7    1 ar   
     3   27    1 1    
     4    3    2 1    
     5    4    2 ar   
     6    5    4 ar   
     7   28    4 1    
     8    6    5 ar   
     9   29    5 1    
    10    7    6 ar   
    11   30    6 1    
    12    8    7 1    
    13    9    8 1    
    14   10    8 2    
    15   15    9 1    
    16   31    9 1    
    17   11   10 1    
    18   12   11 1    
    19   15   11 2    
    20   13   12 ar   
    21   14   12 ar   
    22   16   15 1    
    23   17   16 2    
    24   18   16 am   
    25   19   18 1    
    26   20   18 1    
    27   39   19 1    
    28   40   19 1    
    29   41   19 1    
    30   21   20 1    
    31   32   20 1    
    32   33   20 1    
    33   22   21 ar   
    34   26   21 ar   
    35   23   22 ar   
    36   34   22 1    
    37   24   23 ar   
    38   35   23 1    
    39   25   24 ar   
    40   36   24 1    
    41   26   25 ar   
    42   37   25 1    
    43   38   26 1    
@<TRIPOS>SUBSTRUCTURE
     1 4GE1165     1 GROUP   
@<TRIPOS>SET

