#    Name: 4deb_NHJ_1_INTS_M
#    Modification time : Mon Apr  7 22:32:42 2014

@<TRIPOS>MOLECULE
4deb_NHJ_1_INTS_M
   67     0     9     0     0
SMALL
NO_CHARGES


@<TRIPOS>ATOM
      1 O          -2.7385  -34.3300    7.3360 O.2       1 ALC1        0.0000 
      2 O          -2.8300  -32.8940    6.7300 O.2       7 ALL1        0.0000 
      3 O          -2.6470  -35.7660    7.9420 O.2       4 ALP1        0.0000 
      4 N          -3.2950  -32.9795    9.5410 N.am      2 SEC2        0.0000 
      5 N          -3.6850  -31.8290    8.5330 N.am      8 SEL2        0.0000 
      6 N          -2.9050  -34.1300   10.5490 N.am      5 SEP2        0.0000 
      7 CA         -1.9940  -30.7020    6.9910 C.3       3 GLC5        0.0000 
      8 CA         -3.4500  -31.8440    7.1890 C.3       9 GLL5        0.0000 
      9 CA         -0.5380  -29.5600    6.7930 C.3       6 GLP5        0.0000 
     10 CA         -5.1640  -32.5850    6.8460 C.3       3 GLC5        0.0000 
     11 CA         -6.8780  -33.3260    6.5030 C.3       6 GLP5        0.0000 
     12 CA         -5.6695  -31.5475    6.6895 C.3       3 GLC5        0.0000 
     13 CA         -4.4610  -29.7690    6.8760 C.3       9 GLL5        0.0000 
     14 CA         -5.9035  -30.5215   10.6245 C.3       3 GLC5        0.0000 
     15 CA         -4.3340  -30.7270    9.0260 C.3       9 GLL5        0.0000 
     16 CA         -7.4730  -30.3160   12.2230 C.3       6 GLP5        0.0000 
     17 CA         -2.9860  -31.6305   10.4845 C.3       3 GLC5        0.0000 
     18 CA         -1.6380  -32.5340   11.9430 C.3       6 GLP5        0.0000 
     19 N           0.6250  -34.2605    1.9505 N.am      2 SEC2        0.0000 
     20 N          -0.4490  -35.1850    1.4340 N.am      8 SEL2        0.0000 
     21 N           1.6990  -33.3360    2.4670 N.am      5 SEP2        0.0000 
     22 CA         -8.6500  -24.9350    6.9340 C.3       3 GLC5        0.0000 
     23 CA         -9.3080  -26.8420    6.0810 C.3       9 GLL5        0.0000 
     24 CA         -7.9920  -23.0280    7.7870 C.3       6 GLP5        0.0000 
     25 CA        -10.9880  -26.9360    7.2515 C.3       3 GLC5        0.0000 
     26 CA        -12.6680  -27.0300    8.4220 C.3       6 GLP5        0.0000 
     27 CA         -9.6580  -25.8795    3.4070 C.3       3 GLC5        0.0000 
     28 CA        -10.3290  -27.5920    4.1840 C.3       9 GLL5        0.0000 
     29 CA         -8.9870  -24.1670    2.6300 C.3       6 GLP5        0.0000 
     30 CA        -11.6760  -30.1160    5.8250 C.3       3 GLC5        0.0000 
     31 CA        -10.1030  -28.9950    5.9780 C.3       9 GLL5        0.0000 
     32 CA        -13.2490  -31.2370    5.6720 C.3       6 GLP5        0.0000 
     33 CA        -10.2540  -29.7915    8.0050 C.3       3 GLC5        0.0000 
     34 CA        -10.4050  -30.5880   10.0320 C.3       6 GLP5        0.0000 
     35 CA        -11.3855  -28.0125    7.2000 C.3       3 GLC5        0.0000 
     36 CA         -2.7430  -35.2498    4.5278 C.3       3 GLC5        0.0000 
     37 CA         -1.4210  -34.0600    5.2980 C.3       9 GLL5        0.0000 
     38 CA         -4.2710  -36.2530    4.4060 C.3       6 GLP5        0.0000 
     39 CA         -3.2437  -34.8678    3.6803 C.3       3 GLC5        0.0000 
     40 CA         -1.6730  -33.9280    2.8640 C.3       9 GLL5        0.0000 
     41 CA         -1.9238  -31.0930    4.0168 C.3       3 GLC5        0.0000 
     42 CA         -2.7600  -33.0370    3.0450 C.3       9 GLL5        0.0000 
     43 CA         -0.8820  -29.3340    4.3380 C.3       6 GLP5        0.0000 
     44 CA         -3.5528  -34.5880    4.6630 C.3       3 GLC5        0.0000 
     45 CA         -3.1710  -32.6670    4.3460 C.3       9 GLL5        0.0000 
     46 CA         -4.8563  -33.1245    5.7115 C.3       3 GLC5        0.0000 
     47 CA         -2.4980  -33.1790    5.4940 C.3       9 GLL5        0.0000 
     48 CA         -0.4898  -32.2674    5.1374 C.3       3 GLC5        0.0000 
     49 CA          0.8770  -30.8220    5.2030 C.3       6 GLP5        0.0000 
     50 CA         -2.5725  -29.6347    7.1765 C.3       3 GLC5        0.0000 
     51 CA         -3.7580  -28.0613    7.4980 C.3       3 GLC5        0.0000 
     52 CA         -2.9090  -26.4130    7.4360 C.3       6 GLP5        0.0000 
     53 CA         -2.9547  -29.3603    9.5085 C.3       3 GLC5        0.0000 
     54 CA         -4.7530  -29.6500    8.2440 C.3       9 GLL5        0.0000 
     55 CA         -1.3660  -28.5320   10.3820 C.3       6 GLP5        0.0000 
     56 CA         -5.9632  -31.3242    8.7170 C.3       3 GLC5        0.0000 
     57 CA         -7.3830  -32.4600    8.7990 C.3       6 GLP5        0.0000 
     58 CA         -7.5280  -31.1700    3.0492 C.3       3 GLC5        0.0000 
     59 CA         -6.6370  -29.2670    2.9430 C.3       9 GLL5        0.0000 
     60 CA         -7.7680  -33.2810    2.9420 C.3       6 GLP5        0.0000 
     61 CA         -7.8143  -26.6567    3.4515 C.3       3 GLC5        0.0000 
     62 CA         -7.9390  -28.8510    3.3700 C.3       9 GLL5        0.0000 
     63 CA         -7.5880  -24.6750    2.8510 C.3       6 GLP5        0.0000 
     64 CA         -5.2698  -27.1713    5.3461 C.3       3 GLC5        0.0000 
     65 CA         -7.0500  -28.4260    5.6430 C.3       9 GLL5        0.0000 
     66 CA         -4.1870  -25.6060    5.5960 C.3       6 GLP5        0.0000 
     67 CA         -8.4953  -26.0388    4.2575 C.3       3 GLC5        0.0000 
@<TRIPOS>BOND
@<TRIPOS>SUBSTRUCTURE
     1 ALC1        1 GROUP        1 X    ALC  0     ROOT ALC X 1
     2 SEC2        4 GROUP        1 X    SEC  0     **** SEC X 2
     3 GLC5        7 GROUP        1 X    GLC  0     **** GLC X 6
     4 ALP1        3 GROUP        1 Y    ALP  0     ROOT ALP Y 8
     5 SEP2        6 GROUP        1 Y    SEP  0     **** SEP Y 9
     6 GLP5        9 GROUP        1 Y    GLP  0     **** GLP Y 13
     7 ALL1        2 GROUP        1 Z    ALL  0     ROOT ALL Z 15
     8 SEL2        5 GROUP        1 Z    SEL  0     **** SEL Z 16
     9 GLL5        8 GROUP        1 Z    GLL  0     **** GLL Z 20
@<TRIPOS>SET

