#    Name: 4deb_NHJ_1_ligand
#    Modification time : Mon Apr  7 22:32:42 2014

@<TRIPOS>MOLECULE
4deb_NHJ_1_ligand
   41    43     1     0     0
SMALL
NO_CHARGES


@<TRIPOS>ATOM
      1 N01        -2.8300  -32.8940    6.7300 N.pl3     1 NHJ501      0.0000 
      2 N02        -3.8160  -30.8470    6.3360 N.ar      1 NHJ501      0.0000 
      3 N03        -3.6850  -31.8290    8.5330 N.ar      1 NHJ501      0.0000 
      4 N04        -4.8000  -28.8050    6.0810 N.pl3     1 NHJ501      0.0000 
      5 N05        -1.8240  -33.6930    0.4960 N.am      1 NHJ501      0.0000 
      6 C06        -1.4210  -34.0600    5.2980 C.ar      1 NHJ501      0.0000 
      7 C07        -1.0090  -34.4330    4.0010 C.ar      1 NHJ501      0.0000 
      8 C08        -1.6730  -33.9280    2.8640 C.ar      1 NHJ501      0.0000 
      9 C09        -2.7600  -33.0370    3.0450 C.ar      1 NHJ501      0.0000 
     10 C10        -3.1710  -32.6670    4.3460 C.ar      1 NHJ501      0.0000 
     11 C11        -2.4980  -33.1790    5.4940 C.ar      1 NHJ501      0.0000 
     12 C12        -3.4500  -31.8440    7.1890 C.ar      1 NHJ501      0.0000 
     13 C13        -4.4610  -29.7690    6.8760 C.ar      1 NHJ501      0.0000 
     14 C14        -4.7530  -29.6500    8.2440 C.ar      1 NHJ501      0.0000 
     15 C15        -4.3340  -30.7270    9.0260 C.ar      1 NHJ501      0.0000 
     16 C16        -5.7620  -28.8360    5.2290 C.ar      1 NHJ501      0.0000 
     17 C17        -5.5480  -29.2580    3.8700 C.ar      1 NHJ501      0.0000 
     18 C18        -6.6370  -29.2670    2.9430 C.ar      1 NHJ501      0.0000 
     19 C19        -7.9390  -28.8510    3.3700 C.ar      1 NHJ501      0.0000 
     20 C20        -8.1420  -28.4260    4.7340 C.ar      1 NHJ501      0.0000 
     21 C21        -7.0500  -28.4260    5.6430 C.ar      1 NHJ501      0.0000 
     22 C22        -9.4970  -27.9630    5.2470 C.3       1 NHJ501      0.0000 
     23 C23        -1.2760  -34.2990    1.5980 C.2       1 NHJ501      0.0000 
     24 O24        -0.4490  -35.1850    1.4340 O.2       1 NHJ501      0.0000 
     25 F25        -9.3080  -26.8420    6.0810 F         1 NHJ501      0.0000 
     26 F26       -10.3290  -27.5920    4.1840 F         1 NHJ501      0.0000 
     27 F27       -10.1030  -28.9950    5.9780 F         1 NHJ501      0.0000 
     28 H          -2.5406  -33.6572    7.4909 H         1 NHJ501      0.0000 
     29 H          -4.2101  -27.8786    6.1430 H         1 NHJ501      0.0000 
     30 H          -1.5071  -34.0256   -0.3922 H         1 NHJ501      0.0000 
     31 H          -2.4925  -32.9717    0.6773 H         1 NHJ501      0.0000 
     32 H          -0.9213  -34.4420    6.1147 H         1 NHJ501      0.0000 
     33 H          -0.2193  -35.0773    3.8845 H         1 NHJ501      0.0000 
     34 H          -3.2485  -32.6606    2.2295 H         1 NHJ501      0.0000 
     35 H          -3.9586  -32.0258    4.4707 H         1 NHJ501      0.0000 
     36 H          -5.2190  -28.8633    8.6196 H         1 NHJ501      0.0000 
     37 H          -4.5350  -30.6805   10.0657 H         1 NHJ501      0.0000 
     38 H          -4.6230  -29.5485    3.5732 H         1 NHJ501      0.0000 
     39 H          -6.4885  -29.5668    1.9864 H         1 NHJ501      0.0000 
     40 H          -8.7151  -28.8533    2.7230 H         1 NHJ501      0.0000 
     41 H          -7.2014  -28.1241    6.6113 H         1 NHJ501      0.0000 
@<TRIPOS>BOND
     1   11    1 1    
     2   12    1 1    
     3   28    1 1    
     4   12    2 ar   
     5   13    2 ar   
     6   12    3 ar   
     7   15    3 ar   
     8   13    4 1    
     9   16    4 1    
    10   29    4 1    
    11   23    5 am   
    12   30    5 1    
    13   31    5 1    
    14    7    6 ar   
    15   11    6 ar   
    16   32    6 1    
    17    8    7 ar   
    18   33    7 1    
    19    9    8 ar   
    20   23    8 1    
    21   10    9 ar   
    22   34    9 1    
    23   11   10 ar   
    24   35   10 1    
    25   14   13 ar   
    26   15   14 ar   
    27   36   14 1    
    28   37   15 1    
    29   17   16 ar   
    30   21   16 ar   
    31   18   17 ar   
    32   38   17 1    
    33   19   18 ar   
    34   39   18 1    
    35   20   19 ar   
    36   40   19 1    
    37   21   20 ar   
    38   22   20 1    
    39   41   21 1    
    40   25   22 1    
    41   26   22 1    
    42   27   22 1    
    43   24   23 2    
@<TRIPOS>SUBSTRUCTURE
     1 NHJ501      1 GROUP   
@<TRIPOS>SET

