#    Name: 3bll_BPQ_1_INTS_M
#    Modification time : Mon Mar 24 19:50:37 2014

@<TRIPOS>MOLECULE
3bll_BPQ_1_INTS_M
   45     0     9     0     0
SMALL
NO_CHARGES


@<TRIPOS>ATOM
      1 O          17.1735   17.1130   25.1120 O.2       1 ALC1        0.0000 
      2 O          16.8390   16.9200   23.7470 O.2       7 ALL1        0.0000 
      3 O          17.5080   17.3060   26.4770 O.2       4 ALP1        0.0000 
      4 N          19.5060   17.7695   24.6310 N.am      2 SEC2        0.0000 
      5 N          18.9140   17.5660   23.1630 N.am      8 SEL2        0.0000 
      6 N          20.0980   17.9730   26.0990 N.am      5 SEP2        0.0000 
      7 N          20.3930   17.5920   22.9170 N.am      2 SEC2        0.0000 
      8 N          21.8720   17.6180   22.6710 N.am      5 SEP2        0.0000 
      9 CA         17.8480   18.8225   19.5615 C.3       3 GLC5        0.0000 
     10 CA         19.3720   17.4550   19.7300 C.3       9 GLL5        0.0000 
     11 CA         16.3240   20.1900   19.3930 C.3       6 GLP5        0.0000 
     12 CA         20.9730   18.1555   21.0890 C.3       3 GLC5        0.0000 
     13 CA         22.5740   18.8560   22.4480 C.3       6 GLP5        0.0000 
     14 CA         18.9700   15.4115   20.0060 C.3       3 GLC5        0.0000 
     15 CA         18.5680   13.3680   20.2820 C.3       6 GLP5        0.0000 
     16 CA         15.6525   18.0805   19.9865 C.3       3 GLC5        0.0000 
     17 CA         17.0210   16.6350   19.2420 C.3       9 GLL5        0.0000 
     18 CA         14.2840   19.5260   20.7310 C.3       6 GLP5        0.0000 
     19 CA         17.7790   15.7000   17.6195 C.3       3 GLC5        0.0000 
     20 CA         18.5370   14.7650   15.9970 C.3       6 GLP5        0.0000 
     21 CA         15.9465   14.8095   21.7010 C.3       3 GLC5        0.0000 
     22 CA         16.1680   16.5020   21.2110 C.3       9 GLL5        0.0000 
     23 CA         15.7250   13.1170   22.1910 C.3       6 GLP5        0.0000 
     24 O          15.0760   16.9380   25.6635 O.2       1 ALC1        0.0000 
     25 O          14.7800   16.2900   24.4550 O.2       7 ALL1        0.0000 
     26 O          15.3720   17.5860   26.8720 O.2       4 ALP1        0.0000 
     27 CA         23.7835   23.2510   19.0425 C.3       3 GLC5        0.0000 
     28 CA         22.3560   21.6670   18.5550 C.3       9 GLL5        0.0000 
     29 CA         25.2110   24.8350   19.5300 C.3       6 GLP5        0.0000 
     30 CA         23.4155   19.7895   18.9055 C.3       3 GLC5        0.0000 
     31 CA         24.4750   17.9120   19.2560 C.3       6 GLP5        0.0000 
     32 CA         22.8470   20.0480   17.0860 C.3       3 GLC5        0.0000 
     33 CA         23.3380   18.4290   15.6170 C.3       6 GLP5        0.0000 
     34 CA         20.1655   21.9850   21.9340 C.3       3 GLC5        0.0000 
     35 CA         21.3490   23.0260   20.4090 C.3       9 GLL5        0.0000 
     36 CA         18.9820   20.9440   23.4590 C.3       6 GLP5        0.0000 
     37 CA         21.5595   24.7065   21.4540 C.3       3 GLC5        0.0000 
     38 CA         21.7700   26.3870   22.4990 C.3       6 GLP5        0.0000 
     39 CA         23.2800   23.9305   19.9695 C.3       3 GLC5        0.0000 
     40 CA         15.5320   18.1205   21.0312 C.3       3 GLC5        0.0000 
     41 CA         17.3920   16.9280   21.4520 C.3       9 GLL5        0.0000 
     42 CA         17.9605   15.0862   20.1469 C.3       3 GLC5        0.0000 
     43 CA         18.7148   21.5003   18.5147 C.3       3 GLC5        0.0000 
     44 CA         21.0180   22.0030   19.2840 C.3       9 GLL5        0.0000 
     45 CA         16.9210   20.6790   18.2410 C.3       6 GLP5        0.0000 
@<TRIPOS>BOND
@<TRIPOS>SUBSTRUCTURE
     1 ALC1        1 GROUP        1 X    ALC  0     ROOT ALC X 1
     2 SEC2        4 GROUP        1 X    SEC  0     **** SEC X 2
     3 GLC5        9 GROUP        1 X    GLC  0     **** GLC X 6
     4 ALP1        3 GROUP        1 Y    ALP  0     ROOT ALP Y 8
     5 SEP2        6 GROUP        1 Y    SEP  0     **** SEP Y 9
     6 GLP5       11 GROUP        1 Y    GLP  0     **** GLP Y 13
     7 ALL1        2 GROUP        1 Z    ALL  0     ROOT ALL Z 15
     8 SEL2        5 GROUP        1 Z    SEL  0     **** SEL Z 16
     9 GLL5       10 GROUP        1 Z    GLL  0     **** GLL Z 20
@<TRIPOS>SET

