#    Name: 3bll_BPQ_1_ligand
#    Modification time : Mon Mar 24 19:50:37 2014

@<TRIPOS>MOLECULE
3bll_BPQ_1_ligand
   37    38     1     0     0
SMALL
NO_CHARGES


@<TRIPOS>ATOM
      1 C2         15.6180   16.4920   23.4680 C.2       1 BPQ700      0.0000 
      2 N1         16.8390   16.9200   23.7470 N.am      1 BPQ700      0.0000 
      3 C6         17.7780   17.1640   22.8540 C.2       1 BPQ700      0.0000 
      4 O6         18.9140   17.5660   23.1630 O.2       1 BPQ700      0.0000 
      5 C5         17.3920   16.9280   21.4520 C.2       1 BPQ700      0.0000 
      6 C7         17.9780   17.0200   20.1110 C.2       1 BPQ700      0.0000 
      7 C10        19.3720   17.4550   19.7300 C.3       1 BPQ700      0.0000 
      8 N11        19.7300   18.7860   20.1830 N.am      1 BPQ700      0.0000 
      9 C8         17.0210   16.6350   19.2420 C.2       1 BPQ700      0.0000 
     10 N9         15.9480   16.3310   19.9420 N.pl3     1 BPQ700      0.0000 
     11 C4         16.1680   16.5020   21.2110 C.2       1 BPQ700      0.0000 
     12 N3         15.2240   16.2690   22.2760 N.2       1 BPQ700      0.0000 
     13 N2         14.7800   16.2900   24.4550 N.pl3     1 BPQ700      0.0000 
     14 C14        20.3120   19.7030   19.3790 C.2       1 BPQ700      0.0000 
     15 O15        20.6490   19.4770   18.2280 O.2       1 BPQ700      0.0000 
     16 C20        22.3560   21.6670   18.5550 C.3       1 BPQ700      0.0000 
     17 C17        21.0180   22.0030   19.2840 C.3       1 BPQ700      0.0000 
     18 C19        21.3490   23.0260   20.4090 C.3       1 BPQ700      0.0000 
     19 C18        19.9990   22.6400   18.2930 C.3       1 BPQ700      0.0000 
     20 O16        20.4670   20.8800   19.9930 O.3       1 BPQ700      0.0000 
     21 H          17.0843   17.0820   24.7918 H         1 BPQ700      0.0000 
     22 H          19.4644   17.3852   18.6210 H         1 BPQ700      0.0000 
     23 H          20.0903   16.7026   20.1317 H         1 BPQ700      0.0000 
     24 H          19.5112   19.0053   21.1823 H         1 BPQ700      0.0000 
     25 H          17.1234   16.5958   18.2814 H         1 BPQ700      0.0000 
     26 H          15.0921   16.0150   19.5449 H         1 BPQ700      0.0000 
     27 H          15.1264   16.4836   25.3729 H         1 BPQ700      0.0000 
     28 H          13.8709   15.9608   24.1999 H         1 BPQ700      0.0000 
     29 H          22.7740   22.4812   18.1521 H         1 BPQ700      0.0000 
     30 H          23.0293   21.2700   19.1788 H         1 BPQ700      0.0000 
     31 H          22.2201   21.0099   17.8136 H         1 BPQ700      0.0000 
     32 H          22.0055   22.6558   21.0662 H         1 BPQ700      0.0000 
     33 H          21.7452   23.8673   20.0412 H         1 BPQ700      0.0000 
     34 H          20.5333   23.2874   20.9250 H         1 BPQ700      0.0000 
     35 H          20.3507   23.4854   17.8910 H         1 BPQ700      0.0000 
     36 H          19.7822   22.0236   17.5360 H         1 BPQ700      0.0000 
     37 H          19.1353   22.8666   18.7431 H         1 BPQ700      0.0000 
@<TRIPOS>BOND
     1    2    1 1    
     2   12    1 2    
     3   13    1 1    
     4    3    2 am   
     5   21    2 1    
     6    4    3 2    
     7    5    3 1    
     8    6    5 1    
     9   11    5 2    
    10    7    6 1    
    11    9    6 2    
    12    8    7 1    
    13   22    7 1    
    14   23    7 1    
    15   14    8 am   
    16   24    8 1    
    17   10    9 1    
    18   25    9 1    
    19   11   10 1    
    20   26   10 1    
    21   12   11 1    
    22   27   13 1    
    23   28   13 1    
    24   15   14 2    
    25   20   14 1    
    26   17   16 1    
    27   29   16 1    
    28   30   16 1    
    29   31   16 1    
    30   18   17 1    
    31   19   17 1    
    32   20   17 1    
    33   32   18 1    
    34   33   18 1    
    35   34   18 1    
    36   35   19 1    
    37   36   19 1    
    38   37   19 1    
@<TRIPOS>SUBSTRUCTURE
     1 BPQ700      1 GROUP   
@<TRIPOS>SET

