#    Name: 2H3D_2_CAVITY_N1_6.mol2
#    Modification time : Mon Mar 10 15:56:42 2014

@<TRIPOS>MOLECULE
2H3D_2_CAVITY_N1_6.mol2
  161     0     6     0     0
SMALL
NO_CHARGES


@<TRIPOS>ATOM
      1 O          13.1441   12.6523   34.7075 O.2       2 ALA2        0.0000 
      2 O          12.1400   14.2589   33.7534 O.2       2 ALA2        0.0000 
      3 CA         11.7135   13.0863   34.5858 C.3       5 GLY6        0.0000 
      4 NZ         16.7130   13.3011   32.0444 N.2       4 LYS4        0.0000 
      5 CA         15.2823   13.7351   31.9226 C.3       5 GLY6        0.0000 
      6 CA         14.8558   12.5624   32.7550 C.3       5 GLY6        0.0000 
      7 NZ         14.4292   11.3897   33.5874 N.2       4 LYS4        0.0000 
      8 O          14.0026   10.2171   34.4199 O.2       2 ALA2        0.0000 
      9 CA         13.8516   14.1690   31.8008 C.3       5 GLY6        0.0000 
     10 CA         13.4251   12.9964   32.6333 C.3       5 GLY6        0.0000 
     11 O          12.9985   11.8237   33.4657 O.2       2 ALA2        0.0000 
     12 OG         12.5719   10.6510   34.2981 O.2       1 SER1        0.0000 
     13 O          12.1454    9.4784   35.1305 O.2       2 ALA2        0.0000 
     14 O          11.9944   13.4303   32.5115 O.2       2 ALA2        0.0000 
     15 OG         11.5678   12.2577   33.3439 O.2       1 SER1        0.0000 
     16 NZ         10.5637   13.8643   32.3897 N.2       4 LYS4        0.0000 
     17 OD1        18.4246   13.2112   30.0919 O.3       3 ASP3        0.0000 
     18 OD1        17.9981   12.0386   30.9243 O.3       3 ASP3        0.0000 
     19 NZ         17.5715   10.8659   31.7567 N.2       4 LYS4        0.0000 
     20 OD1        16.9939   13.6452   29.9701 O.3       3 ASP3        0.0000 
     21 NZ         16.5674   12.4725   30.8025 N.2       4 LYS4        0.0000 
     22 NZ         16.1408   11.2999   31.6349 N.2       4 LYS4        0.0000 
     23 NZ         15.7142   10.1272   32.4673 N.2       4 LYS4        0.0000 
     24 NZ         15.2877    8.9545   33.2998 N.2       4 LYS4        0.0000 
     25 OD1        15.1367   12.9065   30.6807 O.3       3 ASP3        0.0000 
     26 O          14.7101   11.7338   31.5132 O.2       2 ALA2        0.0000 
     27 O          14.2836   10.5612   32.3456 O.2       2 ALA2        0.0000 
     28 O          13.8570    9.3885   33.1780 O.2       2 ALA2        0.0000 
     29 O          13.4304    8.2158   34.0104 O.2       2 ALA2        0.0000 
     30 OD1        13.7060   13.3405   30.5590 O.3       3 ASP3        0.0000 
     31 O          13.2795   12.1678   31.3914 O.2       2 ALA2        0.0000 
     32 O          12.8529   10.9951   32.2238 O.2       2 ALA2        0.0000 
     33 OG         12.4263    9.8225   33.0562 O.2       1 SER1        0.0000 
     34 OG         11.9998    8.6498   33.8886 O.2       1 SER1        0.0000 
     35 O          12.2753   13.7744   30.4372 O.2       2 ALA2        0.0000 
     36 CA         19.7097   11.9487   28.9718 C.3       5 GLY6        0.0000 
     37 OD1        19.2831   10.7760   29.8042 O.3       3 ASP3        0.0000 
     38 NZ         18.8565    9.6033   30.6366 N.2       4 LYS4        0.0000 
     39 NZ         18.4300    8.4307   31.4690 N.2       4 LYS4        0.0000 
     40 OD1        18.2790   12.3826   28.8500 O.3       3 ASP3        0.0000 
     41 OD1        17.8524   11.2100   29.6824 O.3       3 ASP3        0.0000 
     42 OD1        17.4259   10.0373   30.5148 O.3       3 ASP3        0.0000 
     43 NZ         16.9993    8.8647   31.3473 N.2       4 LYS4        0.0000 
     44 N          16.5727    7.6920   32.1797 N.2       2 ALA2        0.0000 
     45 OD1        16.8483   12.8166   28.7282 O.3       3 ASP3        0.0000 
     46 DU         16.4218   11.6440   29.5607 H         6 CUB7        0.0000 
     47 O          15.9952   10.4713   30.3931 O.2       2 ALA2        0.0000 
     48 DU         15.5686    9.2986   31.2255 H         6 CUB7        0.0000 
     49 N          15.1421    8.1260   32.0579 N.2       2 ALA2        0.0000 
     50 N          14.7155    6.9533   32.8903 N.2       2 ALA2        0.0000 
     51 OD1        14.9911   12.0779   29.4389 O.3       3 ASP3        0.0000 
     52 O          14.5645   10.9053   30.2713 O.2       2 ALA2        0.0000 
     53 O          14.1379    9.7326   31.1037 O.2       2 ALA2        0.0000 
     54 O          13.7114    8.5599   31.9361 O.2       2 ALA2        0.0000 
     55 CA         13.2848    7.3873   32.7685 C.3       5 GLY6        0.0000 
     56 OD1        13.5604   12.5119   29.3171 O.3       3 ASP3        0.0000 
     57 O          12.2807    8.9939   31.8143 O.2       2 ALA2        0.0000 
     58 CA         11.4276    6.6486   33.4791 C.3       5 GLY6        0.0000 
     59 O           9.9969    7.0826   33.3573 O.2       2 ALA2        0.0000 
     60 NZ         23.0030    7.4729   29.7601 N.2       4 LYS4        0.0000 
     61 CA         22.5764    6.3002   30.5925 C.3       5 GLY6        0.0000 
     62 NZ         21.5723    7.9068   29.6383 N.2       4 LYS4        0.0000 
     63 NZ         21.1457    6.7342   30.4707 N.2       4 LYS4        0.0000 
     64 NZ         20.9947   10.6861   27.8517 N.2       4 LYS4        0.0000 
     65 NZ         20.5682    9.5135   28.6841 N.2       4 LYS4        0.0000 
     66 NZ         20.1416    8.3408   29.5165 N.2       4 LYS4        0.0000 
     67 NZ         19.7150    7.1681   30.3489 N.2       4 LYS4        0.0000 
     68 O          19.2885    5.9955   31.1813 O.2       2 ALA2        0.0000 
     69 O          18.8619    4.8228   32.0138 O.2       2 ALA2        0.0000 
     70 O          19.5641   11.1201   27.7299 O.2       2 ALA2        0.0000 
     71 OD1        19.1375    9.9474   28.5623 O.3       3 ASP3        0.0000 
     72 NZ         18.7109    8.7748   29.3947 N.2       4 LYS4        0.0000 
     73 NZ         18.2844    7.6021   30.2272 N.2       4 LYS4        0.0000 
     74 N          17.8578    6.4295   31.0596 N.2       2 ALA2        0.0000 
     75 N          17.4312    5.2568   31.8920 N.2       2 ALA2        0.0000 
     76 O          18.1334   11.5541   27.6081 O.2       2 ALA2        0.0000 
     77 O          17.7068   10.3814   28.4406 O.2       2 ALA2        0.0000 
     78 O          17.2802    9.2087   29.2730 O.2       2 ALA2        0.0000 
     79 O          16.8537    8.0361   30.1054 O.2       2 ALA2        0.0000 
     80 N          16.4271    6.8634   30.9378 N.2       2 ALA2        0.0000 
     81 N          16.0006    5.6908   31.7702 N.2       2 ALA2        0.0000 
     82 O          16.7027   11.9880   27.4864 O.2       2 ALA2        0.0000 
     83 O          16.2761   10.8154   28.3188 O.2       2 ALA2        0.0000 
     84 O          15.4230    8.4701   29.9836 O.2       2 ALA2        0.0000 
     85 O          14.9964    7.2974   30.8160 O.2       2 ALA2        0.0000 
     86 CA         14.5699    6.1247   31.6484 C.3       5 GLY6        0.0000 
     87 O          15.2720   12.4220   27.3646 O.2       2 ALA2        0.0000 
     88 O          14.8455   11.2494   28.1970 O.2       2 ALA2        0.0000 
     89 O          13.9923    8.9040   29.8618 O.2       2 ALA2        0.0000 
     90 O          13.5658    7.7314   30.6942 O.2       2 ALA2        0.0000 
     91 N          13.1392    6.5587   31.5266 N.2       2 ALA2        0.0000 
     92 O          13.4148   11.6833   28.0752 O.2       2 ALA2        0.0000 
     93 N          11.7085    6.9927   31.4048 N.2       2 ALA2        0.0000 
     94 CA         22.4308    5.4716   29.3506 C.3       5 GLY6        0.0000 
     95 NZ         21.4267    7.0783   28.3964 N.2       4 LYS4        0.0000 
     96 NZ         21.0001    5.9056   29.2288 N.2       4 LYS4        0.0000 
     97 O          20.5735    4.7329   30.0612 O.2       2 ALA2        0.0000 
     98 O          20.1470    3.5603   30.8937 O.2       2 ALA2        0.0000 
     99 NZ         19.9960    7.5122   28.2746 N.2       4 LYS4        0.0000 
    100 NZ         19.5694    6.3396   29.1071 N.2       4 LYS4        0.0000 
    101 O          19.1428    5.1669   29.9395 O.2       2 ALA2        0.0000 
    102 O          18.7163    3.9942   30.7719 O.2       2 ALA2        0.0000 
    103 O          18.2897    2.8216   31.6043 O.2       2 ALA2        0.0000 
    104 NZ         19.4184   10.2915   26.4880 N.2       4 LYS4        0.0000 
    105 NZ         18.9919    9.1189   27.3205 N.2       4 LYS4        0.0000 
    106 NZ         18.5653    7.9462   28.1529 N.2       4 LYS4        0.0000 
    107 DU         18.1387    6.7735   28.9853 H         6 CUB7        0.0000 
    108 DU         17.7122    5.6009   29.8177 H         6 CUB7        0.0000 
    109 O          17.9878   10.7255   26.3663 O.2       2 ALA2        0.0000 
    110 O          17.5612    9.5528   27.1987 O.2       2 ALA2        0.0000 
    111 O          17.1346    8.3802   28.0311 O.2       2 ALA2        0.0000 
    112 O          16.7081    7.2075   28.8635 O.2       2 ALA2        0.0000 
    113 DU         16.2815    6.0349   29.6959 H         6 CUB7        0.0000 
    114 O          15.8549    4.8622   30.5283 O.2       2 ALA2        0.0000 
    115 O          14.8508    6.4688   29.5741 O.2       2 ALA2        0.0000 
    116 CA         14.4243    5.2962   30.4065 C.3       5 GLY6        0.0000 
    117 O          13.4201    6.9028   29.4523 O.2       2 ALA2        0.0000 
    118 NZ         22.2851    4.6431   28.1087 N.2       4 LYS4        0.0000 
    119 CA         21.8586    3.4704   28.9411 C.3       5 GLY6        0.0000 
    120 N          21.4320    2.2977   29.7736 N.2       2 ALA2        0.0000 
    121 NZ         20.8545    5.0770   27.9870 N.2       4 LYS4        0.0000 
    122 DU         20.4279    3.9044   28.8194 H         6 CUB7        0.0000 
    123 CA         20.0013    2.7317   29.6518 C.3       5 GLY6        0.0000 
    124 NZ         19.4238    5.5110   27.8652 N.2       4 LYS4        0.0000 
    125 DU         18.9972    4.3383   28.6976 H         6 CUB7        0.0000 
    126 O          18.5707    3.1657   29.5300 O.2       2 ALA2        0.0000 
    127 NZ         18.8462    8.2903   26.0786 N.2       4 LYS4        0.0000 
    128 NZ         18.4197    7.1176   26.9110 N.2       4 LYS4        0.0000 
    129 NZ         17.9931    5.9450   27.7434 N.2       4 LYS4        0.0000 
    130 O          17.5666    4.7723   28.5758 O.2       2 ALA2        0.0000 
    131 O          17.8421    9.8969   25.1244 O.2       2 ALA2        0.0000 
    132 O          17.4156    8.7243   25.9568 O.2       2 ALA2        0.0000 
    133 O          16.9890    7.5516   26.7892 O.2       2 ALA2        0.0000 
    134 O          16.5624    6.3789   27.6216 O.2       2 ALA2        0.0000 
    135 O          16.1359    5.2063   28.4540 O.2       2 ALA2        0.0000 
    136 NZ         22.1395    3.8145   26.8669 N.2       4 LYS4        0.0000 
    137 CA         21.7130    2.6418   27.6993 C.3       5 GLY6        0.0000 
    138 CA         21.2864    1.4692   28.5317 C.3       5 GLY6        0.0000 
    139 NZ         20.7088    4.2485   26.7451 N.2       4 LYS4        0.0000 
    140 O          20.2823    3.0758   27.5775 O.2       2 ALA2        0.0000 
    141 NZ         19.2782    4.6824   26.6233 N.2       4 LYS4        0.0000 
    142 O          18.8516    3.5098   27.4557 O.2       2 ALA2        0.0000 
    143 CA         18.7006    7.4617   24.8367 C.3       5 GLY6        0.0000 
    144 NZ         18.2741    6.2891   25.6691 N.2       4 LYS4        0.0000 
    145 CA         17.8475    5.1164   26.5015 C.3       5 GLY6        0.0000 
    146 O          17.4209    3.9437   27.3339 O.2       2 ALA2        0.0000 
    147 CA         17.2699    7.8957   24.7149 C.3       5 GLY6        0.0000 
    148 O          16.8434    6.7230   25.5473 O.2       2 ALA2        0.0000 
    149 O          16.4168    5.5504   26.3797 O.2       2 ALA2        0.0000 
    150 O          14.9861    5.9843   26.2579 O.2       2 ALA2        0.0000 
    151 CA         20.9898    4.5926   24.6708 C.3       5 GLY6        0.0000 
    152 NZ         20.5632    3.4199   25.5032 N.2       4 LYS4        0.0000 
    153 O          20.1367    2.2472   26.3356 O.2       2 ALA2        0.0000 
    154 CA         19.5591    5.0265   24.5490 C.3       5 GLY6        0.0000 
    155 CA         19.1326    3.8539   25.3814 C.3       5 GLY6        0.0000 
    156 O          18.7060    2.6812   26.2138 O.2       2 ALA2        0.0000 
    157 O          18.1284    5.4605   24.4272 O.2       2 ALA2        0.0000 
    158 CA         17.7019    4.2878   25.2596 C.3       5 GLY6        0.0000 
    159 CA         16.2712    4.7218   25.1378 C.3       5 GLY6        0.0000 
    160 CA         18.9869    3.0253   24.1395 C.3       5 GLY6        0.0000 
    161 CA         17.5563    3.4593   24.0178 C.3       5 GLY6        0.0000 
@<TRIPOS>BOND
@<TRIPOS>SUBSTRUCTURE
     1 SER1       12 GROUP   
     2 ALA2        1 GROUP   
     3 ASP3       17 GROUP   
     4 LYS4        4 GROUP   
     5 GLY6        3 GROUP   
     6 CUB7       46 GROUP   
@<TRIPOS>SET

