#    Name: 2h3d_NMN_2_INTS_M
#    Modification time : Tue Mar 25 15:29:22 2014

@<TRIPOS>MOLECULE
2h3d_NMN_2_INTS_M
   27     0     9     0     0
SMALL
NO_CHARGES


@<TRIPOS>ATOM
      1 N          15.4245    3.7750   27.8225 N.am      2 SEC2        0.0000 
      2 N          15.5110    5.1770   27.7850 N.am      8 SEL2        0.0000 
      3 N          15.3380    2.3730   27.8600 N.am      5 SEP2        0.0000 
      4 N          15.8015    3.5985   28.9650 N.am      2 SEC2        0.0000 
      5 N          16.2650    4.8240   30.0700 N.am      8 SEL2        0.0000 
      6 CA         12.6690    8.2125   29.0865 C.3       3 GLC5        0.0000 
      7 CA         14.3580    7.2070   30.0670 C.3       9 GLL5        0.0000 
      8 CA         10.9800    9.2180   28.1060 C.3       6 GLP5        0.0000 
      9 O          16.8985    9.5370   33.7875 O.2       1 ALC1        0.0000 
     10 O          16.1770    9.2420   32.6290 O.2       7 ALL1        0.0000 
     11 O          17.6200    9.8320   34.9460 O.2       4 ALP1        0.0000 
     12 O          16.0800    6.9510   34.6560 O.2       1 ALC1        0.0000 
     13 O          14.9030    7.8850   34.7350 O.2       7 ALL1        0.0000 
     14 O          17.2570    6.0170   34.5770 O.2       4 ALP1        0.0000 
     15 O           7.9565    6.5830   36.7510 O.2       1 ALC1        0.0000 
     16 O           9.1330    7.1910   37.6180 O.2       7 ALL1        0.0000 
     17 O           6.7800    5.9750   35.8840 O.2       4 ALP1        0.0000 
     18 CA          7.7495    7.2340   32.7195 C.3       3 GLC5        0.0000 
     19 CA          9.7750    6.8330   33.2430 C.3       9 GLL5        0.0000 
     20 CA          5.7240    7.6350   32.1960 C.3       6 GLP5        0.0000 
     21 CA         13.5900    6.4532   34.2805 C.3       3 GLC5        0.0000 
     22 CA         13.2260    8.5520   33.1150 C.3       9 GLL5        0.0000 
     23 CA         13.3640    4.7760   35.2990 C.3       6 GLP5        0.0000 
     24 CA          8.1650    5.4038   34.2888 C.3       3 GLC5        0.0000 
     25 CA          6.7000    3.9360   34.6270 C.3       6 GLP5        0.0000 
     26 CA         11.2915    5.5706   33.2494 C.3       3 GLC5        0.0000 
     27 CA         12.2670    4.0210   33.1690 C.3       6 GLP5        0.0000 
@<TRIPOS>BOND
@<TRIPOS>SUBSTRUCTURE
     1 ALC1        9 GROUP        1 X    ALC  0     ROOT ALC X 1
     2 SEC2        1 GROUP        1 X    SEC  0     **** SEC X 2
     3 GLC5        6 GROUP        1 X    GLC  0     **** GLC X 6
     4 ALP1       11 GROUP        1 Y    ALP  0     ROOT ALP Y 8
     5 SEP2        3 GROUP        1 Y    SEP  0     **** SEP Y 9
     6 GLP5        8 GROUP        1 Y    GLP  0     **** GLP Y 13
     7 ALL1       10 GROUP        1 Z    ALL  0     ROOT ALL Z 15
     8 SEL2        2 GROUP        1 Z    SEL  0     **** SEL Z 16
     9 GLL5        7 GROUP        1 Z    GLL  0     **** GLL Z 20
@<TRIPOS>SET

