#    Name: 2h3d_NMN_2_ligand
#    Modification time : Tue Mar 25 15:29:22 2014

@<TRIPOS>MOLECULE
2h3d_NMN_2_ligand
   36    37     1     0     0
SMALL
NO_CHARGES


@<TRIPOS>ATOM
      1 O3P        15.5110    5.1770   27.7850 O.co2     1 NMN4819     0.0000 
      2 P          16.3490    5.8040   28.9570 P.3       1 NMN4819     0.0000 
      3 O1P        17.7080    6.1150   28.4930 O.co2     1 NMN4819     0.0000 
      4 O2P        16.2650    4.8240   30.0700 O.co2     1 NMN4819     0.0000 
      5 O5R        15.6030    7.1760   29.2700 O.3       1 NMN4819     0.0000 
      6 C5R        14.3580    7.2070   30.0670 C.3       1 NMN4819     0.0000 
      7 C4R        14.4490    8.3390   31.0820 C.3       1 NMN4819     0.0000 
      8 O4R        13.1380    8.6240   31.6500 O.3       1 NMN4819     0.0000 
      9 C3R        15.3780    8.0760   32.3270 C.3       1 NMN4819     0.0000 
     10 O3R        16.1770    9.2420   32.6290 O.3       1 NMN4819     0.0000 
     11 C2R        14.4060    7.7090   33.4090 C.3       1 NMN4819     0.0000 
     12 O2R        14.9030    7.8850   34.7350 O.3       1 NMN4819     0.0000 
     13 C1R        13.2260    8.5520   33.1150 C.3       1 NMN4819     0.0000 
     14 N1         11.9380    7.9900   33.6570 N.pl3     1 NMN4819     0.0000 
     15 C2         11.6740    8.0810   35.0550 C.ar      1 NMN4819     0.0000 
     16 C3         10.4830    7.5530   35.5600 C.ar      1 NMN4819     0.0000 
     17 C7         10.2230    7.6630   37.0790 C.2       1 NMN4819     0.0000 
     18 O7         11.0820    8.2000   37.7390 O.2       1 NMN4819     0.0000 
     19 N7          9.1330    7.1910   37.6180 N.am      1 NMN4819     0.0000 
     20 C4          9.4850    6.9100   34.6580 C.ar      1 NMN4819     0.0000 
     21 C5          9.7750    6.8330   33.2430 C.ar      1 NMN4819     0.0000 
     22 C6         11.0020    7.3690   32.7090 C.ar      1 NMN4819     0.0000 
     23 H          14.2224    6.2694   30.6000 H         1 NMN4819     0.0000 
     24 H          13.4981    7.3809   29.4253 H         1 NMN4819     0.0000 
     25 H          14.8230    9.2381   30.5994 H         1 NMN4819     0.0000 
     26 H          15.9650    7.2153   32.0794 H         1 NMN4819     0.0000 
     27 H          14.1084    6.6678   33.2244 H         1 NMN4819     0.0000 
     28 H          13.3816    9.5427   33.5031 H         1 NMN4819     0.0000 
     29 H          12.3519    8.5269   35.6662 H         1 NMN4819     0.0000 
     30 H           9.0605    7.2771   38.6116 H         1 NMN4819     0.0000 
     31 H           8.4701    6.7864   36.9880 H         1 NMN4819     0.0000 
     32 H           8.6434    6.5477   35.0408 H         1 NMN4819     0.0000 
     33 H           9.1030    6.3945   32.6183 H         1 NMN4819     0.0000 
     34 H          11.2175    7.3271   31.7460 H         1 NMN4819     0.0000 
     35 H          16.5579    9.0665   33.5368 H         1 NMN4819     0.0000 
     36 H          15.3259    7.0101   34.9710 H         1 NMN4819     0.0000 
@<TRIPOS>BOND
     1    2    1 ar   
     2    3    2 ar   
     3    4    2 ar   
     4    5    2 1    
     5    6    5 1    
     6    7    6 1    
     7   23    6 1    
     8   24    6 1    
     9    8    7 1    
    10    9    7 1    
    11   25    7 1    
    12   13    8 1    
    13   10    9 1    
    14   11    9 1    
    15   26    9 1    
    16   35   10 1    
    17   12   11 1    
    18   13   11 1    
    19   27   11 1    
    20   36   12 1    
    21   14   13 1    
    22   28   13 1    
    23   15   14 ar   
    24   22   14 ar   
    25   16   15 ar   
    26   29   15 1    
    27   17   16 1    
    28   20   16 ar   
    29   18   17 2    
    30   19   17 am   
    31   30   19 1    
    32   31   19 1    
    33   21   20 ar   
    34   32   20 1    
    35   22   21 ar   
    36   33   21 1    
    37   34   22 1    
@<TRIPOS>SUBSTRUCTURE
     1 NMN4819     1 GROUP   
@<TRIPOS>SET

