#    Name: 3n7u_NAD_9_INTS_M
#    Modification time : Tue Mar 25 00:48:01 2014

@<TRIPOS>MOLECULE
3n7u_NAD_9_INTS_M
   93     0    12     0     0
SMALL
NO_CHARGES


@<TRIPOS>ATOM
      1 NZ         -2.3960   -3.1925   33.1625 N.4       3 LYC4        0.0000 
      2 NZ         -1.2120   -2.4490   32.8110 N.4      11 LYL4        0.0000 
      3 NZ         -4.7860   -3.7520   34.0450 N.4       7 LYP4        0.0000 
      4 N          -1.2495   -0.9410   33.0080 N.am      2 SEC2        0.0000 
      5 N          -1.2120   -2.4490   32.8110 N.am     10 SEL2        0.0000 
      6 N          -1.2870    0.5670   33.2050 N.am      6 SEP2        0.0000 
      7 N          -2.3960   -3.1925   33.1625 N.am      2 SEC2        0.0000 
      8 N          -3.5800   -3.9360   33.5140 N.am      6 SEP2        0.0000 
      9 O           0.8205   -0.4045   27.2645 O.2       1 ALC1        0.0000 
     10 O           0.0280   -1.2670   27.9630 O.2       9 ALL1        0.0000 
     11 O           1.6130    0.4580   26.5660 O.2       5 ALP1        0.0000 
     12 O           0.7765   -1.7595   25.3220 O.2       1 ALC1        0.0000 
     13 O           0.5590   -2.9300   25.9390 O.2       9 ALL1        0.0000 
     14 O           0.9940   -0.5890   24.7050 O.2       5 ALP1        0.0000 
     15 CA          4.7905   -2.0825   27.6105 C.3       4 GLC5        0.0000 
     16 CA          2.7310   -2.7090   27.1080 C.3      12 GLL5        0.0000 
     17 CA          6.8500   -1.4560   28.1130 C.3       8 GLP5        0.0000 
     18 CA          3.8540   -3.8085   28.6780 C.3       4 GLC5        0.0000 
     19 CA          4.9770   -4.9080   30.2480 C.3       8 GLP5        0.0000 
     20 CA          6.2605    0.0295   23.0720 C.3       4 GLC5        0.0000 
     21 CA          5.5300   -1.8160   23.7310 C.3      12 GLL5        0.0000 
     22 CA          6.9910    1.8750   22.4130 C.3       8 GLP5        0.0000 
     23 CA          4.2510   -0.1630   23.6445 C.3       4 GLC5        0.0000 
     24 CA          2.9720    1.4900   23.5580 C.3       8 GLP5        0.0000 
     25 CA          4.3155   -2.5190   22.4910 C.3       4 GLC5        0.0000 
     26 CA          3.1010   -3.2220   21.2510 C.3       8 GLP5        0.0000 
     27 CA          6.6395   -1.7510   25.1440 C.3       4 GLC5        0.0000 
     28 CA          7.7490   -1.6860   26.5570 C.3       8 GLP5        0.0000 
     29 CA          3.7900   -3.1685   23.3010 C.3       4 GLC5        0.0000 
     30 CA          4.4790   -3.1150   25.3510 C.3      12 GLL5        0.0000 
     31 N           0.8480    0.5020   34.7565 N.am      2 SEC2        0.0000 
     32 N           1.4440   -0.7750   34.2090 N.am     10 SEL2        0.0000 
     33 N           0.2520    1.7790   35.3040 N.am      6 SEP2        0.0000 
     34 CA          3.6210   -1.4395   36.0720 C.3       4 GLC5        0.0000 
     35 CA          3.7940   -2.7470   34.4220 C.3      12 GLL5        0.0000 
     36 CA          3.4480   -0.1320   37.7220 C.3       8 GLP5        0.0000 
     37 O           5.7405   -7.0315   34.5055 O.2       1 ALC1        0.0000 
     38 O           4.5230   -5.9060   34.6760 O.2       9 ALL1        0.0000 
     39 O           6.9580   -8.1570   34.3350 O.2       5 ALP1        0.0000 
     40 O           6.9500   -6.9150   35.1325 O.2       1 ALC1        0.0000 
     41 O           6.9420   -5.6730   35.9300 O.2       9 ALL1        0.0000 
     42 CA          7.9375   -2.7240   36.4540 C.3       4 GLC5        0.0000 
     43 CA          6.3230   -3.6370   37.0140 C.3      12 GLL5        0.0000 
     44 CA          9.5520   -1.8110   35.8940 C.3       8 GLP5        0.0000 
     45 CA          8.2355   -2.4135   37.5950 C.3       4 GLC5        0.0000 
     46 CA          6.9190   -3.0160   39.2960 C.3      12 GLL5        0.0000 
     47 N           8.4990   -3.4100   42.9355 N.am      2 SEC2        0.0000 
     48 N           7.4320   -2.4270   42.8350 N.am     10 SEL2        0.0000 
     49 N           9.5660   -4.3930   43.0360 N.am      6 SEP2        0.0000 
     50 N           6.9890   -1.6690   44.0500 N.am      2 SEC2        0.0000 
     51 N           6.5460   -0.9110   45.2650 N.am      6 SEP2        0.0000 
     52 O           8.9175   -1.2790   39.8350 O.2       1 ALC1        0.0000 
     53 O           8.7560   -1.6900   41.1920 O.2       9 ALL1        0.0000 
     54 O           9.0790   -0.8680   38.4780 O.2       5 ALP1        0.0000 
     55 O          10.1505   -0.8790   41.4075 O.2       1 ALC1        0.0000 
     56 O          11.5450   -0.0680   41.6230 O.2       5 ALP1        0.0000 
     57 O           9.6550   -0.9970   42.3615 O.2       1 ALC1        0.0000 
     58 O          10.5540   -0.3040   43.5310 O.2       5 ALP1        0.0000 
     59 CA          5.2540   -2.2085   43.1650 C.3       4 GLC5        0.0000 
     60 CA          5.2500   -2.7730   41.0420 C.3      12 GLL5        0.0000 
     61 CA          5.2580   -1.6440   45.2880 C.3       8 GLP5        0.0000 
     62 CA          3.1175   -4.4800   39.8995 C.3       4 GLC5        0.0000 
     63 CA          4.2980   -3.1100   40.0800 C.3      12 GLL5        0.0000 
     64 CA          1.9370   -5.8500   39.7190 C.3       8 GLP5        0.0000 
     65 CA          3.2575   -4.5265   38.4920 C.3       4 GLC5        0.0000 
     66 CA          4.6810   -3.3650   38.7800 C.3      12 GLL5        0.0000 
     67 CA          1.8340   -5.6880   38.2040 C.3       8 GLP5        0.0000 
     68 CA          3.4417   -3.7475   30.0680 C.3       4 GLC5        0.0000 
     69 CA          1.9360   -2.1980   29.2310 C.3      12 GLL5        0.0000 
     70 CA          0.3459   -0.9393   29.9765 C.3       4 GLC5        0.0000 
     71 CA          1.8770   -2.9760   30.5450 C.3      12 GLL5        0.0000 
     72 CA         -0.6160    0.6540   30.8300 C.3       8 GLP5        0.0000 
     73 CA          0.6530   -4.8600   28.2210 C.3       4 GLC5        0.0000 
     74 CA          0.7090   -2.4780   28.3580 C.3      12 GLL5        0.0000 
     75 CA          0.3150   -6.8640   28.6960 C.3       8 GLP5        0.0000 
     76 CA          4.4140   -4.4588   22.7940 C.3       4 GLC5        0.0000 
     77 CA          5.2090   -4.2430   24.9500 C.3      12 GLL5        0.0000 
     78 CA          3.1630   -4.7510   21.1650 C.3       8 GLP5        0.0000 
     79 CA          7.3060   -4.8573   25.5340 C.3       4 GLC5        0.0000 
     80 CA          6.1210   -4.0900   23.8960 C.3      12 GLL5        0.0000 
     81 CA          8.9470   -5.5480   26.6450 C.3       8 GLP5        0.0000 
     82 CA          6.4105   -2.6634   25.7220 C.3       4 GLC5        0.0000 
     83 CA          5.6085   -5.0340   33.6647 C.3       4 GLC5        0.0000 
     84 CA          5.0080   -3.5070   35.0240 C.3      12 GLL5        0.0000 
     85 CA          6.3720   -5.8730   31.9860 C.3       8 GLP5        0.0000 
     86 CA          3.5537   -5.3357   37.1780 C.3       4 GLC5        0.0000 
     87 CA          4.6820   -4.8830   35.6630 C.3      12 GLL5        0.0000 
     88 CA          5.0222   -6.8927   36.8415 C.3       4 GLC5        0.0000 
     89 CA          4.7710   -8.8020   37.5310 C.3       8 GLP5        0.0000 
     90 CA          5.0451   -1.2486   41.0125 C.3       4 GLC5        0.0000 
     91 CA          6.6070   -2.7240   40.6380 C.3      12 GLL5        0.0000 
     92 CA          4.9770    0.4320   41.5650 C.3       8 GLP5        0.0000 
     93 CA          3.9688   -1.6848   38.5760 C.3       4 GLC5        0.0000 
@<TRIPOS>BOND
@<TRIPOS>SUBSTRUCTURE
     1 ALC1        9 GROUP        1 X    ALC  0     ROOT ALC X 1
     2 SEC2        4 GROUP        1 X    SEC  0     **** SEC X 2
     3 LYC4        1 GROUP        1 X    LYC  0     **** LYC X 4
     4 GLC5       15 GROUP        1 X    GLC  0     **** GLC X 6
     5 ALP1       11 GROUP        1 Y    ALP  0     ROOT ALP Y 8
     6 SEP2        6 GROUP        1 Y    SEP  0     **** SEP Y 9
     7 LYP4        3 GROUP        1 Y    LYP  0     **** LYP Y 11
     8 GLP5       17 GROUP        1 Y    GLP  0     **** GLP Y 13
     9 ALL1       10 GROUP        1 Z    ALL  0     ROOT ALL Z 15
    10 SEL2        5 GROUP        1 Z    SEL  0     **** SEL Z 16
    11 LYL4        2 GROUP        1 Z    LYL  0     **** LYL Z 18
    12 GLL5       16 GROUP        1 Z    GLL  0     **** GLL Z 20
@<TRIPOS>SET

