#    Name: 3n7u_NAD_9_ligand
#    Modification time : Tue Mar 25 00:48:01 2014

@<TRIPOS>MOLECULE
3n7u_NAD_9_ligand
   70    74     1     0     0
SMALL
NO_CHARGES


@<TRIPOS>ATOM
      1 PA         -0.0010   -3.1930   32.4380 P.3       1 NAD401      0.0000 
      2 O1A        -0.2610   -4.6110   32.0510 O.co2     1 NAD401      0.0000 
      3 O2A        -1.2120   -2.4490   32.8110 O.co2     1 NAD401      0.0000 
      4 O5B         0.8010   -2.4090   31.2900 O.3       1 NAD401      0.0000 
      5 C5B         1.8770   -2.9760   30.5450 C.3       1 NAD401      0.0000 
      6 C4B         1.9360   -2.1980   29.2310 C.3       1 NAD401      0.0000 
      7 O4B         3.0760   -2.7150   28.5070 O.3       1 NAD401      0.0000 
      8 C3B         0.7090   -2.4780   28.3580 C.3       1 NAD401      0.0000 
      9 O3B         0.0280   -1.2670   27.9630 O.3       1 NAD401      0.0000 
     10 C2B         1.2730   -3.2340   27.1340 C.3       1 NAD401      0.0000 
     11 O2B         0.5590   -2.9300   25.9390 O.3       1 NAD401      0.0000 
     12 C1B         2.7310   -2.7090   27.1080 C.3       1 NAD401      0.0000 
     13 N9A         3.6770   -3.5510   26.3750 N.pl3     1 NAD401      0.0000 
     14 C8A         3.9320   -4.8850   26.5810 C.2       1 NAD401      0.0000 
     15 N7A         4.8420   -5.2920   25.7310 N.2       1 NAD401      0.0000 
     16 C5A         5.2090   -4.2430   24.9500 C.ar      1 NAD401      0.0000 
     17 C6A         6.1210   -4.0900   23.8960 C.ar      1 NAD401      0.0000 
     18 N6A         6.8570   -5.1990   23.4990 N.pl3     1 NAD401      0.0000 
     19 N1A         6.2590   -2.8750   23.3250 N.ar      1 NAD401      0.0000 
     20 C2A         5.5300   -1.8160   23.7310 C.ar      1 NAD401      0.0000 
     21 N3A         4.6550   -1.9220   24.7400 N.ar      1 NAD401      0.0000 
     22 C4A         4.4790   -3.1150   25.3510 C.ar      1 NAD401      0.0000 
     23 O3          1.0160   -3.2100   33.6750 O.3       1 NAD401      0.0000 
     24 PN          1.2530   -2.1270   34.8990 P.3       1 NAD401      0.0000 
     25 O1N         0.3940   -2.3350   36.1150 O.co2     1 NAD401      0.0000 
     26 O2N         1.4440   -0.7750   34.2090 O.co2     1 NAD401      0.0000 
     27 O5D         2.7290   -2.6250   35.3840 O.3       1 NAD401      0.0000 
     28 C5D         3.7940   -2.7470   34.4220 C.3       1 NAD401      0.0000 
     29 C4D         5.0080   -3.5070   35.0240 C.3       1 NAD401      0.0000 
     30 O4D         5.5660   -2.7650   36.1510 O.3       1 NAD401      0.0000 
     31 C3D         4.6820   -4.8830   35.6630 C.3       1 NAD401      0.0000 
     32 O3D         4.5230   -5.9060   34.6760 O.3       1 NAD401      0.0000 
     33 C2D         5.8650   -5.0840   36.6410 C.3       1 NAD401      0.0000 
     34 O2D         6.9420   -5.6730   35.9300 O.3       1 NAD401      0.0000 
     35 C1D         6.3230   -3.6370   37.0140 C.3       1 NAD401      0.0000 
     36 N1N         5.9780   -3.3120   38.4060 N.pl3     1 NAD401      0.0000 
     37 C2N         6.9190   -3.0160   39.2960 C.ar      1 NAD401      0.0000 
     38 C3N         6.6070   -2.7240   40.6380 C.ar      1 NAD401      0.0000 
     39 C7N         7.6260   -2.2930   41.6330 C.2       1 NAD401      0.0000 
     40 O7N         7.4320   -2.4270   42.8350 O.2       1 NAD401      0.0000 
     41 N7N         8.7560   -1.6900   41.1920 N.am      1 NAD401      0.0000 
     42 C4N         5.2500   -2.7730   41.0420 C.ar      1 NAD401      0.0000 
     43 C5N         4.2980   -3.1100   40.0800 C.ar      1 NAD401      0.0000 
     44 C6N         4.6810   -3.3650   38.7800 C.ar      1 NAD401      0.0000 
     45 H           1.7074   -4.0178   30.3102 H         1 NAD401      0.0000 
     46 H           2.8278   -2.8592   31.0466 H         1 NAD401      0.0000 
     47 H           2.0257   -1.1737   29.4159 H         1 NAD401      0.0000 
     48 H           0.0753   -3.1589   28.8885 H         1 NAD401      0.0000 
     49 H           1.3107   -4.2622   27.3858 H         1 NAD401      0.0000 
     50 H           2.7086   -1.7074   26.7489 H         1 NAD401      0.0000 
     51 H           3.4842   -5.4166   27.2658 H         1 NAD401      0.0000 
     52 H           6.6549   -6.0547   23.9753 H         1 NAD401      0.0000 
     53 H           7.5254   -5.0459   22.7712 H         1 NAD401      0.0000 
     54 H           5.6531   -0.8916   23.2445 H         1 NAD401      0.0000 
     55 H           4.1573   -1.7653   34.0911 H         1 NAD401      0.0000 
     56 H           3.4743   -3.3010   33.5297 H         1 NAD401      0.0000 
     57 H           5.7602   -3.6536   34.2830 H         1 NAD401      0.0000 
     58 H           3.7991   -4.7262   36.2681 H         1 NAD401      0.0000 
     59 H           5.5600   -5.5744   37.4813 H         1 NAD401      0.0000 
     60 H           7.3553   -3.5590   36.8306 H         1 NAD401      0.0000 
     61 H           7.9322   -2.9901   39.0257 H         1 NAD401      0.0000 
     62 H           8.8400   -1.5835   40.2012 H         1 NAD401      0.0000 
     63 H           9.4061   -1.4047   41.8963 H         1 NAD401      0.0000 
     64 H           4.9919   -2.5696   41.9943 H         1 NAD401      0.0000 
     65 H           3.3034   -3.1670   40.3494 H         1 NAD401      0.0000 
     66 H           3.9426   -3.6033   38.0781 H         1 NAD401      0.0000 
     67 H           0.7429   -0.6806   27.5822 H         1 NAD401      0.0000 
     68 H           0.9014   -2.0348   25.6537 H         1 NAD401      0.0000 
     69 H           5.3649   -6.4436   34.7227 H         1 NAD401      0.0000 
     70 H           6.5624   -6.5072   35.5299 H         1 NAD401      0.0000 
@<TRIPOS>BOND
     1    2    1 ar   
     2    3    1 ar   
     3    4    1 1    
     4   23    1 1    
     5    5    4 1    
     6    6    5 1    
     7   45    5 1    
     8   46    5 1    
     9    7    6 1    
    10    8    6 1    
    11   47    6 1    
    12   12    7 1    
    13    9    8 1    
    14   10    8 1    
    15   48    8 1    
    16   67    9 1    
    17   11   10 1    
    18   12   10 1    
    19   49   10 1    
    20   68   11 1    
    21   13   12 1    
    22   50   12 1    
    23   14   13 1    
    24   22   13 1    
    25   15   14 2    
    26   51   14 1    
    27   16   15 1    
    28   17   16 ar   
    29   22   16 ar   
    30   18   17 1    
    31   19   17 ar   
    32   52   18 1    
    33   53   18 1    
    34   20   19 ar   
    35   21   20 ar   
    36   54   20 1    
    37   22   21 ar   
    38   24   23 1    
    39   25   24 ar   
    40   26   24 ar   
    41   27   24 1    
    42   28   27 1    
    43   29   28 1    
    44   55   28 1    
    45   56   28 1    
    46   30   29 1    
    47   31   29 1    
    48   57   29 1    
    49   35   30 1    
    50   32   31 1    
    51   33   31 1    
    52   58   31 1    
    53   69   32 1    
    54   34   33 1    
    55   35   33 1    
    56   59   33 1    
    57   70   34 1    
    58   36   35 1    
    59   60   35 1    
    60   37   36 ar   
    61   44   36 ar   
    62   38   37 ar   
    63   61   37 1    
    64   39   38 1    
    65   42   38 ar   
    66   40   39 2    
    67   41   39 am   
    68   62   41 1    
    69   63   41 1    
    70   43   42 ar   
    71   64   42 1    
    72   44   43 ar   
    73   65   43 1    
    74   66   44 1    
@<TRIPOS>SUBSTRUCTURE
     1 NAD401      1 GROUP   
@<TRIPOS>SET

