#    Name: 3ayg_HQO_1_INTS_M
#    Modification time : Mon Mar 24 18:28:49 2014

@<TRIPOS>MOLECULE
3ayg_HQO_1_INTS_M
   56     0     6     0     0
SMALL
NO_CHARGES


@<TRIPOS>ATOM
      1 CA         34.7310   33.8890   -2.2730 C.3       2 GLC5        0.0000 
      2 CA         35.2160   33.8540   -4.3630 C.3       6 GLL5        0.0000 
      3 CA         34.2460   33.9240   -0.1830 C.3       4 GLP5        0.0000 
      4 CA         34.8130   33.0450   -6.2020 C.3       2 GLC5        0.0000 
      5 CA         34.4100   32.2360   -8.0410 C.3       4 GLP5        0.0000 
      6 CA         33.6475   32.5555   -4.5375 C.3       2 GLC5        0.0000 
      7 CA         32.0790   31.2570   -4.7120 C.3       4 GLP5        0.0000 
      8 O          34.1800   31.5010   -4.0660 O.2       1 ALC1        0.0000 
      9 O          34.3010   32.9200   -3.9830 O.2       5 ALL1        0.0000 
     10 O          34.0590   30.0820   -4.1490 O.2       3 ALP1        0.0000 
     11 CA         34.1565   35.1445   -2.3790 C.3       2 GLC5        0.0000 
     12 CA         34.9450   35.1950   -4.1850 C.3       6 GLL5        0.0000 
     13 CA         33.3680   35.0940   -0.5730 C.3       4 GLP5        0.0000 
     14 CA         37.7255   35.7935   -3.2545 C.3       2 GLC5        0.0000 
     15 CA         35.9040   36.1470   -4.5060 C.3       6 GLL5        0.0000 
     16 CA         39.5470   35.4400   -2.0030 C.3       4 GLP5        0.0000 
     17 CA         40.7705   32.1430   -6.0515 C.3       2 GLC5        0.0000 
     18 CA         38.8990   32.6320   -5.9180 C.3       6 GLL5        0.0000 
     19 CA         42.6420   31.6540   -6.1850 C.3       4 GLP5        0.0000 
     20 CA         39.5895   31.5265   -7.6880 C.3       2 GLC5        0.0000 
     21 CA         40.2800   30.4210   -9.4580 C.3       4 GLP5        0.0000 
     22 CA         36.6025   32.5230   -7.0695 C.3       2 GLC5        0.0000 
     23 CA         37.9330   31.6910   -5.5980 C.3       6 GLL5        0.0000 
     24 CA         35.2720   33.3550   -8.5410 C.3       4 GLP5        0.0000 
     25 CA         35.5575   32.1655   -6.5590 C.3       2 GLC5        0.0000 
     26 CA         36.7050   32.0950   -5.0770 C.3       6 GLL5        0.0000 
     27 CA         38.2375   33.7340   -3.6155 C.3       2 GLC5        0.0000 
     28 CA         36.4510   33.4410   -4.8800 C.3       6 GLL5        0.0000 
     29 CA         40.0240   34.0270   -2.3510 C.3       4 GLP5        0.0000 
     30 CA         38.4390   37.2990   -2.8975 C.3       2 GLC5        0.0000 
     31 CA         36.5600   38.0870   -3.0940 C.3       6 GLL5        0.0000 
     32 CA         40.3180   36.5110   -2.7010 C.3       4 GLP5        0.0000 
     33 CA         36.3975   36.8670    0.3680 C.3       2 GLC5        0.0000 
     34 CA         35.5350   38.3000   -0.7940 C.3       6 GLL5        0.0000 
     35 CA         37.2600   35.4340    1.5300 C.3       4 GLP5        0.0000 
     36 CA         36.4075   37.8205    2.1530 C.3       2 GLC5        0.0000 
     37 CA         35.5890   39.4600    1.4440 C.3       6 GLL5        0.0000 
     38 CA         37.2260   36.1810    2.8620 C.3       4 GLP5        0.0000 
     39 CA         39.2437   33.7184   -4.0201 C.3       2 GLC5        0.0000 
     40 CA         37.4140   34.3880   -5.2020 C.3       6 GLL5        0.0000 
     41 CA         36.7180   30.1020   -6.0047 C.3       2 GLC5        0.0000 
     42 CA         36.1170   28.3110   -6.6720 C.3       4 GLP5        0.0000 
     43 CA         36.9985   31.6460   -3.4579 C.3       2 GLC5        0.0000 
     44 CA         37.1120   30.6250   -1.8070 C.3       4 GLP5        0.0000 
     45 CA         36.2558   33.5846   -6.8556 C.3       2 GLC5        0.0000 
     46 CA         37.2782   38.9053   -2.7165 C.3       2 GLC5        0.0000 
     47 CA         35.6270   37.6220   -4.2080 C.3       6 GLL5        0.0000 
     48 CA         38.4630   39.9560   -1.7820 C.3       4 GLP5        0.0000 
     49 CA         37.0700   39.3045   -1.6195 C.3       2 GLC5        0.0000 
     50 CA         35.8190   39.0060   -2.1200 C.3       6 GLL5        0.0000 
     51 CA         37.2211   39.2911   -4.0758 C.3       2 GLC5        0.0000 
     52 CA         38.4860   40.1520   -5.2660 C.3       4 GLP5        0.0000 
     53 CA         34.2672   36.9348   -0.4472 C.3       2 GLC5        0.0000 
     54 CA         36.4363   40.2313   -0.4638 C.3       2 GLC5        0.0000 
     55 CA         34.7980   39.2510    0.1510 C.3       6 GLL5        0.0000 
     56 CA         37.6790   41.1070   -1.7250 C.3       4 GLP5        0.0000 
@<TRIPOS>BOND
@<TRIPOS>SUBSTRUCTURE
     1 ALC1        8 GROUP        1 X    ALC  0     ROOT ALC X 1
     2 GLC5        1 GROUP        1 X    GLC  0     **** GLC X 6
     3 ALP1       10 GROUP        1 Y    ALP  0     ROOT ALP Y 8
     4 GLP5        3 GROUP        1 Y    GLP  0     **** GLP Y 13
     5 ALL1        9 GROUP        1 Z    ALL  0     ROOT ALL Z 15
     6 GLL5        2 GROUP        1 Z    GLL  0     **** GLL Z 20
@<TRIPOS>SET

