#    Name: 3ayg_HQO_1_ligand
#    Modification time : Mon Mar 24 18:28:49 2014

@<TRIPOS>MOLECULE
3ayg_HQO_1_ligand
   40    41     1     0     0
SMALL
NO_CHARGES


@<TRIPOS>ATOM
      1 C1         35.2160   33.8540   -4.3630 C.ar      1 HQO811      0.0000 
      2 O1         34.3010   32.9200   -3.9830 O.3       1 HQO811      0.0000 
      3 C2         34.9450   35.1950   -4.1850 C.ar      1 HQO811      0.0000 
      4 C3         35.9040   36.1470   -4.5060 C.ar      1 HQO811      0.0000 
      5 N1         37.1480   35.7470   -5.0170 N.pl3     1 HQO811      0.0000 
      6 O4         38.0980   36.6850   -5.3400 O.2       1 HQO811      0.0000 
      7 C5         37.4140   34.3880   -5.2020 C.ar      1 HQO811      0.0000 
      8 C6         38.6420   33.9870   -5.7190 C.ar      1 HQO811      0.0000 
      9 C7         38.8990   32.6320   -5.9180 C.ar      1 HQO811      0.0000 
     10 C8         37.9330   31.6910   -5.5980 C.ar      1 HQO811      0.0000 
     11 C9         36.7050   32.0950   -5.0770 C.ar      1 HQO811      0.0000 
     12 C10        36.4510   33.4410   -4.8800 C.ar      1 HQO811      0.0000 
     13 C11        35.6270   37.6220   -4.2080 C.3       1 HQO811      0.0000 
     14 C12        35.8190   39.0060   -2.1200 C.3       1 HQO811      0.0000 
     15 C13        36.5600   38.0870   -3.0940 C.3       1 HQO811      0.0000 
     16 C14        35.5350   38.3000   -0.7940 C.3       1 HQO811      0.0000 
     17 C15        34.7980   39.2510    0.1510 C.3       1 HQO811      0.0000 
     18 C16        35.5890   39.4600    1.4440 C.3       1 HQO811      0.0000 
     19 C17        34.9220   40.5240    2.3190 C.3       1 HQO811      0.0000 
     20 H          34.0314   35.4948   -3.8138 H         1 HQO811      0.0000 
     21 H          39.3560   34.6855   -5.9530 H         1 HQO811      0.0000 
     22 H          39.8049   32.3340   -6.3018 H         1 HQO811      0.0000 
     23 H          38.1200   30.6886   -5.7445 H         1 HQO811      0.0000 
     24 H          35.9935   31.3923   -4.8414 H         1 HQO811      0.0000 
     25 H          34.6001   37.7365   -3.8905 H         1 HQO811      0.0000 
     26 H          35.8078   38.2074   -5.0986 H         1 HQO811      0.0000 
     27 H          34.8757   39.3183   -2.5698 H         1 HQO811      0.0000 
     28 H          36.4261   39.8925   -1.9321 H         1 HQO811      0.0000 
     29 H          37.3986   38.6273   -3.5275 H         1 HQO811      0.0000 
     30 H          36.9358   37.2214   -2.5531 H         1 HQO811      0.0000 
     31 H          36.4716   37.9974   -0.3399 H         1 HQO811      0.0000 
     32 H          34.9193   37.4267   -0.9762 H         1 HQO811      0.0000 
     33 H          33.8219   38.8327    0.3915 H         1 HQO811      0.0000 
     34 H          34.6586   40.2112   -0.3432 H         1 HQO811      0.0000 
     35 H          36.5993   39.7791    1.1990 H         1 HQO811      0.0000 
     36 H          35.6347   38.5220    1.9923 H         1 HQO811      0.0000 
     37 H          35.4250   40.6735    3.1702 H         1 HQO811      0.0000 
     38 H          34.8662   41.4068    1.8526 H         1 HQO811      0.0000 
     39 H          33.9893   40.2662    2.5711 H         1 HQO811      0.0000 
     40 H          34.6875   32.0453   -4.2754 H         1 HQO811      0.0000 
@<TRIPOS>BOND
     1    2    1 1    
     2    3    1 ar   
     3   12    1 ar   
     4   40    2 1    
     5    4    3 ar   
     6   20    3 1    
     7    5    4 ar   
     8   13    4 1    
     9    6    5 1    
    10    7    5 ar   
    11    8    7 ar   
    12   12    7 ar   
    13    9    8 ar   
    14   21    8 1    
    15   10    9 ar   
    16   22    9 1    
    17   11   10 ar   
    18   23   10 1    
    19   12   11 ar   
    20   24   11 1    
    21   15   13 1    
    22   25   13 1    
    23   26   13 1    
    24   15   14 1    
    25   16   14 1    
    26   27   14 1    
    27   28   14 1    
    28   29   15 1    
    29   30   15 1    
    30   17   16 1    
    31   31   16 1    
    32   32   16 1    
    33   18   17 1    
    34   33   17 1    
    35   34   17 1    
    36   19   18 1    
    37   35   18 1    
    38   36   18 1    
    39   37   19 1    
    40   38   19 1    
    41   39   19 1    
@<TRIPOS>SUBSTRUCTURE
     1 HQO811      1 GROUP   
@<TRIPOS>SET

