#    Name: 1zz2_B11_1_INTS_M
#    Modification time : Mon Mar 24 18:11:59 2014

@<TRIPOS>MOLECULE
1zz2_B11_1_INTS_M
   82     0    12     0     0
SMALL
NO_CHARGES


@<TRIPOS>ATOM
      1 CA         26.8735   68.5520   16.4330 C.3       4 GLC5        0.0000 
      2 CA         28.8390   68.5680   16.5790 C.3      12 GLL5        0.0000 
      3 CA         24.9080   68.5360   16.2870 C.3       8 GLP5        0.0000 
      4 CA         30.5625   68.2815   13.8440 C.3       4 GLC5        0.0000 
      5 CA         29.9200   68.2440   15.6580 C.3      12 GLL5        0.0000 
      6 CA         31.2050   68.3190   12.0300 C.3       8 GLP5        0.0000 
      7 CA         31.9525   69.4765   14.3215 C.3       4 GLC5        0.0000 
      8 CA         31.2830   68.7130   15.8980 C.3      12 GLL5        0.0000 
      9 CA         32.6220   70.2400   12.7450 C.3       8 GLP5        0.0000 
     10 N          27.3985   70.9590   18.1970 N.am      2 SEC2        0.0000 
     11 N          28.2970   69.7300   18.5730 N.am     10 SEL2        0.0000 
     12 N          26.5000   72.1880   17.8210 N.am      6 SEP2        0.0000 
     13 O          27.2490   68.9610   18.4340 O.2       1 ALC1        0.0000 
     14 O          28.2970   69.7300   18.5730 O.2       9 ALL1        0.0000 
     15 O          26.2010   68.1920   18.2950 O.2       5 ALP1        0.0000 
     16 CA         32.4500   69.7840   19.8090 C.3       4 GLC5        0.0000 
     17 CA         30.7450   70.5210   19.3010 C.3      12 GLL5        0.0000 
     18 CA         34.1550   69.0470   20.3170 C.3       8 GLP5        0.0000 
     19 OD1        31.4195   72.4985   18.1215 O.co2     3 ASC3        0.0000 
     20 OD1        30.6640   71.9830   19.1740 O.co2    11 ASL3        0.0000 
     21 OD1        32.1750   73.0140   17.0690 O.co2     7 ASP3        0.0000 
     22 CA         37.8665   77.1050   18.2760 C.3       4 GLC5        0.0000 
     23 CA         37.4740   77.3050   16.0910 C.3      12 GLL5        0.0000 
     24 CA         38.2590   76.9050   20.4610 C.3       8 GLP5        0.0000 
     25 CA         38.8255   77.8640   10.6500 C.3       4 GLC5        0.0000 
     26 CA         38.2370   77.5900   12.2920 C.3      12 GLL5        0.0000 
     27 CA         39.4140   78.1380    9.0080 C.3       8 GLP5        0.0000 
     28 CA         39.3515   76.4780   12.1200 C.3       4 GLC5        0.0000 
     29 CA         40.4660   75.3660   11.9480 C.3       8 GLP5        0.0000 
     30 CA         37.3490   79.1500   12.6140 C.3       4 GLC5        0.0000 
     31 CA         36.4610   80.7100   12.9360 C.3       8 GLP5        0.0000 
     32 CA         28.2078   67.1155   15.1022 C.3       4 GLC5        0.0000 
     33 CA         27.0360   65.8250   14.0860 C.3       8 GLP5        0.0000 
     34 CA         33.2353   68.8195   17.2443 C.3       4 GLC5        0.0000 
     35 CA         35.0280   68.5300   18.0020 C.3       8 GLP5        0.0000 
     36 CA         31.0183   70.9390   15.8907 C.3       4 GLC5        0.0000 
     37 CA         31.6020   69.5050   17.0750 C.3      12 GLL5        0.0000 
     38 CA         30.5940   72.7690   15.2950 C.3       8 GLP5        0.0000 
     39 CA         30.2127   71.1775   16.5837 C.3       4 GLC5        0.0000 
     40 CA         30.5130   69.8080   17.9900 C.3      12 GLL5        0.0000 
     41 CA         31.1505   76.1530   19.2447 C.3       4 GLC5        0.0000 
     42 CA         30.8550   74.2580   20.0030 C.3      12 GLL5        0.0000 
     43 CA         31.1530   77.5810   17.9650 C.3       8 GLP5        0.0000 
     44 CA         34.0395   71.8648   21.3865 C.3       4 GLC5        0.0000 
     45 CA         33.1740   73.4960   21.5980 C.3      12 GLL5        0.0000 
     46 CA         35.2080   70.7130   21.6830 C.3       8 GLP5        0.0000 
     47 CA         32.7665   77.4405   18.8230 C.3       4 GLC5        0.0000 
     48 CA         34.6380   76.7600   19.2660 C.3      12 GLL5        0.0000 
     49 CA         36.4785   77.0538   19.6267 C.3       4 GLC5        0.0000 
     50 CA         36.3135   79.1880   17.8742 C.3       4 GLC5        0.0000 
     51 CA         35.0160   77.1050   17.9040 C.3      12 GLL5        0.0000 
     52 CA         37.6920   80.5910   18.0900 C.3       8 GLP5        0.0000 
     53 CA         33.4630   77.4530   16.6573 C.3       4 GLC5        0.0000 
     54 CA         34.8540   78.4650   17.4130 C.3      12 GLL5        0.0000 
     55 CA         31.9910   77.1210   15.6560 C.3       8 GLP5        0.0000 
     56 CA         35.3148   79.6185   16.0820 C.3       4 GLC5        0.0000 
     57 CA         36.0350   80.2450   14.3260 C.3       8 GLP5        0.0000 
     58 CA         35.9223   79.9765   18.5190 C.3       4 GLC5        0.0000 
     59 CA         34.3350   79.5190   18.2630 C.3      12 GLL5        0.0000 
     60 CA         32.6527   78.4715   18.4565 C.3       4 GLC5        0.0000 
     61 CA         34.8173   77.1235   14.1550 C.3       4 GLC5        0.0000 
     62 CA         35.7110   76.0000   14.7670 C.3      12 GLL5        0.0000 
     63 CA         33.6460   78.0010   12.9180 C.3       8 GLP5        0.0000 
     64 CA         36.0117   78.2455   14.8590 C.3       4 GLC5        0.0000 
     65 CA         33.9898   76.6835   15.5240 C.3       4 GLC5        0.0000 
     66 CA         36.2660   76.4920   16.0170 C.3      12 GLL5        0.0000 
     67 CA         37.0324   74.6912   15.0980 C.3       4 GLC5        0.0000 
     68 CA         37.8690   73.0810   15.7310 C.3       8 GLP5        0.0000 
     69 CA         35.3250   77.3838   13.2372 C.3       4 GLC5        0.0000 
     70 CA         36.4030   76.3570   13.5380 C.3      12 GLL5        0.0000 
     71 CA         36.5195   78.5058   13.9413 C.3       4 GLC5        0.0000 
     72 CA         37.6050   77.1760   13.5750 C.3      12 GLL5        0.0000 
     73 CA         37.7515   79.0333   16.7792 C.3       4 GLC5        0.0000 
     74 CA         38.1480   77.6460   14.8460 C.3      12 GLL5        0.0000 
     75 CA         39.0210   76.2861   13.0746 C.3       4 GLC5        0.0000 
     76 CA         36.9230   78.8603   14.8972 C.3       4 GLC5        0.0000 
     77 CA         38.6816   75.9780   15.7549 C.3       4 GLC5        0.0000 
     78 CA         39.6880   74.5980   16.3590 C.3       8 GLP5        0.0000 
     79 CA         37.0433   76.2901   11.5176 C.3       4 GLC5        0.0000 
     80 CA         36.4660   75.4020   10.1110 C.3       8 GLP5        0.0000 
     81 CA         39.5284   78.6568   13.1141 C.3       4 GLC5        0.0000 
     82 CA         41.0000   79.8130   12.9770 C.3       8 GLP5        0.0000 
@<TRIPOS>BOND
@<TRIPOS>SUBSTRUCTURE
     1 ALC1       13 GROUP        1 X    ALC  0     ROOT ALC X 1
     2 SEC2       10 GROUP        1 X    SEC  0     **** SEC X 2
     3 ASC3       19 GROUP        1 X    ASC  0     **** ASC X 3
     4 GLC5        1 GROUP        1 X    GLC  0     **** GLC X 6
     5 ALP1       15 GROUP        1 Y    ALP  0     ROOT ALP Y 8
     6 SEP2       12 GROUP        1 Y    SEP  0     **** SEP Y 9
     7 ASP3       21 GROUP        1 Y    ASP  0     **** ASP Y 10
     8 GLP5        3 GROUP        1 Y    GLP  0     **** GLP Y 13
     9 ALL1       14 GROUP        1 Z    ALL  0     ROOT ALL Z 15
    10 SEL2       11 GROUP        1 Z    SEL  0     **** SEL Z 16
    11 ASL3       20 GROUP        1 Z    ASL  0     **** ASL Z 17
    12 GLL5        2 GROUP        1 Z    GLL  0     **** GLL Z 20
@<TRIPOS>SET

