#    Name: 1zz2_B11_1_ligand
#    Modification time : Mon Mar 24 18:11:59 2014

@<TRIPOS>MOLECULE
1zz2_B11_1_ligand
   58    61     1     0     0
SMALL
NO_CHARGES


@<TRIPOS>ATOM
      1 C1         28.8390   68.5680   16.5790 C.ar      1 B11362      0.0000 
      2 C2         29.9200   68.2440   15.6580 C.ar      1 B11362      0.0000 
      3 C3         31.2830   68.7130   15.8980 C.ar      1 B11362      0.0000 
      4 C4         31.6020   69.5050   17.0750 C.ar      1 B11362      0.0000 
      5 C5         30.5130   69.8080   17.9900 C.ar      1 B11362      0.0000 
      6 C6         29.1500   69.3640   17.7550 C.ar      1 B11362      0.0000 
      7 O7         28.2970   69.7300   18.5730 O.3       1 B11362      0.0000 
      8 C8         30.7450   70.5210   19.3010 C.3       1 B11362      0.0000 
      9 N9         30.6640   71.9830   19.1740 N.4       1 B11362      0.0000 
     10 C10        31.0760   72.7830   20.3380 C.3       1 B11362      0.0000 
     11 C11        30.8550   74.2580   20.0030 C.3       1 B11362      0.0000 
     12 C12        31.4410   75.1920   21.0460 C.3       1 B11362      0.0000 
     13 N13        32.8760   74.9020   21.2540 N.pl3     1 B11362      0.0000 
     14 C14        33.1740   73.4960   21.5980 C.3       1 B11362      0.0000 
     15 C15        32.5680   72.5370   20.5820 C.3       1 B11362      0.0000 
     16 S16        33.7600   76.1260   22.1960 S.o2      1 B11362      0.0000 
     17 N17        33.7490   77.6910   21.4490 N.pl3     1 B11362      0.0000 
     18 O18        32.9590   76.2460   23.7240 O.2       1 B11362      0.0000 
     19 O19        35.3710   75.5410   22.3230 O.2       1 B11362      0.0000 
     20 C20        34.1220   77.8400   20.0960 C.ar      1 B11362      0.0000 
     21 C21        34.6380   76.7600   19.2660 C.ar      1 B11362      0.0000 
     22 C22        35.0160   77.1050   17.9040 C.ar      1 B11362      0.0000 
     23 C23        34.8540   78.4650   17.4130 C.ar      1 B11362      0.0000 
     24 C24        34.3350   79.5190   18.2630 C.ar      1 B11362      0.0000 
     25 C25        33.9700   79.2050   19.6330 C.ar      1 B11362      0.0000 
     26 O26        35.5880   76.1750   17.1270 O.3       1 B11362      0.0000 
     27 C27        36.2660   76.4920   16.0170 C.ar      1 B11362      0.0000 
     28 C28        35.7110   76.0000   14.7670 C.ar      1 B11362      0.0000 
     29 C29        36.4030   76.3570   13.5380 C.ar      1 B11362      0.0000 
     30 C30        37.6050   77.1760   13.5750 C.ar      1 B11362      0.0000 
     31 C31        38.1480   77.6460   14.8460 C.ar      1 B11362      0.0000 
     32 C32        37.4740   77.3050   16.0910 C.ar      1 B11362      0.0000 
     33 F1         38.2370   77.5900   12.2920 F         1 B11362      0.0000 
     34 H          27.9119   68.2520   16.4065 H         1 B11362      0.0000 
     35 H          29.7255   67.6836   14.8358 H         1 B11362      0.0000 
     36 H          32.0118   68.4821   15.2350 H         1 B11362      0.0000 
     37 H          32.5205   69.8241   17.2461 H         1 B11362      0.0000 
     38 H          31.7370   70.2271   19.6900 H         1 B11362      0.0000 
     39 H          29.9998   70.1607   20.0335 H         1 B11362      0.0000 
     40 H          30.5270   72.5248   21.1969 H         1 B11362      0.0000 
     41 H          29.7764   74.4443   19.9139 H         1 B11362      0.0000 
     42 H          31.3101   74.4726   19.0268 H         1 B11362      0.0000 
     43 H          30.8884   75.0651   21.9818 H         1 B11362      0.0000 
     44 H          31.3072   76.2242   20.7085 H         1 B11362      0.0000 
     45 H          32.7722   73.2529   22.5895 H         1 B11362      0.0000 
     46 H          34.2584   73.3326   21.6278 H         1 B11362      0.0000 
     47 H          33.1045   72.6349   19.6281 H         1 B11362      0.0000 
     48 H          32.7048   71.5049   20.9332 H         1 B11362      0.0000 
     49 H          33.4631   78.3845   22.0811 H         1 B11362      0.0000 
     50 H          34.7262   75.8436   19.6097 H         1 B11362      0.0000 
     51 H          35.1112   78.6792   16.4515 H         1 B11362      0.0000 
     52 H          34.2294   80.4504   17.9111 H         1 B11362      0.0000 
     53 H          33.6220   79.9150   20.2419 H         1 B11362      0.0000 
     54 H          34.8937   75.4434   14.7517 H         1 B11362      0.0000 
     55 H          36.0451   76.0327   12.6493 H         1 B11362      0.0000 
     56 H          38.9838   78.2026   14.8600 H         1 B11362      0.0000 
     57 H          37.8260   77.6165   16.9646 H         1 B11362      0.0000 
     58 H          27.8083   68.8956   18.8280 H         1 B11362      0.0000 
@<TRIPOS>BOND
     1    2    1 ar   
     2    6    1 ar   
     3   34    1 1    
     4    3    2 ar   
     5   35    2 1    
     6    4    3 ar   
     7   36    3 1    
     8    5    4 ar   
     9   37    4 1    
    10    6    5 ar   
    11    8    5 1    
    12    7    6 1    
    13   58    7 1    
    14    9    8 1    
    15   38    8 1    
    16   39    8 1    
    17   10    9 1    
    18   11   10 1    
    19   15   10 1    
    20   40   10 1    
    21   12   11 1    
    22   41   11 1    
    23   42   11 1    
    24   13   12 1    
    25   43   12 1    
    26   44   12 1    
    27   14   13 1    
    28   16   13 1    
    29   15   14 1    
    30   45   14 1    
    31   46   14 1    
    32   47   15 1    
    33   48   15 1    
    34   17   16 1    
    35   18   16 2    
    36   19   16 2    
    37   20   17 1    
    38   49   17 1    
    39   21   20 ar   
    40   25   20 ar   
    41   22   21 ar   
    42   50   21 1    
    43   23   22 ar   
    44   26   22 1    
    45   24   23 ar   
    46   51   23 1    
    47   25   24 ar   
    48   52   24 1    
    49   53   25 1    
    50   27   26 1    
    51   28   27 ar   
    52   32   27 ar   
    53   29   28 ar   
    54   54   28 1    
    55   30   29 ar   
    56   55   29 1    
    57   31   30 ar   
    58   33   30 1    
    59   32   31 ar   
    60   56   31 1    
    61   57   32 1    
@<TRIPOS>SUBSTRUCTURE
     1 B11362      1 GROUP   
@<TRIPOS>SET

