#    Name: 1nup_NMN_1_INTS_M
#    Modification time : Mon Mar 24 18:54:43 2014

@<TRIPOS>MOLECULE
1nup_NMN_1_INTS_M
   35     0     9     0     0
SMALL
NO_CHARGES


@<TRIPOS>ATOM
      1 CA         11.3000    7.8350   22.8720 C.3       3 GLC5        0.0000 
      2 CA         10.3260    9.7760   22.3160 C.3       9 GLL5        0.0000 
      3 CA         12.2740    5.8940   23.4280 C.3       6 GLP5        0.0000 
      4 O          11.4000   12.0465   22.4410 O.2       1 ALC1        0.0000 
      5 O          10.3810   11.1900   22.5050 O.2       7 ALL1        0.0000 
      6 O          12.4190   12.9030   22.3770 O.2       4 ALP1        0.0000 
      7 CA         10.5260    7.4085   23.9585 C.3       3 GLC5        0.0000 
      8 CA          9.8110    9.1290   23.5760 C.3       9 GLL5        0.0000 
      9 CA         11.2410    5.6880   24.3410 C.3       6 GLP5        0.0000 
     10 N          10.9745    9.4900   25.9045 N.am      2 SEC2        0.0000 
     11 N          10.3120    9.8380   24.7180 N.am      8 SEL2        0.0000 
     12 N          11.6370    9.1420   27.0910 N.am      5 SEP2        0.0000 
     13 CA          6.2140    9.6500   23.7370 C.3       3 GLC5        0.0000 
     14 CA          8.3210    9.3790   23.4540 C.3       9 GLL5        0.0000 
     15 CA          4.1070    9.9210   24.0200 C.3       6 GLP5        0.0000 
     16 CA          6.6840   11.0935   25.5460 C.3       3 GLC5        0.0000 
     17 CA          7.0040    9.0560   25.5220 C.3       9 GLL5        0.0000 
     18 CA          6.3640   13.1310   25.5700 C.3       6 GLP5        0.0000 
     19 N           6.6545   11.3595   27.8110 N.am      2 SEC2        0.0000 
     20 N           5.9610   10.1190   27.8950 N.am      8 SEL2        0.0000 
     21 N           7.3480   12.6000   27.7270 N.am      5 SEP2        0.0000 
     22 O           4.6670    6.6980   28.5560 O.2       1 ALC1        0.0000 
     23 O           5.0310    8.1230   28.4790 O.2       7 ALL1        0.0000 
     24 O           4.3030    5.2730   28.6330 O.2       4 ALP1        0.0000 
     25 CA          5.2135    5.1795   25.9475 C.3       3 GLC5        0.0000 
     26 CA          6.0670    6.9100   26.1300 C.3       9 GLL5        0.0000 
     27 CA          4.3600    3.4490   25.7650 C.3       6 GLP5        0.0000 
     28 CA          6.1770    4.6275   25.4950 C.3       3 GLC5        0.0000 
     29 CA          6.5800    6.3340   24.9510 C.3       9 GLL5        0.0000 
     30 CA          5.7740    2.9210   26.0390 C.3       6 GLP5        0.0000 
     31 CA         10.7744   10.2971   20.2186 C.3       3 GLC5        0.0000 
     32 CA          9.5640    8.2740   20.4310 C.3       9 GLL5        0.0000 
     33 CA         11.6850   11.2660   18.8520 C.3       6 GLP5        0.0000 
     34 CA         12.0747    9.7858   23.5370 C.3       3 GLC5        0.0000 
     35 CA         14.0810   10.1190   24.1280 C.3       6 GLP5        0.0000 
@<TRIPOS>BOND
@<TRIPOS>SUBSTRUCTURE
     1 ALC1        4 GROUP        1 X    ALC  0     ROOT ALC X 1
     2 SEC2       10 GROUP        1 X    SEC  0     **** SEC X 2
     3 GLC5        1 GROUP        1 X    GLC  0     **** GLC X 6
     4 ALP1        6 GROUP        1 Y    ALP  0     ROOT ALP Y 8
     5 SEP2       12 GROUP        1 Y    SEP  0     **** SEP Y 9
     6 GLP5        3 GROUP        1 Y    GLP  0     **** GLP Y 13
     7 ALL1        5 GROUP        1 Z    ALL  0     ROOT ALL Z 15
     8 SEL2       11 GROUP        1 Z    SEL  0     **** SEL Z 16
     9 GLL5        2 GROUP        1 Z    GLL  0     **** GLL Z 20
@<TRIPOS>SET

