#    Name: 1nup_NMN_1_ligand
#    Modification time : Mon Mar 24 18:54:44 2014

@<TRIPOS>MOLECULE
1nup_NMN_1_ligand
   36    37     1     0     0
SMALL
NO_CHARGES


@<TRIPOS>ATOM
      1 O3P        11.0260    5.6510   19.7760 O.co2     1 NMN401      0.0000 
      2 P           9.6970    5.6800   20.4480 P.3       1 NMN401      0.0000 
      3 O1P         8.4880    5.4270   19.6290 O.co2     1 NMN401      0.0000 
      4 O2P         9.7250    4.6380   21.6520 O.co2     1 NMN401      0.0000 
      5 O5R         9.5290    7.0840   21.2020 O.3       1 NMN401      0.0000 
      6 C5R         9.5640    8.2740   20.4310 C.3       1 NMN401      0.0000 
      7 C4R         9.2390    9.4870   21.2780 C.3       1 NMN401      0.0000 
      8 O4R         8.0220    9.1950   22.0400 O.3       1 NMN401      0.0000 
      9 C3R        10.3260    9.7760   22.3160 C.3       1 NMN401      0.0000 
     10 O3R        10.3810   11.1900   22.5050 O.3       1 NMN401      0.0000 
     11 C2R         9.8110    9.1290   23.5760 C.3       1 NMN401      0.0000 
     12 O2R        10.3120    9.8380   24.7180 O.3       1 NMN401      0.0000 
     13 C1R         8.3210    9.3790   23.4540 C.3       1 NMN401      0.0000 
     14 N1          7.5230    8.4990   24.3500 N.pl3     1 NMN401      0.0000 
     15 C2          7.0040    9.0560   25.5220 C.ar      1 NMN401      0.0000 
     16 C3          6.2790    8.2710   26.4100 C.ar      1 NMN401      0.0000 
     17 C7          5.7400    8.9240   27.6730 C.2       1 NMN401      0.0000 
     18 O7          5.9610   10.1190   27.8950 O.2       1 NMN401      0.0000 
     19 N7          5.0310    8.1230   28.4790 N.am      1 NMN401      0.0000 
     20 C4          6.0670    6.9100   26.1300 C.ar      1 NMN401      0.0000 
     21 C5          6.5800    6.3340   24.9510 C.ar      1 NMN401      0.0000 
     22 C6          7.3130    7.1300   24.0510 C.ar      1 NMN401      0.0000 
     23 H           8.8389    8.2408   19.5980 H         1 NMN401      0.0000 
     24 H          10.5586    8.4363   19.9778 H         1 NMN401      0.0000 
     25 H           9.0976   10.3394   20.6685 H         1 NMN401      0.0000 
     26 H          11.2144    9.3430   22.0178 H         1 NMN401      0.0000 
     27 H          10.0006    8.1181   23.5643 H         1 NMN401      0.0000 
     28 H           8.1545   10.4258   23.7163 H         1 NMN401      0.0000 
     29 H           7.1616   10.0529   25.7250 H         1 NMN401      0.0000 
     30 H           4.7156    8.5293   29.3366 H         1 NMN401      0.0000 
     31 H           4.8805    7.1904   28.1510 H         1 NMN401      0.0000 
     32 H           5.5346    6.3301   26.7885 H         1 NMN401      0.0000 
     33 H           6.4210    5.3470   24.7517 H         1 NMN401      0.0000 
     34 H           7.6890    6.7316   23.1956 H         1 NMN401      0.0000 
     35 H          11.3482   11.4261   22.4110 H         1 NMN401      0.0000 
     36 H           9.5547    9.8446   25.3710 H         1 NMN401      0.0000 
@<TRIPOS>BOND
     1    2    1 ar   
     2    3    2 ar   
     3    4    2 ar   
     4    5    2 1    
     5    6    5 1    
     6    7    6 1    
     7   23    6 1    
     8   24    6 1    
     9    8    7 1    
    10    9    7 1    
    11   25    7 1    
    12   13    8 1    
    13   10    9 1    
    14   11    9 1    
    15   26    9 1    
    16   35   10 1    
    17   12   11 1    
    18   13   11 1    
    19   27   11 1    
    20   36   12 1    
    21   14   13 1    
    22   28   13 1    
    23   15   14 ar   
    24   22   14 ar   
    25   16   15 ar   
    26   29   15 1    
    27   17   16 1    
    28   20   16 ar   
    29   18   17 2    
    30   19   17 am   
    31   30   19 1    
    32   31   19 1    
    33   21   20 ar   
    34   32   20 1    
    35   22   21 ar   
    36   33   21 1    
    37   34   22 1    
@<TRIPOS>SUBSTRUCTURE
     1 NMN401      1 GROUP   
@<TRIPOS>SET

