#    Name: 3at4_CCK_1_INTS_M
#    Modification time : Mon Mar 24 18:10:37 2014

@<TRIPOS>MOLECULE
3at4_CCK_1_INTS_M
   77     0     9     0     0
SMALL
NO_CHARGES


@<TRIPOS>ATOM
      1 N         -24.8325   -8.5030  -30.8640 N.am      1 SEC2        0.0000 
      2 N         -25.1630   -9.1420  -29.5900 N.am      7 SEL2        0.0000 
      3 N         -24.5020   -7.8640  -32.1380 N.am      4 SEP2        0.0000 
      4 CA        -26.6215   -9.8810  -31.0835 C.3       3 GLC5        0.0000 
      5 CA        -25.3790  -10.4650  -29.7320 C.3       9 GLL5        0.0000 
      6 CA        -27.8640   -9.2970  -32.4350 C.3       6 GLP5        0.0000 
      7 CA        -24.3290   -9.4210  -31.2365 C.3       3 GLC5        0.0000 
      8 CA        -23.2790   -8.3770  -32.7410 C.3       6 GLP5        0.0000 
      9 CA        -27.5310  -11.7190  -28.2850 C.3       3 GLC5        0.0000 
     10 CA        -25.6700  -11.2840  -28.6050 C.3       9 GLL5        0.0000 
     11 CA        -29.3920  -12.1540  -27.9650 C.3       6 GLP5        0.0000 
     12 CA        -25.7485   -7.4405  -30.0565 C.3       3 GLC5        0.0000 
     13 CA        -25.2030   -8.5860  -28.3890 C.3       9 GLL5        0.0000 
     14 CA        -26.2940   -6.2950  -31.7240 C.3       6 GLP5        0.0000 
     15 CA        -23.5510   -7.9270  -29.6650 C.3       3 GLC5        0.0000 
     16 CA        -21.8990   -7.2680  -30.9410 C.3       6 GLP5        0.0000 
     17 CA        -27.6960  -12.8780  -27.9010 C.3       3 GLC5        0.0000 
     18 CA        -26.0000  -13.6020  -27.8370 C.3       9 GLL5        0.0000 
     19 CA        -28.1865  -14.5075  -28.8475 C.3       3 GLC5        0.0000 
     20 CA        -26.2570  -14.8190  -28.4690 C.3       9 GLL5        0.0000 
     21 CA        -30.1160  -14.1960  -29.2260 C.3       6 GLP5        0.0000 
     22 CA        -27.7670  -10.2120  -24.5385 C.3       3 GLC5        0.0000 
     23 CA        -25.8140   -9.4160  -24.7480 C.3       9 GLL5        0.0000 
     24 CA        -29.7200  -11.0080  -24.3290 C.3       6 GLP5        0.0000 
     25 CA        -24.0050  -14.0090  -25.9710 C.3       3 GLC5        0.0000 
     26 CA        -26.0320  -14.8380  -25.7380 C.3       9 GLL5        0.0000 
     27 CA        -21.9780  -13.1800  -26.2040 C.3       6 GLP5        0.0000 
     28 CA        -23.3875  -13.3000  -24.4570 C.3       3 GLC5        0.0000 
     29 CA        -24.7970  -13.4200  -22.7100 C.3       9 GLL5        0.0000 
     30 CA        -23.7790  -12.0215  -23.1450 C.3       3 GLC5        0.0000 
     31 CA        -22.7610  -10.6230  -23.5800 C.3       6 GLP5        0.0000 
     32 CA        -28.7840  -15.2785  -22.8875 C.3       3 GLC5        0.0000 
     33 CA        -27.3490  -13.7310  -22.7350 C.3       9 GLL5        0.0000 
     34 CA        -30.2190  -16.8260  -23.0400 C.3       6 GLP5        0.0000 
     35 CA        -28.7570  -12.7550  -22.9210 C.3       3 GLC5        0.0000 
     36 CA        -30.1650  -11.7790  -23.1070 C.3       6 GLP5        0.0000 
     37 CA        -27.9190  -10.0180  -22.0650 C.3       3 GLC5        0.0000 
     38 CA        -26.2210   -8.9040  -22.2910 C.3       9 GLL5        0.0000 
     39 CA        -29.6170  -11.1320  -21.8390 C.3       6 GLP5        0.0000 
     40 CA        -27.3650   -8.0390  -20.7975 C.3       3 GLC5        0.0000 
     41 CA        -28.5090   -7.1740  -19.3040 C.3       6 GLP5        0.0000 
     42 CA        -26.8710   -6.8245  -22.2960 C.3       3 GLC5        0.0000 
     43 CA        -27.5210   -4.7450  -22.3010 C.3       6 GLP5        0.0000 
     44 NZ        -25.6420   -7.3695  -19.6935 N.4       2 LYC4        0.0000 
     45 NZ        -24.7790   -7.1440  -21.4800 N.4       8 LYL4        0.0000 
     46 NZ        -26.5050   -7.5950  -17.9070 N.4       5 LYP4        0.0000 
     47 N         -23.4005   -7.5085  -21.0315 N.am      1 SEC2        0.0000 
     48 N         -24.7790   -7.1440  -21.4800 N.am      7 SEL2        0.0000 
     49 N         -22.0220   -7.8730  -20.5830 N.am      4 SEP2        0.0000 
     50 NZ        -25.9915   -8.1560  -19.0035 N.4       2 LYC4        0.0000 
     51 NZ        -25.4780   -8.7170  -20.1000 N.4       8 LYL4        0.0000 
     52 N         -25.9915   -8.1560  -19.0035 N.am      1 SEC2        0.0000 
     53 N         -25.4780   -8.7170  -20.1000 N.am      7 SEL2        0.0000 
     54 N         -26.5050   -7.5950  -17.9070 N.am      4 SEP2        0.0000 
     55 CA        -27.0787   -9.7363  -29.0768 C.3       3 GLC5        0.0000 
     56 CA        -28.6330   -8.5980  -28.9850 C.3       6 GLP5        0.0000 
     57 CA        -23.9843  -11.5847  -28.4277 C.3       3 GLC5        0.0000 
     58 CA        -22.4440  -12.2950  -27.6870 C.3       6 GLP5        0.0000 
     59 CA        -26.9895   -8.7967  -28.4065 C.3       3 GLC5        0.0000 
     60 CA        -25.4890   -9.4050  -27.2670 C.3       9 GLL5        0.0000 
     61 CA        -23.4815   -9.8517  -27.6365 C.3       3 GLC5        0.0000 
     62 CA        -21.6170  -10.7080  -27.4450 C.3       6 GLP5        0.0000 
     63 CA        -24.1932  -12.9460  -27.4113 C.3       3 GLC5        0.0000 
     64 CA        -23.9622   -6.0370  -25.5595 C.3       3 GLC5        0.0000 
     65 CA        -25.3040   -7.4750  -25.6030 C.3       9 GLL5        0.0000 
     66 CA        -22.5260   -4.7030  -26.2010 C.3       6 GLP5        0.0000 
     67 CA        -26.0808   -5.7125  -25.4290 C.3       3 GLC5        0.0000 
     68 CA        -26.7630   -4.0540  -25.9400 C.3       6 GLP5        0.0000 
     69 CA        -23.5212   -7.6515  -24.8340 C.3       3 GLC5        0.0000 
     70 CA        -21.6440   -7.9320  -24.7500 C.3       6 GLP5        0.0000 
     71 CA        -28.0925  -15.1723  -26.9432 C.3       3 GLC5        0.0000 
     72 CA        -26.2910  -16.0500  -26.4310 C.3       9 GLL5        0.0000 
     73 CA        -29.8340  -14.2940  -26.7540 C.3       6 GLP5        0.0000 
     74 CA        -27.8963  -14.2545  -26.4200 C.3       3 GLC5        0.0000 
     75 CA        -24.3926   -9.7805  -23.4191 C.3       3 GLC5        0.0000 
     76 CA        -27.3655   -8.3343  -25.5599 C.3       3 GLC5        0.0000 
     77 CA        -29.1180   -8.4970  -26.5480 C.3       6 GLP5        0.0000 
@<TRIPOS>BOND
@<TRIPOS>SUBSTRUCTURE
     1 SEC2        1 GROUP        1 X    SEC  0     ROOT SEC X 2
     2 LYC4       44 GROUP        1 X    LYC  0     **** LYC X 4
     3 GLC5        4 GROUP        1 X    GLC  0     **** GLC X 6
     4 SEP2        3 GROUP        1 Y    SEP  0     ROOT SEP Y 9
     5 LYP4       46 GROUP        1 Y    LYP  0     **** LYP Y 11
     6 GLP5        6 GROUP        1 Y    GLP  0     **** GLP Y 13
     7 SEL2        2 GROUP        1 Z    SEL  0     ROOT SEL Z 16
     8 LYL4       45 GROUP        1 Z    LYL  0     **** LYL Z 18
     9 GLL5        5 GROUP        1 Z    GLL  0     **** GLL Z 20
@<TRIPOS>SET

