#    Name: 3at4_CCK_1_ligand
#    Modification time : Mon Mar 24 18:10:37 2014

@<TRIPOS>MOLECULE
3at4_CCK_1_ligand
   47    50     1     0     0
SMALL
NO_CHARGES


@<TRIPOS>ATOM
      1 N1        -25.1630   -9.1420  -29.5900 N.ar      1 CCK336      0.0000 
      2 C2        -25.3790  -10.4650  -29.7320 C.ar      1 CCK336      0.0000 
      3 C3        -25.6700  -11.2840  -28.6050 C.ar      1 CCK336      0.0000 
      4 N4        -25.7230  -10.7100  -27.3800 N.ar      1 CCK336      0.0000 
      5 C5        -25.4890   -9.4050  -27.2670 C.ar      1 CCK336      0.0000 
      6 C6        -25.2030   -8.5860  -28.3890 C.ar      1 CCK336      0.0000 
      7 N13       -25.9000  -12.6170  -28.7640 N.pl3     1 CCK336      0.0000 
      8 N15       -25.5210   -8.8510  -26.0470 N.pl3     1 CCK336      0.0000 
      9 C17       -26.0000  -13.6020  -27.8370 C.ar      1 CCK336      0.0000 
     10 C18       -26.2570  -14.8190  -28.4690 C.ar      1 CCK336      0.0000 
     11 C19       -26.3040  -14.4370  -29.8220 C.2       1 CCK336      0.0000 
     12 N20       -26.0490  -13.1210  -29.8910 N.2       1 CCK336      0.0000 
     13 C26       -25.8140   -9.4160  -24.7480 C.2       1 CCK336      0.0000 
     14 C27       -25.8410   -8.5280  -23.7030 C.2       1 CCK336      0.0000 
     15 C28       -25.4930   -7.2670  -24.2330 C.2       1 CCK336      0.0000 
     16 C29       -25.3040   -7.4750  -25.6030 C.2       1 CCK336      0.0000 
     17 C35       -26.4110  -16.0510  -27.8340 C.ar      1 CCK336      0.0000 
     18 C36       -26.2910  -16.0500  -26.4310 C.ar      1 CCK336      0.0000 
     19 C37       -26.0320  -14.8380  -25.7380 C.ar      1 CCK336      0.0000 
     20 C38       -25.8850  -13.5920  -26.4340 C.ar      1 CCK336      0.0000 
     21 N44       -25.9190  -14.8940  -24.3800 N.pl3     1 CCK336      0.0000 
     22 C46       -26.0530  -13.7080  -23.5480 C.3       1 CCK336      0.0000 
     23 C48       -24.7970  -13.4200  -22.7100 C.3       1 CCK336      0.0000 
     24 C51       -27.3490  -13.7310  -22.7350 C.3       1 CCK336      0.0000 
     25 C57       -26.2210   -8.9040  -22.2910 C.3       1 CCK336      0.0000 
     26 C59       -25.4200   -8.1890  -21.2120 C.2       1 CCK336      0.0000 
     27 O61       -24.7790   -7.1440  -21.4800 O.co2     1 CCK336      0.0000 
     28 O63       -25.4780   -8.7170  -20.1000 O.co2     1 CCK336      0.0000 
     29 H         -25.3399  -10.9236  -30.6613 H         1 CCK336      0.0000 
     30 H         -25.0364   -7.5854  -28.2274 H         1 CCK336      0.0000 
     31 H         -26.4884  -15.0380  -30.5393 H         1 CCK336      0.0000 
     32 H         -25.9800  -10.3910  -24.6567 H         1 CCK336      0.0000 
     33 H         -25.4094   -6.4731  -23.7652 H         1 CCK336      0.0000 
     34 H         -25.0476   -6.7778  -26.2385 H         1 CCK336      0.0000 
     35 H         -26.5964  -16.8918  -28.3407 H         1 CCK336      0.0000 
     36 H         -26.3897  -16.9206  -25.9057 H         1 CCK336      0.0000 
     37 H         -25.7058  -12.7460  -25.9247 H         1 CCK336      0.0000 
     38 H         -25.7327  -15.7880  -23.8902 H         1 CCK336      0.0000 
     39 H         -26.1566  -12.8184  -24.2499 H         1 CCK336      0.0000 
     40 H         -26.0975   -9.9962  -22.1596 H         1 CCK336      0.0000 
     41 H         -27.2960   -8.6912  -22.1346 H         1 CCK336      0.0000 
     42 H         -23.9924  -13.2726  -23.2853 H         1 CCK336      0.0000 
     43 H         -24.9070  -12.6024  -22.1449 H         1 CCK336      0.0000 
     44 H         -24.5811  -14.1763  -22.0924 H         1 CCK336      0.0000 
     45 H         -27.3931  -14.5251  -22.1288 H         1 CCK336      0.0000 
     46 H         -27.4413  -12.9180  -22.1602 H         1 CCK336      0.0000 
     47 H         -28.1563  -13.7667  -23.3240 H         1 CCK336      0.0000 
@<TRIPOS>BOND
     1    2    1 ar   
     2    6    1 ar   
     3    3    2 ar   
     4   29    2 1    
     5    4    3 ar   
     6    7    3 1    
     7    5    4 ar   
     8    6    5 ar   
     9    8    5 1    
    10   30    6 1    
    11    9    7 1    
    12   12    7 1    
    13   13    8 1    
    14   16    8 1    
    15   10    9 ar   
    16   20    9 ar   
    17   11   10 1    
    18   17   10 ar   
    19   12   11 2    
    20   31   11 1    
    21   14   13 2    
    22   32   13 1    
    23   15   14 1    
    24   25   14 1    
    25   16   15 2    
    26   33   15 1    
    27   34   16 1    
    28   18   17 ar   
    29   35   17 1    
    30   19   18 ar   
    31   36   18 1    
    32   20   19 ar   
    33   21   19 1    
    34   37   20 1    
    35   22   21 1    
    36   38   21 1    
    37   23   22 1    
    38   24   22 1    
    39   39   22 1    
    40   42   23 1    
    41   43   23 1    
    42   44   23 1    
    43   45   24 1    
    44   46   24 1    
    45   47   24 1    
    46   26   25 1    
    47   40   25 1    
    48   41   25 1    
    49   27   26 ar   
    50   28   26 ar   
@<TRIPOS>SUBSTRUCTURE
     1 CCK336      1 GROUP   
@<TRIPOS>SET

