#    Name: 3SW9_1_CAVITY_N1_ALL.mol2
#    Modification time : Tue Mar 11 01:20:57 2014

@<TRIPOS>MOLECULE
3SW9_1_CAVITY_N1_ALL.mol2
   92     0     5     0     0
SMALL
NO_CHARGES


@<TRIPOS>ATOM
      1 O          21.8563  -32.5660   12.0539 O.2       2 ALA2        0.0000 
      2 O          23.0978  -32.9933   11.3285 O.2       2 ALA2        0.0000 
      3 N          24.3392  -33.4206   10.6031 N.2       2 ALA2        0.0000 
      4 N          25.5807  -33.8479    9.8777 N.2       2 ALA2        0.0000 
      5 N          26.8221  -34.2752    9.1523 N.2       2 ALA2        0.0000 
      6 N          28.0636  -34.7025    8.4269 N.2       2 ALA2        0.0000 
      7 CZ         29.3050  -35.1298    7.7015 C.ar      3 PHE5        0.0000 
      8 N          27.2440  -35.6116    7.5598 N.2       2 ALA2        0.0000 
      9 O          28.4854  -36.0389    6.8344 O.2       2 ALA2        0.0000 
     10 CZ         29.7269  -36.4662    6.1090 C.ar      3 PHE5        0.0000 
     11 CA         26.4244  -36.5206    6.6927 C.3       4 GLY6        0.0000 
     12 N          27.6659  -36.9479    5.9673 N.2       2 ALA2        0.0000 
     13 N          27.0272  -30.9157   10.6261 N.2       2 ALA2        0.0000 
     14 N          28.2686  -31.3430    9.9007 N.2       2 ALA2        0.0000 
     15 CZ         29.5101  -31.7703    9.1753 C.ar      3 PHE5        0.0000 
     16 CZ         22.4833  -30.5429   11.9352 C.ar      3 PHE5        0.0000 
     17 OG         23.7247  -30.9702   11.2098 O.2       1 SER1        0.0000 
     18 OG         24.9662  -31.3975   10.4844 O.2       1 SER1        0.0000 
     19 N          26.2076  -31.8248    9.7590 N.2       2 ALA2        0.0000 
     20 OG         27.4491  -32.2521    9.0336 O.2       1 SER1        0.0000 
     21 CZ         28.6905  -32.6794    8.3082 C.ar      3 PHE5        0.0000 
     22 N          22.9051  -31.8793   10.3427 N.2       2 ALA2        0.0000 
     23 N          24.1466  -32.3066    9.6173 N.2       2 ALA2        0.0000 
     24 N          26.6295  -33.1612    8.1665 N.2       2 ALA2        0.0000 
     25 OG         27.8710  -33.5885    7.4411 O.2       1 SER1        0.0000 
     26 OG         27.0514  -34.4976    6.5740 O.2       1 SER1        0.0000 
     27 N          23.5321  -29.8562   10.2239 N.2       2 ALA2        0.0000 
     28 N          24.7736  -30.2835    9.4985 N.2       2 ALA2        0.0000 
     29 N          26.0150  -30.7108    8.7731 N.2       2 ALA2        0.0000 
     30 CA         22.7125  -30.7653    9.3568 C.3       4 GLY6        0.0000 
     31 N          23.9540  -31.1926    8.6314 N.2       2 ALA2        0.0000 
     32 CZ         29.6536  -38.2494   13.2375 C.ar      3 PHE5        0.0000 
     33 O          28.8340  -39.1585   12.3703 O.2       2 ALA2        0.0000 
     34 CZ         30.2805  -36.2264   13.1187 C.ar      3 PHE5        0.0000 
     35 DU         28.2195  -36.7081   12.9770 H         5 CUB7        0.0000 
     36 CZ         29.4610  -37.1354   12.2516 C.ar      3 PHE5        0.0000 
     37 O          27.3999  -37.6172   12.1099 O.2       2 ALA2        0.0000 
     38 CZ         28.6414  -38.0445   11.3845 C.ar      3 PHE5        0.0000 
     39 CA         25.3389  -38.0990   11.9682 C.3       4 GLY6        0.0000 
     40 O          26.5804  -38.5263   11.2428 O.2       2 ALA2        0.0000 
     41 CZ         29.0633  -39.3809    9.7920 C.ar      3 PHE5        0.0000 
     42 CZ         30.9075  -34.2033   13.0000 C.ar      3 PHE5        0.0000 
     43 DU         28.8465  -34.6850   12.8583 H         5 CUB7        0.0000 
     44 CZ         30.0879  -35.1124   12.1329 C.ar      3 PHE5        0.0000 
     45 DU         28.0269  -35.5941   11.9912 H         5 CUB7        0.0000 
     46 CZ         29.2684  -36.0214   11.2658 C.ar      3 PHE5        0.0000 
     47 N          25.9659  -36.0759   11.8494 N.2       2 ALA2        0.0000 
     48 DU         27.2073  -36.5032   11.1240 H         5 CUB7        0.0000 
     49 CZ         28.4488  -36.9305   10.3986 C.ar      3 PHE5        0.0000 
     50 CA         26.3878  -37.4123   10.2569 C.3       4 GLY6        0.0000 
     51 CA         27.6292  -37.8396    9.5315 C.3       4 GLY6        0.0000 
     52 CZ         28.8707  -38.2669    8.8061 C.ar      3 PHE5        0.0000 
     53 O          28.0511  -39.1759    7.9390 O.2       2 ALA2        0.0000 
     54 CA         29.2925  -39.6032    7.2136 C.3       4 GLY6        0.0000 
     55 CA         28.2320  -32.2347   13.4649 C.3       4 GLY6        0.0000 
     56 OG         29.4734  -32.6620   12.7395 O.2       1 SER1        0.0000 
     57 OG         30.7149  -33.0893   12.0141 O.2       1 SER1        0.0000 
     58 DU         27.4124  -33.1437   12.5978 H         5 CUB7        0.0000 
     59 DU         28.6539  -33.5710   11.8724 H         5 CUB7        0.0000 
     60 CZ         29.8953  -33.9984   11.1470 C.ar      3 PHE5        0.0000 
     61 CA         21.6270  -32.3436   14.6323 C.3       4 GLY6        0.0000 
     62 CA         22.8685  -32.7709   13.9069 C.3       4 GLY6        0.0000 
     63 DU         24.1099  -33.1982   13.1815 H         5 CUB7        0.0000 
     64 N          25.3514  -33.6255   12.4561 N.2       2 ALA2        0.0000 
     65 DU         26.5928  -34.0528   11.7307 H         5 CUB7        0.0000 
     66 DU         27.8343  -34.4801   11.0053 H         5 CUB7        0.0000 
     67 CZ         29.0757  -34.9074   10.2799 C.ar      3 PHE5        0.0000 
     68 O          22.0489  -33.6800   13.0398 O.2       2 ALA2        0.0000 
     69 N          23.2904  -34.1073   12.3144 N.2       2 ALA2        0.0000 
     70 N          25.7733  -34.9619   10.8636 N.2       2 ALA2        0.0000 
     71 DU         27.0147  -35.3892   10.1382 H         5 CUB7        0.0000 
     72 CZ         28.2562  -35.8165    9.4128 C.ar      3 PHE5        0.0000 
     73 CZ         29.4976  -36.2438    8.6874 C.ar      3 PHE5        0.0000 
     74 CA         26.1951  -36.2983    9.2711 C.3       4 GLY6        0.0000 
     75 CA         27.4366  -36.7256    8.5457 C.3       4 GLY6        0.0000 
     76 CZ         28.6781  -37.1529    7.8203 C.ar      3 PHE5        0.0000 
     77 CA         26.6170  -37.6346    7.6785 C.3       4 GLY6        0.0000 
     78 CA         27.8585  -38.0619    6.9531 C.3       4 GLY6        0.0000 
     79 CZ         29.0999  -38.4892    6.2278 C.ar      3 PHE5        0.0000 
     80 CA         27.0389  -38.9710    6.0860 C.3       4 GLY6        0.0000 
     81 CA         28.0394  -31.1207   12.4791 C.3       4 GLY6        0.0000 
     82 OG         25.9783  -31.6024   12.3374 O.2       1 SER1        0.0000 
     83 DU         27.2198  -32.0297   11.6120 H         5 CUB7        0.0000 
     84 CA         28.4613  -32.4570   10.8866 C.3       4 GLY6        0.0000 
     85 CZ         29.7027  -32.8844   10.1612 C.ar      3 PHE5        0.0000 
     86 OG         22.6759  -31.6569   12.9210 O.2       1 SER1        0.0000 
     87 OG         23.9173  -32.0842   12.1956 O.2       1 SER1        0.0000 
     88 OG         25.1588  -32.5115   11.4702 O.2       1 SER1        0.0000 
     89 DU         26.4002  -32.9388   10.7449 H         5 CUB7        0.0000 
     90 DU         27.6417  -33.3661   10.0195 H         5 CUB7        0.0000 
     91 CZ         28.8831  -33.7934    9.2941 C.ar      3 PHE5        0.0000 
     92 CZ         30.1246  -34.2207    8.5687 C.ar      3 PHE5        0.0000 
@<TRIPOS>BOND
@<TRIPOS>SUBSTRUCTURE
     1 SER1       17 GROUP   
     2 ALA2        1 GROUP   
     3 PHE5        7 GROUP   
     4 GLY6       11 GROUP   
     5 CUB7       35 GROUP   
@<TRIPOS>SET

