#    Name: 3sw9_SFG_1_INTS_M
#    Modification time : Mon Mar 24 18:39:40 2014

@<TRIPOS>MOLECULE
3sw9_SFG_1_INTS_M
   52     0     9     0     0
SMALL
NO_CHARGES


@<TRIPOS>ATOM
      1 O          23.5040  -35.0155   10.5550 O.2       1 ALC1        0.0000 
      2 O          23.9310  -33.6980   10.2500 O.2       7 ALL1        0.0000 
      3 O          23.0770  -36.3330   10.8600 O.2       4 ALP1        0.0000 
      4 O          24.1210  -33.8670    8.8050 O.2       1 ALC1        0.0000 
      5 O          24.3110  -34.0360    7.3600 O.2       4 ALP1        0.0000 
      6 N          21.3605  -33.6265   11.8880 N.am      2 SEC2        0.0000 
      7 N          22.4690  -32.6810   12.3330 N.am      8 SEL2        0.0000 
      8 N          20.2520  -34.5720   11.4430 N.am      5 SEP2        0.0000 
      9 N          23.9940  -29.7755   12.5510 N.am      2 SEC2        0.0000 
     10 N          23.1660  -30.5930   12.0540 N.am      8 SEL2        0.0000 
     11 N          24.8220  -28.9580   13.0480 N.am      5 SEP2        0.0000 
     12 CA         25.0650  -32.5455    6.5040 C.3       3 GLC5        0.0000 
     13 CA         25.1970  -31.5450    8.4440 C.3       9 GLL5        0.0000 
     14 CA         24.9330  -33.5460    4.5640 C.3       6 GLP5        0.0000 
     15 CA         26.0025  -29.1505   10.1015 C.3       3 GLC5        0.0000 
     16 CA         26.3680  -30.6640    8.9480 C.3       9 GLL5        0.0000 
     17 CA         25.6370  -27.6370   11.2550 C.3       6 GLP5        0.0000 
     18 CA         28.7120  -31.8680    7.2255 C.3       3 GLC5        0.0000 
     19 CA         27.6460  -31.5000    8.7700 C.3       9 GLL5        0.0000 
     20 CA         29.7780  -32.2360    5.6810 C.3       6 GLP5        0.0000 
     21 CA         29.8115  -31.3970   11.3460 C.3       3 GLC5        0.0000 
     22 CA         29.2080  -33.1630   10.1130 C.3       9 GLL5        0.0000 
     23 CA         30.4150  -29.6310   12.5790 C.3       6 GLP5        0.0000 
     24 CA         30.8505  -32.8805    9.1965 C.3       3 GLC5        0.0000 
     25 CA         32.4930  -32.5980    8.2800 C.3       6 GLP5        0.0000 
     26 N          27.2335  -35.2220    4.9415 N.am      2 SEC2        0.0000 
     27 N          27.4730  -35.8870    6.1780 N.am      8 SEL2        0.0000 
     28 N          26.9940  -34.5570    3.7050 N.am      5 SEP2        0.0000 
     29 CA         28.5590  -36.1170    5.0040 C.3       3 GLC5        0.0000 
     30 CA         27.7700  -37.0870    6.8100 C.3       9 GLL5        0.0000 
     31 CA         29.3480  -35.1470    3.1980 C.3       6 GLP5        0.0000 
     32 CA         29.4565  -39.9760    6.1890 C.3       3 GLC5        0.0000 
     33 CA         27.9970  -38.4230    6.4210 C.3       9 GLL5        0.0000 
     34 CA         30.9160  -41.5290    5.9570 C.3       6 GLP5        0.0000 
     35 O          27.5700  -38.0050    3.9175 O.2       1 ALC1        0.0000 
     36 O          27.9310  -38.7450    5.1040 O.2       7 ALL1        0.0000 
     37 O          27.2090  -37.2650    2.7310 O.2       4 ALP1        0.0000 
     38 N          28.4805  -40.8510    6.9080 N.am      2 SEC2        0.0000 
     39 N          28.2960  -39.4100    7.3550 N.am      8 SEL2        0.0000 
     40 N          28.6650  -42.2920    6.4610 N.am      5 SEP2        0.0000 
     41 CA         26.4230  -39.1090    8.3580 C.3       3 GLC5        0.0000 
     42 CA         28.3650  -39.1310    8.6990 C.3       9 GLL5        0.0000 
     43 CA         24.4810  -39.0870    8.0170 C.3       6 GLP5        0.0000 
     44 CA         29.6405  -40.3300    7.3280 C.3       3 GLC5        0.0000 
     45 CA         26.1690  -37.9765    8.1180 C.3       3 GLC5        0.0000 
     46 CA         27.8570  -36.8660    8.2190 C.3       9 GLL5        0.0000 
     47 CA         23.2437  -30.1958    8.2088 C.3       3 GLC5        0.0000 
     48 CA         21.9540  -28.9370    7.5680 C.3       6 GLP5        0.0000 
     49 CA         30.4710  -35.1710   10.5590 C.3       3 GLC5        0.0000 
     50 CA         31.9040  -36.4680   10.7830 C.3       6 GLP5        0.0000 
     51 CA         26.1052  -38.2860    6.4248 C.3       3 GLC5        0.0000 
     52 CA         24.3270  -38.8170    6.2340 C.3       6 GLP5        0.0000 
@<TRIPOS>BOND
@<TRIPOS>SUBSTRUCTURE
     1 ALC1        1 GROUP        1 X    ALC  0     ROOT ALC X 1
     2 SEC2        6 GROUP        1 X    SEC  0     **** SEC X 2
     3 GLC5       12 GROUP        1 X    GLC  0     **** GLC X 6
     4 ALP1        3 GROUP        1 Y    ALP  0     ROOT ALP Y 8
     5 SEP2        8 GROUP        1 Y    SEP  0     **** SEP Y 9
     6 GLP5       14 GROUP        1 Y    GLP  0     **** GLP Y 13
     7 ALL1        2 GROUP        1 Z    ALL  0     ROOT ALL Z 15
     8 SEL2        7 GROUP        1 Z    SEL  0     **** SEL Z 16
     9 GLL5       13 GROUP        1 Z    GLL  0     **** GLL Z 20
@<TRIPOS>SET

