#    Name: 3sw9_SFG_1_ligand
#    Modification time : Mon Mar 24 18:39:40 2014

@<TRIPOS>MOLECULE
3sw9_SFG_1_ligand
   48    50     1     0     0
SMALL
NO_CHARGES


@<TRIPOS>ATOM
      1 N          23.9310  -33.6980   10.2500 N.4       1 SFG101      0.0000 
      2 CA         24.0040  -32.2580   10.5370 C.3       1 SFG101      0.0000 
      3 C          23.1300  -31.8040   11.7190 C.2       1 SFG101      0.0000 
      4 O          22.4690  -32.6810   12.3330 O.co2     1 SFG101      0.0000 
      5 OXT        23.1660  -30.5930   12.0540 O.co2     1 SFG101      0.0000 
      6 CB         23.8700  -31.3640    9.2550 C.3       1 SFG101      0.0000 
      7 CG         25.1970  -31.5450    8.4440 C.3       1 SFG101      0.0000 
      8 CD         26.3680  -30.6640    8.9480 C.3       1 SFG101      0.0000 
      9 NE         26.5930  -29.4530    8.0900 N.3       1 SFG101      0.0000 
     10 C5'        27.6460  -31.5000    8.7700 C.3       1 SFG101      0.0000 
     11 C4'        27.8120  -32.5380    9.9210 C.3       1 SFG101      0.0000 
     12 O4'        26.9240  -33.6480    9.7330 O.3       1 SFG101      0.0000 
     13 C3'        29.2080  -33.1630   10.1130 C.3       1 SFG101      0.0000 
     14 O3'        29.9730  -32.3870   11.0190 O.3       1 SFG101      0.0000 
     15 C2'        28.8680  -34.5850   10.5570 C.3       1 SFG101      0.0000 
     16 O2'        28.6260  -34.6800   11.9760 O.3       1 SFG101      0.0000 
     17 C1'        27.5680  -34.9260    9.8130 C.3       1 SFG101      0.0000 
     18 N9         27.6100  -35.5220    8.4510 N.pl3     1 SFG101      0.0000 
     19 C8         27.4080  -35.0170    7.1950 C.2       1 SFG101      0.0000 
     20 N7         27.4730  -35.8870    6.1780 N.2       1 SFG101      0.0000 
     21 C5         27.7700  -37.0870    6.8100 C.ar      1 SFG101      0.0000 
     22 C6         27.9970  -38.4230    6.4210 C.ar      1 SFG101      0.0000 
     23 N6         27.9310  -38.7450    5.1040 N.pl3     1 SFG101      0.0000 
     24 N1         28.2960  -39.4100    7.3550 N.ar      1 SFG101      0.0000 
     25 C2         28.3650  -39.1310    8.6990 C.ar      1 SFG101      0.0000 
     26 N3         28.1370  -37.8550    9.1490 N.ar      1 SFG101      0.0000 
     27 C4         27.8570  -36.8660    8.2190 C.ar      1 SFG101      0.0000 
     28 H          25.0905  -32.0591   10.8896 H         1 SFG101      0.0000 
     29 H          23.7722  -30.3471    9.5467 H         1 SFG101      0.0000 
     30 H          23.0518  -31.7094    8.6720 H         1 SFG101      0.0000 
     31 H          24.9958  -31.3050    7.3937 H         1 SFG101      0.0000 
     32 H          25.4940  -32.5986    8.4975 H         1 SFG101      0.0000 
     33 H          26.2538  -30.4232    9.9480 H         1 SFG101      0.0000 
     34 H          28.5115  -30.8426    8.7680 H         1 SFG101      0.0000 
     35 H          27.6006  -32.0344    7.8247 H         1 SFG101      0.0000 
     36 H          27.5496  -32.0395   10.8665 H         1 SFG101      0.0000 
     37 H          29.6387  -33.2248    9.1237 H         1 SFG101      0.0000 
     38 H          29.6210  -35.2455   10.2152 H         1 SFG101      0.0000 
     39 H          26.9659  -35.5489   10.4851 H         1 SFG101      0.0000 
     40 H          27.2185  -34.0263    7.0549 H         1 SFG101      0.0000 
     41 H          27.6590  -38.0089    4.4842 H         1 SFG101      0.0000 
     42 H          28.1602  -39.6898    4.8700 H         1 SFG101      0.0000 
     43 H          28.5892  -39.8847    9.3714 H         1 SFG101      0.0000 
     44 H          23.5971  -33.8757    9.3243 H         1 SFG101      0.0000 
     45 H          24.8255  -34.1381   10.3284 H         1 SFG101      0.0000 
     46 H          23.3152  -34.1714   10.8798 H         1 SFG101      0.0000 
     47 H          29.8274  -31.4393   10.7349 H         1 SFG101      0.0000 
     48 H          28.8374  -33.7712   12.3359 H         1 SFG101      0.0000 
@<TRIPOS>BOND
     1    2    1 1    
     2   44    1 1    
     3   45    1 1    
     4   46    1 1    
     5    3    2 1    
     6    6    2 1    
     7   28    2 1    
     8    4    3 ar   
     9    5    3 ar   
    10    7    6 1    
    11   29    6 1    
    12   30    6 1    
    13    8    7 1    
    14   31    7 1    
    15   32    7 1    
    16    9    8 1    
    17   10    8 1    
    18   33    8 1    
    19   11   10 1    
    20   34   10 1    
    21   35   10 1    
    22   12   11 1    
    23   13   11 1    
    24   36   11 1    
    25   17   12 1    
    26   14   13 1    
    27   15   13 1    
    28   37   13 1    
    29   47   14 1    
    30   16   15 1    
    31   17   15 1    
    32   38   15 1    
    33   48   16 1    
    34   18   17 1    
    35   39   17 1    
    36   19   18 1    
    37   27   18 1    
    38   20   19 2    
    39   40   19 1    
    40   21   20 1    
    41   22   21 ar   
    42   27   21 ar   
    43   23   22 1    
    44   24   22 ar   
    45   41   23 1    
    46   42   23 1    
    47   25   24 ar   
    48   26   25 ar   
    49   43   25 1    
    50   27   26 ar   
@<TRIPOS>SUBSTRUCTURE
     1 SFG101      1 GROUP   
@<TRIPOS>SET

