#    Name: 1n2x_SAM_2_INTS_M
#    Modification time : Tue Mar 25 12:21:21 2014

@<TRIPOS>MOLECULE
1n2x_SAM_2_INTS_M
   81     0    12     0     0
SMALL
NO_CHARGES


@<TRIPOS>ATOM
      1 OD1        24.0105   -3.3150   -5.5390 O.co2     3 ASC3        0.0000 
      2 OD1        25.0230   -2.2530   -5.9500 O.co2    11 ASL3        0.0000 
      3 OD1        22.9980   -4.3770   -5.1280 O.co2     7 ASP3        0.0000 
      4 O          26.7440   -2.3575   -5.7140 O.2       1 ALC1        0.0000 
      5 O          25.0230   -2.2530   -5.9500 O.2       9 ALL1        0.0000 
      6 O          28.4650   -2.4620   -5.4780 O.2       5 ALP1        0.0000 
      7 O          24.3825   -1.6460   -4.4620 O.2       1 ALC1        0.0000 
      8 O          23.7420   -1.0390   -2.9740 O.2       5 ALP1        0.0000 
      9 O          24.0105   -3.3150   -5.5390 O.2       1 ALC1        0.0000 
     10 O          22.9980   -4.3770   -5.1280 O.2       5 ALP1        0.0000 
     11 N          26.4630    0.0520   -9.6535 N.am      2 SEC2        0.0000 
     12 N          25.4150   -0.0350   -8.7460 N.am     10 SEL2        0.0000 
     13 N          27.5110    0.1390  -10.5610 N.am      6 SEP2        0.0000 
     14 N          26.2440    1.1265   -8.9085 N.am      2 SEC2        0.0000 
     15 N          27.0730    2.2880   -9.0710 N.am      6 SEP2        0.0000 
     16 N          25.0150    1.4000   -8.3110 N.am      2 SEC2        0.0000 
     17 N          24.6150    2.8350   -7.8760 N.am      6 SEP2        0.0000 
     18 N          23.8420    1.2165   -6.1835 N.am      2 SEC2        0.0000 
     19 N          23.9080   -0.1830   -7.1560 N.am     10 SEL2        0.0000 
     20 N          23.7760    2.6160   -5.2110 N.am      6 SEP2        0.0000 
     21 CA         27.8665   -4.5500   -6.1615 C.3       4 GLC5        0.0000 
     22 CA         26.3510   -4.2580   -7.7000 C.3      12 GLL5        0.0000 
     23 CA         29.3820   -4.8420   -4.6230 C.3       8 GLP5        0.0000 
     24 CA         26.2310   -5.1330  -10.7975 C.3       4 GLC5        0.0000 
     25 CA         26.4620   -5.6350   -8.8750 C.3      12 GLL5        0.0000 
     26 CA         26.0000   -4.6310  -12.7200 C.3       8 GLP5        0.0000 
     27 CA         25.2870   -8.7315   -8.2765 C.3       4 GLC5        0.0000 
     28 CA         25.1470   -6.8300   -8.5560 C.3      12 GLL5        0.0000 
     29 CA         25.4270  -10.6330   -7.9970 C.3       8 GLP5        0.0000 
     30 CA         25.4425   -8.0830  -10.0570 C.3       4 GLC5        0.0000 
     31 CA         25.7380   -9.3360  -11.5580 C.3       8 GLP5        0.0000 
     32 CA         25.0690   -6.3040  -10.6065 C.3       4 GLC5        0.0000 
     33 CA         24.9910   -5.7780  -12.6570 C.3       8 GLP5        0.0000 
     34 O          31.0070   -4.0435   -9.6545 O.2       1 ALC1        0.0000 
     35 O          30.1590   -4.5850  -10.3780 O.2       9 ALL1        0.0000 
     36 O          31.8550   -3.5020   -8.9310 O.2       5 ALP1        0.0000 
     37 CA         31.1255   -8.7925  -10.1945 C.3       4 GLC5        0.0000 
     38 CA         30.8420   -6.8080   -9.7500 C.3      12 GLL5        0.0000 
     39 CA         31.4090  -10.7770  -10.6390 C.3       8 GLP5        0.0000 
     40 N          31.3035   -6.5035  -12.1270 N.am      2 SEC2        0.0000 
     41 N          31.8390   -6.6690  -10.7440 N.am     10 SEL2        0.0000 
     42 N          30.7680   -6.3380  -13.5100 N.am      6 SEP2        0.0000 
     43 O          32.7415   -5.5090  -10.3125 O.2       1 ALC1        0.0000 
     44 O          31.8390   -6.6690  -10.7440 O.2       9 ALL1        0.0000 
     45 O          33.6440   -4.3490   -9.8810 O.2       5 ALP1        0.0000 
     46 CA         36.2200   -7.7570   -6.9600 C.3       4 GLC5        0.0000 
     47 CA         34.9530   -8.3470   -5.7480 C.3      12 GLL5        0.0000 
     48 CA         37.4870   -7.1670   -8.1720 C.3       8 GLP5        0.0000 
     49 CA         36.8115   -7.5880   -5.1800 C.3       4 GLC5        0.0000 
     50 CA         38.6700   -6.8290   -4.6120 C.3       8 GLP5        0.0000 
     51 O          36.9820   -9.3305   -4.6925 O.2       1 ALC1        0.0000 
     52 O          35.4960   -9.4520   -5.2290 O.2       9 ALL1        0.0000 
     53 O          38.4680   -9.2090   -4.1560 O.2       5 ALP1        0.0000 
     54 N          36.3575   -6.9095   -4.1175 N.am      2 SEC2        0.0000 
     55 N          35.5640   -7.1620   -5.5260 N.am     10 SEL2        0.0000 
     56 N          37.1510   -6.6570   -2.7090 N.am      6 SEP2        0.0000 
     57 CA         35.0200   -4.5545   -6.8070 C.3       4 GLC5        0.0000 
     58 CA         35.0200   -6.0540   -6.0450 C.3      12 GLL5        0.0000 
     59 CA         35.0200   -3.0550   -7.5690 C.3       8 GLP5        0.0000 
     60 CA         36.2535   -6.6105   -7.1085 C.3       4 GLC5        0.0000 
     61 CA         36.8450   -6.4415   -5.3285 C.3       4 GLC5        0.0000 
     62 N          34.9615   -5.3375   -7.8910 N.am      2 SEC2        0.0000 
     63 N          33.9200   -5.9200   -6.7810 N.am     10 SEL2        0.0000 
     64 N          36.0030   -4.7550   -9.0010 N.am      6 SEP2        0.0000 
     65 CA         31.7000   -6.6025   -5.5340 C.3       4 GLC5        0.0000 
     66 CA         33.3360   -7.1140   -6.9840 C.3      12 GLL5        0.0000 
     67 CA         30.0640   -6.0910   -4.0840 C.3       8 GLP5        0.0000 
     68 CA         34.1780   -5.0845   -7.2765 C.3       4 GLC5        0.0000 
     69 CA         24.1408   -1.9087   -9.1088 C.3       4 GLC5        0.0000 
     70 CA         25.5890   -3.0410   -8.2150 C.3      12 GLL5        0.0000 
     71 CA         22.6940   -1.3680  -10.4910 C.3       8 GLP5        0.0000 
     72 CA         27.4776   -2.4114   -8.6146 C.3       4 GLC5        0.0000 
     73 CA         28.9860   -1.4690   -9.5160 C.3       8 GLP5        0.0000 
     74 CA         25.5516   -4.1384   -5.9631 C.3       4 GLC5        0.0000 
     75 CA         25.1340   -4.9230   -4.2130 C.3       8 GLP5        0.0000 
     76 CA         28.9507   -5.4740   -6.4870 C.3       4 GLC5        0.0000 
     77 CA         27.9010   -6.5080   -8.1980 C.3      12 GLL5        0.0000 
     78 CA         29.1958   -3.6210   -9.3657 C.3       4 GLC5        0.0000 
     79 CA         29.1380   -5.7040   -8.5040 C.3      12 GLL5        0.0000 
     80 CA         34.6775   -7.6220   -8.3697 C.3       4 GLC5        0.0000 
     81 CA         35.8000   -7.5160   -9.9890 C.3       8 GLP5        0.0000 
@<TRIPOS>BOND
@<TRIPOS>SUBSTRUCTURE
     1 ALC1        4 GROUP        1 X    ALC  0     ROOT ALC X 1
     2 SEC2       11 GROUP        1 X    SEC  0     **** SEC X 2
     3 ASC3        1 GROUP        1 X    ASC  0     **** ASC X 3
     4 GLC5       21 GROUP        1 X    GLC  0     **** GLC X 6
     5 ALP1        6 GROUP        1 Y    ALP  0     ROOT ALP Y 8
     6 SEP2       13 GROUP        1 Y    SEP  0     **** SEP Y 9
     7 ASP3        3 GROUP        1 Y    ASP  0     **** ASP Y 10
     8 GLP5       23 GROUP        1 Y    GLP  0     **** GLP Y 13
     9 ALL1        5 GROUP        1 Z    ALL  0     ROOT ALL Z 15
    10 SEL2       12 GROUP        1 Z    SEL  0     **** SEL Z 16
    11 ASL3        2 GROUP        1 Z    ASL  0     **** ASL Z 17
    12 GLL5       22 GROUP        1 Z    GLL  0     **** GLL Z 20
@<TRIPOS>SET

