#    Name: 1n2x_SAM_2_ligand
#    Modification time : Tue Mar 25 12:21:21 2014

@<TRIPOS>MOLECULE
1n2x_SAM_2_ligand
   50    52     1     0     0
SMALL
NO_CHARGES


@<TRIPOS>ATOM
      1 N          25.0230   -2.2530   -5.9500 N.4       1 SAM402      0.0000 
      2 CA         25.5860   -1.8580   -7.2380 C.3       1 SAM402      0.0000 
      3 C          24.8340   -0.6710   -7.8400 C.2       1 SAM402      0.0000 
      4 O          25.4150   -0.0350   -8.7460 O.co2     1 SAM402      0.0000 
      5 OXT        23.9080   -0.1830   -7.1560 O.co2     1 SAM402      0.0000 
      6 CB         25.5890   -3.0410   -8.2150 C.3       1 SAM402      0.0000 
      7 CG         26.3510   -4.2580   -7.7000 C.3       1 SAM402      0.0000 
      8 SD         26.4620   -5.6350   -8.8750 S.3       1 SAM402      0.0000 
      9 CE         25.1470   -6.8300   -8.5560 C.3       1 SAM402      0.0000 
     10 C5'        27.9010   -6.5080   -8.1980 C.3       1 SAM402      0.0000 
     11 C4'        29.1380   -5.7040   -8.5040 C.3       1 SAM402      0.0000 
     12 O4'        30.2230   -6.1040   -7.6180 O.3       1 SAM402      0.0000 
     13 C3'        29.6730   -5.8420   -9.9270 C.3       1 SAM402      0.0000 
     14 O3'        30.1590   -4.5850  -10.3780 O.3       1 SAM402      0.0000 
     15 C2'        30.8420   -6.8080   -9.7500 C.3       1 SAM402      0.0000 
     16 O2'        31.8390   -6.6690  -10.7440 O.3       1 SAM402      0.0000 
     17 C1'        31.3740   -6.3730   -8.3890 C.3       1 SAM402      0.0000 
     18 N9         32.1880   -7.3720   -7.6960 N.pl3     1 SAM402      0.0000 
     19 C8         31.9960   -8.7300   -7.6190 C.2       1 SAM402      0.0000 
     20 N7         32.9190   -9.3560   -6.9270 N.2       1 SAM402      0.0000 
     21 C5         33.7740   -8.3420   -6.5170 C.ar      1 SAM402      0.0000 
     22 C6         34.9530   -8.3470   -5.7480 C.ar      1 SAM402      0.0000 
     23 N6         35.4960   -9.4520   -5.2290 N.pl3     1 SAM402      0.0000 
     24 N1         35.5640   -7.1620   -5.5260 N.ar      1 SAM402      0.0000 
     25 C2         35.0200   -6.0540   -6.0450 C.ar      1 SAM402      0.0000 
     26 N3         33.9200   -5.9200   -6.7810 N.ar      1 SAM402      0.0000 
     27 C4         33.3360   -7.1140   -6.9840 C.ar      1 SAM402      0.0000 
     28 H          26.6308   -1.5502   -7.1037 H         1 SAM402      0.0000 
     29 H          26.0342   -2.7132   -9.1666 H         1 SAM402      0.0000 
     30 H          24.5479   -3.3298   -8.4245 H         1 SAM402      0.0000 
     31 H          25.8844   -4.7258   -6.8430 H         1 SAM402      0.0000 
     32 H          27.3923   -4.0544   -7.4875 H         1 SAM402      0.0000 
     33 H          27.8518   -7.4394   -8.6983 H         1 SAM402      0.0000 
     34 H          27.6623   -6.5655   -7.1685 H         1 SAM402      0.0000 
     35 H          28.9289   -4.6445   -8.3316 H         1 SAM402      0.0000 
     36 H          28.9500   -6.2813  -10.5271 H         1 SAM402      0.0000 
     37 H          30.4496   -7.7852   -9.6425 H         1 SAM402      0.0000 
     38 H          31.9351   -5.4572   -8.5346 H         1 SAM402      0.0000 
     39 H          31.2124   -9.1722   -8.0620 H         1 SAM402      0.0000 
     40 H          36.4854   -9.4304   -5.0854 H         1 SAM402      0.0000 
     41 H          34.8643  -10.2014   -5.0307 H         1 SAM402      0.0000 
     42 H          35.5687   -5.1126   -5.8279 H         1 SAM402      0.0000 
     43 H          24.2476   -1.6770   -5.6912 H         1 SAM402      0.0000 
     44 H          24.6952   -3.1976   -5.9620 H         1 SAM402      0.0000 
     45 H          25.6966   -2.1859   -5.2139 H         1 SAM402      0.0000 
     46 H          25.1870   -7.6038   -9.1881 H         1 SAM402      0.0000 
     47 H          25.2020   -7.2045   -7.6304 H         1 SAM402      0.0000 
     48 H          24.2404   -6.4192   -8.6526 H         1 SAM402      0.0000 
     49 H          30.4067   -4.0896   -9.5454 H         1 SAM402      0.0000 
     50 H          32.4083   -5.9073  -10.4347 H         1 SAM402      0.0000 
@<TRIPOS>BOND
     1    2    1 1    
     2   43    1 1    
     3   44    1 1    
     4   45    1 1    
     5    3    2 1    
     6    6    2 1    
     7   28    2 1    
     8    4    3 ar   
     9    5    3 ar   
    10    7    6 1    
    11   29    6 1    
    12   30    6 1    
    13    8    7 1    
    14   31    7 1    
    15   32    7 1    
    16    9    8 1    
    17   10    8 1    
    18   46    9 1    
    19   47    9 1    
    20   48    9 1    
    21   11   10 1    
    22   33   10 1    
    23   34   10 1    
    24   12   11 1    
    25   13   11 1    
    26   35   11 1    
    27   17   12 1    
    28   14   13 1    
    29   15   13 1    
    30   36   13 1    
    31   49   14 1    
    32   16   15 1    
    33   17   15 1    
    34   37   15 1    
    35   50   16 1    
    36   18   17 1    
    37   38   17 1    
    38   19   18 1    
    39   27   18 1    
    40   20   19 2    
    41   39   19 1    
    42   21   20 1    
    43   22   21 ar   
    44   27   21 ar   
    45   23   22 1    
    46   24   22 ar   
    47   40   23 1    
    48   41   23 1    
    49   25   24 ar   
    50   26   25 ar   
    51   42   25 1    
    52   27   26 ar   
@<TRIPOS>SUBSTRUCTURE
     1 SAM402      1 GROUP   
@<TRIPOS>SET

