#    Name: 1gth_FAD_4_INTS_M
#    Modification time : Tue Mar 25 03:50:56 2014

@<TRIPOS>MOLECULE
1gth_FAD_4_INTS_M
  113     0     9     0     0
SMALL
NO_CHARGES


@<TRIPOS>ATOM
      1 N          37.4550   78.6595  109.5510 N.am      2 SEC2        0.0000 
      2 N          36.1460   77.8680  108.9590 N.am      8 SEL2        0.0000 
      3 N          38.7640   79.4510  110.1430 N.am      5 SEP2        0.0000 
      4 CA         32.8075   77.1375  111.8215 C.3       3 GLC5        0.0000 
      5 CA         33.5160   79.0710  111.4480 C.3       9 GLL5        0.0000 
      6 CA         32.0990   75.2040  112.1950 C.3       6 GLP5        0.0000 
      7 CA         31.7395   81.5720  111.4605 C.3       3 GLC5        0.0000 
      8 CA         33.3710   80.6140  111.7270 C.3       9 GLL5        0.0000 
      9 CA         30.1080   82.5300  111.1940 C.3       6 GLP5        0.0000 
     10 CA         33.7955   80.9300  109.6070 C.3       3 GLC5        0.0000 
     11 CA         34.2200   81.2460  107.4870 C.3       6 GLP5        0.0000 
     12 O          33.9010   83.4925  112.0380 O.2       1 ALC1        0.0000 
     13 O          34.8640   82.5790  111.8650 O.2       7 ALL1        0.0000 
     14 O          32.9380   84.4060  112.2110 O.2       4 ALP1        0.0000 
     15 O          34.4135   83.6350  112.9995 O.2       1 ALC1        0.0000 
     16 O          33.9630   84.6910  114.1340 O.2       4 ALP1        0.0000 
     17 O          34.4195   83.4875  114.4010 O.2       1 ALC1        0.0000 
     18 O          34.8760   82.2840  114.6680 O.2       7 ALL1        0.0000 
     19 CA         31.4145   82.0645  112.5095 C.3       3 GLC5        0.0000 
     20 CA         32.7210   81.5990  113.8250 C.3       9 GLL5        0.0000 
     21 CA         31.3445   79.9630  113.2475 C.3       3 GLC5        0.0000 
     22 CA         29.9680   78.3270  112.6700 C.3       6 GLP5        0.0000 
     23 CA         28.3125   83.3655  117.7990 C.3       3 GLC5        0.0000 
     24 CA         29.0460   81.3420  117.1520 C.3       9 GLL5        0.0000 
     25 CA         27.5790   85.3890  118.4460 C.3       6 GLP5        0.0000 
     26 CA         27.0635   81.4675  116.9445 C.3       3 GLC5        0.0000 
     27 CA         25.0810   81.5930  116.7370 C.3       6 GLP5        0.0000 
     28 O          27.1515   80.8180  118.7750 O.2       1 ALC1        0.0000 
     29 O          28.5680   80.7020  118.1880 O.2       7 ALL1        0.0000 
     30 O          25.7350   80.9340  119.3620 O.2       4 ALP1        0.0000 
     31 N          28.4945   83.0645  118.2390 N.am      2 SEC2        0.0000 
     32 N          28.3910   82.4440  116.6070 N.am      8 SEL2        0.0000 
     33 N          28.5980   83.6850  119.8710 N.am      5 SEP2        0.0000 
     34 N          27.2995   82.9590  117.2345 N.am      2 SEC2        0.0000 
     35 N          26.2080   83.4740  117.8620 N.am      5 SEP2        0.0000 
     36 CA         30.3115   83.7535  116.4835 C.3       3 GLC5        0.0000 
     37 CA         28.8830   83.1300  115.5140 C.3       9 GLL5        0.0000 
     38 CA         31.7400   84.3770  117.4530 C.3       6 GLP5        0.0000 
     39 CA         28.2310   84.2595  116.9800 C.3       3 GLC5        0.0000 
     40 CA         26.9820   82.3615  116.1255 C.3       3 GLC5        0.0000 
     41 CA         28.4955   81.3290  114.6775 C.3       3 GLC5        0.0000 
     42 CA         28.1080   79.5280  113.8410 C.3       6 GLP5        0.0000 
     43 N          30.6700   84.3085  115.1680 N.am      2 SEC2        0.0000 
     44 N          30.0280   82.8440  114.8400 N.am      8 SEL2        0.0000 
     45 N          31.3120   85.7730  115.4960 N.am      5 SEP2        0.0000 
     46 CA         30.4055   82.1390  113.2780 C.3       3 GLC5        0.0000 
     47 CA         30.7030   81.7480  115.3620 C.3       9 GLL5        0.0000 
     48 N          40.0700   72.9740  103.9355 N.am      2 SEC2        0.0000 
     49 N          41.5210   72.7250  104.8520 N.am      8 SEL2        0.0000 
     50 N          38.6190   73.2230  103.0190 N.am      5 SEP2        0.0000 
     51 N          40.0705   72.8820  102.8280 N.am      2 SEC2        0.0000 
     52 N          41.5220   72.5410  102.6370 N.am      8 SEL2        0.0000 
     53 O          44.3095   72.8680  102.4070 O.2       1 ALC1        0.0000 
     54 O          43.5480   72.9100  103.5520 O.2       7 ALL1        0.0000 
     55 O          45.0710   72.8260  101.2620 O.2       4 ALP1        0.0000 
     56 N          46.8495   73.8805  104.4680 N.am      2 SEC2        0.0000 
     57 N          45.5420   73.2920  104.5320 N.am      8 SEL2        0.0000 
     58 N          48.1570   74.4690  104.4040 N.am      5 SEP2        0.0000 
     59 N          46.4865   73.6900  105.5415 N.am      2 SEC2        0.0000 
     60 N          47.4310   74.0880  106.5510 N.am      5 SEP2        0.0000 
     61 N          45.9160   73.7645  106.8365 N.am      2 SEC2        0.0000 
     62 N          44.4010   73.4410  107.1220 N.am      8 SEL2        0.0000 
     63 CA         45.7465   74.3730  113.2780 C.3       3 GLC5        0.0000 
     64 CA         44.7810   73.8850  112.0130 C.3       9 GLL5        0.0000 
     65 CA         46.7120   74.8610  114.5430 C.3       6 GLP5        0.0000 
     66 CA         45.0670   72.4505  113.3270 C.3       3 GLC5        0.0000 
     67 CA         45.3530   71.0160  114.6410 C.3       6 GLP5        0.0000 
     68 CA         46.9790   73.5855  111.6655 C.3       3 GLC5        0.0000 
     69 CA         49.1770   73.2860  111.3180 C.3       6 GLP5        0.0000 
     70 CA         39.2965   71.7890  105.4370 C.3       3 GLC5        0.0000 
     71 CA         40.1230   72.6840  107.2670 C.3       9 GLL5        0.0000 
     72 CA         38.4700   70.8940  103.6070 C.3       6 GLP5        0.0000 
     73 CA         41.2065   70.8555  107.0050 C.3       3 GLC5        0.0000 
     74 CA         42.2900   69.0270  106.7430 C.3       6 GLP5        0.0000 
     75 CA         38.7480   74.2715  104.8165 C.3       3 GLC5        0.0000 
     76 CA         39.3650   73.9830  106.8870 C.3       9 GLL5        0.0000 
     77 CA         38.1310   74.5600  102.7460 C.3       6 GLP5        0.0000 
     78 O          36.2395   72.1620  107.5790 O.2       1 ALC1        0.0000 
     79 O          37.3560   72.7130  106.6750 O.2       7 ALL1        0.0000 
     80 O          35.1230   71.6110  108.4830 O.2       4 ALP1        0.0000 
     81 CA         36.8870   76.9600  105.8940 C.3       3 GLC5        0.0000 
     82 CA         37.1230   75.1090  106.9390 C.3       9 GLL5        0.0000 
     83 CA         36.6510   78.8110  104.8490 C.3       6 GLP5        0.0000 
     84 CA         37.6270   74.8345  104.8425 C.3       3 GLC5        0.0000 
     85 CA         34.6960   73.7530  108.7965 C.3       3 GLC5        0.0000 
     86 CA         35.7300   74.9540  107.4740 C.3       9 GLL5        0.0000 
     87 CA         33.6620   72.5520  110.1190 C.3       6 GLP5        0.0000 
     88 N          32.8930   78.2910  105.8815 N.am      2 SEC2        0.0000 
     89 N          33.3010   78.0050  107.3300 N.am      8 SEL2        0.0000 
     90 N          32.4850   78.5770  104.4330 N.am      5 SEP2        0.0000 
     91 N          32.4190   78.9290  107.5245 N.am      2 SEC2        0.0000 
     92 N          31.5370   79.8530  107.7190 N.am      5 SEP2        0.0000 
     93 N          32.4620   74.2385  108.1495 N.am      2 SEC2        0.0000 
     94 N          32.7950   75.7070  108.0810 N.am      8 SEL2        0.0000 
     95 N          32.1290   72.7700  108.2180 N.am      5 SEP2        0.0000 
     96 CA         31.7057   79.0847  112.1287 C.3       3 GLC5        0.0000 
     97 CA         35.6560   81.1795  111.0682 C.3       3 GLC5        0.0000 
     98 CA         37.3250   81.3920  110.0670 C.3       6 GLP5        0.0000 
     99 CA         30.9642   82.9129  116.7709 C.3       3 GLC5        0.0000 
    100 CA         30.3020   80.9570  116.4790 C.3       9 GLL5        0.0000 
    101 CA         29.1482   80.4884  114.9649 C.3       3 GLC5        0.0000 
    102 CA         44.0703   75.5378  112.1740 C.3       3 GLC5        0.0000 
    103 CA         43.9220   73.6380  110.7970 C.3       9 GLL5        0.0000 
    104 CA         43.7890   77.3140  112.9430 C.3       6 GLP5        0.0000 
    105 CA         40.3025   74.1821  110.8217 C.3       3 GLC5        0.0000 
    106 CA         42.4720   73.3760  110.9330 C.3       9 GLL5        0.0000 
    107 CA         38.6970   75.1120  110.9610 C.3       6 GLP5        0.0000 
    108 CA         43.7474   75.1469  108.1299 C.3       3 GLC5        0.0000 
    109 CA         42.3100   73.1700  108.4690 C.3       9 GLL5        0.0000 
    110 CA         44.2780   76.9390  107.5580 C.3       6 GLP5        0.0000 
    111 CA         38.2896   74.8130  108.9936 C.3       3 GLC5        0.0000 
    112 CA         35.1502   74.7873  105.6442 C.3       3 GLC5        0.0000 
    113 CA         33.8740   74.5430  104.0820 C.3       6 GLP5        0.0000 
@<TRIPOS>BOND
@<TRIPOS>SUBSTRUCTURE
     1 ALC1       12 GROUP        1 X    ALC  0     ROOT ALC X 1
     2 SEC2        1 GROUP        1 X    SEC  0     **** SEC X 2
     3 GLC5        4 GROUP        1 X    GLC  0     **** GLC X 6
     4 ALP1       14 GROUP        1 Y    ALP  0     ROOT ALP Y 8
     5 SEP2        3 GROUP        1 Y    SEP  0     **** SEP Y 9
     6 GLP5        6 GROUP        1 Y    GLP  0     **** GLP Y 13
     7 ALL1       13 GROUP        1 Z    ALL  0     ROOT ALL Z 15
     8 SEL2        2 GROUP        1 Z    SEL  0     **** SEL Z 16
     9 GLL5        5 GROUP        1 Z    GLL  0     **** GLL Z 20
@<TRIPOS>SET

