#    Name: 1gth_FAD_4_ligand
#    Modification time : Tue Mar 25 03:50:57 2014

@<TRIPOS>MOLECULE
1gth_FAD_4_ligand
   84    89     1     0     0
SMALL
NO_CHARGES


@<TRIPOS>ATOM
      1 PA         35.4520   77.8400  110.1290 P.3       1 FAD1031     0.0000 
      2 O1A        35.3510   76.7630  111.1360 O.co2     1 FAD1031     0.0000 
      3 O2A        36.1460   77.8680  108.9590 O.co2     1 FAD1031     0.0000 
      4 O5B        34.3960   78.9060  110.2900 O.3       1 FAD1031     0.0000 
      5 C5B        33.5160   79.0710  111.4480 C.3       1 FAD1031     0.0000 
      6 C4B        33.3710   80.6140  111.7270 C.3       1 FAD1031     0.0000 
      7 O4B        32.2510   80.7550  112.7230 O.3       1 FAD1031     0.0000 
      8 C3B        34.6030   81.3200  112.4120 C.3       1 FAD1031     0.0000 
      9 O3B        34.8640   82.5790  111.8650 O.3       1 FAD1031     0.0000 
     10 C2B        34.1900   81.3170  113.9090 C.3       1 FAD1031     0.0000 
     11 O2B        34.8760   82.2840  114.6680 O.3       1 FAD1031     0.0000 
     12 C1B        32.7210   81.5990  113.8250 C.3       1 FAD1031     0.0000 
     13 N9A        31.8960   81.1570  114.9500 N.pl3     1 FAD1031     0.0000 
     14 C8A        32.1360   80.0940  115.7990 C.2       1 FAD1031     0.0000 
     15 N7A        31.1970   79.9500  116.7260 N.2       1 FAD1031     0.0000 
     16 C5A        30.3020   80.9570  116.4790 C.ar      1 FAD1031     0.0000 
     17 C6A        29.0460   81.3420  117.1520 C.ar      1 FAD1031     0.0000 
     18 N6A        28.5680   80.7020  118.1880 N.pl3     1 FAD1031     0.0000 
     19 N1A        28.3910   82.4440  116.6070 N.ar      1 FAD1031     0.0000 
     20 C2A        28.8830   83.1300  115.5140 C.ar      1 FAD1031     0.0000 
     21 N3A        30.0280   82.8440  114.8400 N.ar      1 FAD1031     0.0000 
     22 C4A        30.7030   81.7480  115.3620 C.ar      1 FAD1031     0.0000 
     23 N1         41.5210   72.7250  104.8520 N.2       1 FAD1031     0.0000 
     24 C2         42.1270   72.7270  103.6650 C.2       1 FAD1031     0.0000 
     25 O2         41.5220   72.5410  102.6370 O.2       1 FAD1031     0.0000 
     26 N3         43.5480   72.9100  103.5520 N.am      1 FAD1031     0.0000 
     27 C4         44.3480   73.1480  104.6740 C.2       1 FAD1031     0.0000 
     28 O4         45.5420   73.2920  104.5320 O.2       1 FAD1031     0.0000 
     29 C4X        43.6790   73.2090  105.9750 C.2       1 FAD1031     0.0000 
     30 N5         44.4010   73.4410  107.1220 N.2       1 FAD1031     0.0000 
     31 C5X        43.7360   73.4240  108.3380 C.ar      1 FAD1031     0.0000 
     32 C6         44.5110   73.6550  109.5310 C.ar      1 FAD1031     0.0000 
     33 C7         43.9220   73.6380  110.7970 C.ar      1 FAD1031     0.0000 
     34 C7M        44.7810   73.8850  112.0130 C.3       1 FAD1031     0.0000 
     35 C8         42.4720   73.3760  110.9330 C.ar      1 FAD1031     0.0000 
     36 C8M        41.7700   73.3390  112.2750 C.3       1 FAD1031     0.0000 
     37 C9         41.6950   73.1470  109.7610 C.ar      1 FAD1031     0.0000 
     38 C9A        42.3100   73.1700  108.4690 C.ar      1 FAD1031     0.0000 
     39 N10        41.5880   72.9360  107.2130 N.pl3     1 FAD1031     0.0000 
     40 C10        42.2250   72.9490  106.0080 C.2       1 FAD1031     0.0000 
     41 C1'        40.1230   72.6840  107.2670 C.3       1 FAD1031     0.0000 
     42 C2'        39.3650   73.9830  106.8870 C.3       1 FAD1031     0.0000 
     43 O2'        40.0120   75.0670  107.5590 O.3       1 FAD1031     0.0000 
     44 C3'        37.9180   73.8550  107.3400 C.3       1 FAD1031     0.0000 
     45 O3'        37.3560   72.7130  106.6750 O.3       1 FAD1031     0.0000 
     46 C4'        37.1230   75.1090  106.9390 C.3       1 FAD1031     0.0000 
     47 O4'        37.7360   76.3170  107.4160 O.3       1 FAD1031     0.0000 
     48 C5'        35.7300   74.9540  107.4740 C.3       1 FAD1031     0.0000 
     49 O5'        34.9070   76.2130  107.0710 O.3       1 FAD1031     0.0000 
     50 P          33.7670   76.6960  107.9350 P.3       1 FAD1031     0.0000 
     51 O1P        33.3010   78.0050  107.3300 O.co2     1 FAD1031     0.0000 
     52 O2P        32.7950   75.7070  108.0810 O.co2     1 FAD1031     0.0000 
     53 O3P        34.2740   76.9490  109.3270 O.3       1 FAD1031     0.0000 
     54 H          33.9323   78.6209  112.3361 H         1 FAD1031     0.0000 
     55 H          32.5267   78.6836  111.2590 H         1 FAD1031     0.0000 
     56 H          33.1132   81.1231  110.8439 H         1 FAD1031     0.0000 
     57 H          35.4186   80.6105  112.3192 H         1 FAD1031     0.0000 
     58 H          34.3149   80.3116  114.2573 H         1 FAD1031     0.0000 
     59 H          32.5399   82.6086  113.5742 H         1 FAD1031     0.0000 
     60 H          32.9369   79.5143  115.7020 H         1 FAD1031     0.0000 
     61 H          29.2422   80.2785  118.7931 H         1 FAD1031     0.0000 
     62 H          27.5722   80.6950  118.2799 H         1 FAD1031     0.0000 
     63 H          28.2992   83.9677  115.1705 H         1 FAD1031     0.0000 
     64 H          43.9722   72.8616  102.6136 H         1 FAD1031     0.0000 
     65 H          45.5193   73.8347  109.4273 H         1 FAD1031     0.0000 
     66 H          40.6958   72.9656  109.8401 H         1 FAD1031     0.0000 
     67 H          39.8193   72.3950  108.2672 H         1 FAD1031     0.0000 
     68 H          39.8401   71.9087  106.5634 H         1 FAD1031     0.0000 
     69 H          39.4013   74.0832  105.8296 H         1 FAD1031     0.0000 
     70 H          37.8899   73.7485  108.3961 H         1 FAD1031     0.0000 
     71 H          37.0609   75.1065  105.8481 H         1 FAD1031     0.0000 
     72 H          35.7416   74.8866  108.5503 H         1 FAD1031     0.0000 
     73 H          35.2533   74.0861  107.0468 H         1 FAD1031     0.0000 
     74 H          45.5128   73.2083  112.0945 H         1 FAD1031     0.0000 
     75 H          45.2159   74.7850  111.9839 H         1 FAD1031     0.0000 
     76 H          44.2485   73.8441  112.8584 H         1 FAD1031     0.0000 
     77 H          42.1466   72.6304  112.8717 H         1 FAD1031     0.0000 
     78 H          41.8545   74.2081  112.7624 H         1 FAD1031     0.0000 
     79 H          40.7926   73.1513  112.1778 H         1 FAD1031     0.0000 
     80 H          34.0740   83.1386  112.1153 H         1 FAD1031     0.0000 
     81 H          34.2215   83.0304  114.7884 H         1 FAD1031     0.0000 
     82 H          39.3093   75.7729  107.6473 H         1 FAD1031     0.0000 
     83 H          36.6434   72.3791  107.2920 H         1 FAD1031     0.0000 
     84 H          37.0377   76.7555  107.9817 H         1 FAD1031     0.0000 
@<TRIPOS>BOND
     1    2    1 ar   
     2    3    1 ar   
     3    4    1 1    
     4   53    1 1    
     5    5    4 1    
     6    6    5 1    
     7   54    5 1    
     8   55    5 1    
     9    7    6 1    
    10    8    6 1    
    11   56    6 1    
    12   12    7 1    
    13    9    8 1    
    14   10    8 1    
    15   57    8 1    
    16   80    9 1    
    17   11   10 1    
    18   12   10 1    
    19   58   10 1    
    20   81   11 1    
    21   13   12 1    
    22   59   12 1    
    23   14   13 1    
    24   22   13 1    
    25   15   14 2    
    26   60   14 1    
    27   16   15 1    
    28   17   16 ar   
    29   22   16 ar   
    30   18   17 1    
    31   19   17 ar   
    32   61   18 1    
    33   62   18 1    
    34   20   19 ar   
    35   21   20 ar   
    36   63   20 1    
    37   22   21 ar   
    38   24   23 1    
    39   40   23 2    
    40   25   24 2    
    41   26   24 am   
    42   27   26 am   
    43   64   26 1    
    44   28   27 2    
    45   29   27 1    
    46   30   29 2    
    47   40   29 1    
    48   31   30 1    
    49   32   31 ar   
    50   38   31 ar   
    51   33   32 ar   
    52   65   32 1    
    53   34   33 1    
    54   35   33 ar   
    55   74   34 1    
    56   75   34 1    
    57   76   34 1    
    58   36   35 1    
    59   37   35 ar   
    60   77   36 1    
    61   78   36 1    
    62   79   36 1    
    63   38   37 ar   
    64   66   37 1    
    65   39   38 1    
    66   40   39 1    
    67   41   39 1    
    68   42   41 1    
    69   67   41 1    
    70   68   41 1    
    71   43   42 1    
    72   44   42 1    
    73   69   42 1    
    74   82   43 1    
    75   45   44 1    
    76   46   44 1    
    77   70   44 1    
    78   83   45 1    
    79   47   46 1    
    80   48   46 1    
    81   71   46 1    
    82   84   47 1    
    83   49   48 1    
    84   72   48 1    
    85   73   48 1    
    86   50   49 1    
    87   51   50 ar   
    88   52   50 ar   
    89   53   50 1    
@<TRIPOS>SUBSTRUCTURE
     1 FAD1031     1 GROUP   
@<TRIPOS>SET

