#    Name: 3D4S_1_CAVITY_N1_6.mol2
#    Modification time : Tue Mar 11 15:29:13 2014

@<TRIPOS>MOLECULE
3D4S_1_CAVITY_N1_6.mol2
  115     0     6     0     0
SMALL
NO_CHARGES


@<TRIPOS>ATOM
      1 O           6.0276   11.6713   53.4170 O.2       2 ALA2        0.0000 
      2 NZ          1.8915    7.1888   52.3922 N.2       3 LYS4        0.0000 
      3 N           3.1538    6.4500   52.7251 N.2       2 ALA2        0.0000 
      4 CZ          4.4160    5.7111   53.0580 C.ar      4 PHE5        0.0000 
      5 CA         -0.0892    6.6224   51.8863 C.3       5 GLY6        0.0000 
      6 CA          1.1730    5.8835   52.2192 C.3       5 GLY6        0.0000 
      7 CZ          2.4353    5.1446   52.5521 C.ar      4 PHE5        0.0000 
      8 CZ          3.6975    4.4058   52.8850 C.ar      4 PHE5        0.0000 
      9 CA          0.4546    4.5782   52.0462 C.3       5 GLY6        0.0000 
     10 CZ          1.7168    3.8393   52.3791 C.ar      4 PHE5        0.0000 
     11 OG          2.9791    3.1004   52.7120 O.2       1 SER1        0.0000 
     12 CZ          0.9984    2.5340   52.2061 C.ar      4 PHE5        0.0000 
     13 CZ          2.2606    1.7951   52.5390 C.ar      4 PHE5        0.0000 
     14 O           3.5228    1.0562   52.8719 O.2       2 ALA2        0.0000 
     15 OG          0.2799    1.2287   52.0331 O.2       1 SER1        0.0000 
     16 O           1.5421    0.4898   52.3660 O.2       2 ALA2        0.0000 
     17 OG         -0.4386   -0.0767   51.8601 O.2       1 SER1        0.0000 
     18 OG          0.8237   -0.8155   52.1930 O.2       1 SER1        0.0000 
     19 N           3.5287    6.4361   51.2727 N.2       2 ALA2        0.0000 
     20 NZ          1.5479    5.8696   50.7669 N.2       3 LYS4        0.0000 
     21 CZ          2.8102    5.1308   51.0997 C.ar      4 PHE5        0.0000 
     22 CA          0.8295    4.5643   50.5939 C.3       5 GLY6        0.0000 
     23 CA          2.0917    3.8254   50.9268 C.3       5 GLY6        0.0000 
     24 CZ          3.3540    3.0866   51.2596 C.ar      4 PHE5        0.0000 
     25 CA          1.3732    2.5201   50.7538 C.3       5 GLY6        0.0000 
     26 CZ          2.6355    1.7812   51.0867 C.ar      4 PHE5        0.0000 
     27 OG          0.6548    1.2148   50.5808 O.2       1 SER1        0.0000 
     28 CZ          1.9170    0.4759   50.9137 C.ar      4 PHE5        0.0000 
     29 OG          1.1985   -0.8294   50.7407 O.2       1 SER1        0.0000 
     30 NZ          1.9228    5.8557   49.3145 N.2       3 LYS4        0.0000 
     31 CZ          3.1851    5.1169   49.6474 C.ar      4 PHE5        0.0000 
     32 CA          1.2044    4.5504   49.1415 C.3       5 GLY6        0.0000 
     33 CZ          2.4666    3.8116   49.4744 C.ar      4 PHE5        0.0000 
     34 CA          0.4859    3.2451   48.9686 C.3       5 GLY6        0.0000 
     35 CZ          1.7481    2.5062   49.3014 C.ar      4 PHE5        0.0000 
     36 CA         -0.2326    1.9398   48.7956 C.3       5 GLY6        0.0000 
     37 CZ          1.0297    1.2009   49.1285 C.ar      4 PHE5        0.0000 
     38 OG          0.3112   -0.1044   48.9555 O.2       1 SER1        0.0000 
     39 CA          1.5793    4.5365   47.6892 C.3       5 GLY6        0.0000 
     40 CZ          2.8415    3.7977   48.0221 C.ar      4 PHE5        0.0000 
     41 CA          0.8608    3.2312   47.5162 C.3       5 GLY6        0.0000 
     42 CZ          2.1230    2.4923   47.8491 C.ar      4 PHE5        0.0000 
     43 OG          0.1423    1.9259   47.3432 O.2       1 SER1        0.0000 
     44 CZ          1.4046    1.1870   47.6761 C.ar      4 PHE5        0.0000 
     45 CA          4.0098    7.0580   57.5879 C.3       5 GLY6        0.0000 
     46 CZ          5.2720    6.3192   57.9208 C.ar      4 PHE5        0.0000 
     47 CZ          5.8158    4.2750   58.0807 C.ar      4 PHE5        0.0000 
     48 OG          5.0973    2.9696   57.9077 O.2       1 SER1        0.0000 
     49 N           4.3789    1.6643   57.7347 N.2       2 ALA2        0.0000 
     50 N           5.6411    0.9254   58.0676 N.2       2 ALA2        0.0000 
     51 OG          4.9226   -0.3799   57.8946 O.2       1 SER1        0.0000 
     52 O           5.9963   13.0043   56.4947 O.2       2 ALA2        0.0000 
     53 O           4.0156   12.4379   55.9888 O.2       2 ALA2        0.0000 
     54 O           5.2779   11.6990   56.3217 O.2       2 ALA2        0.0000 
     55 CA          6.5401   10.9601   56.6546 C.3       5 GLY6        0.0000 
     56 CZ          3.2971   11.1326   55.8158 C.ar      4 PHE5        0.0000 
     57 DU          4.5594   10.3937   56.1487 H         6 CUB7        0.0000 
     58 CA          5.8216    9.6548   56.4816 C.3       5 GLY6        0.0000 
     59 CZ          2.5787    9.8272   55.6428 C.ar      4 PHE5        0.0000 
     60 DU          3.8409    9.0884   55.9757 H         6 CUB7        0.0000 
     61 CZ          5.1032    8.3495   56.3086 C.ar      4 PHE5        0.0000 
     62 CZ          6.3654    7.6106   56.6415 C.ar      4 PHE5        0.0000 
     63 CZ          0.5980    9.2608   55.1369 C.ar      4 PHE5        0.0000 
     64 CA          1.8602    8.5219   55.4698 C.3       5 GLY6        0.0000 
     65 CA          3.1224    7.7830   55.8027 C.3       5 GLY6        0.0000 
     66 CZ          4.3847    7.0442   56.1356 C.ar      4 PHE5        0.0000 
     67 OG         -0.1205    7.9555   54.9640 O.2       1 SER1        0.0000 
     68 CA          1.1417    7.2166   55.2968 C.3       5 GLY6        0.0000 
     69 CA          3.6662    5.7388   55.9626 C.3       5 GLY6        0.0000 
     70 CZ          2.7731    1.0840   55.7765 C.ar      4 PHE5        0.0000 
     71 N           5.1090   13.7293   54.7094 N.2       2 ALA2        0.0000 
     72 CA          6.3712   12.9905   55.0423 C.3       5 GLY6        0.0000 
     73 CZ          4.3905   12.4240   54.5365 C.ar      4 PHE5        0.0000 
     74 DU          5.6528   11.6851   54.8693 H         6 CUB7        0.0000 
     75 CA          6.9150   10.9463   55.2022 C.3       5 GLY6        0.0000 
     76 CZ          3.6720   11.1187   54.3635 C.ar      4 PHE5        0.0000 
     77 N           4.9343   10.3798   54.6964 N.2       2 ALA2        0.0000 
     78 N           6.1965    9.6409   55.0292 N.2       2 ALA2        0.0000 
     79 CZ          2.9536    9.8134   54.1905 C.ar      4 PHE5        0.0000 
     80 N           4.2158    9.0745   54.5234 N.2       2 ALA2        0.0000 
     81 N           5.4781    8.3356   54.8563 N.2       2 ALA2        0.0000 
     82 CZ          0.9729    9.2469   53.6846 C.ar      4 PHE5        0.0000 
     83 NZ          2.2351    8.5080   54.0175 N.2       3 LYS4        0.0000 
     84 N           3.4973    7.7692   54.3504 N.2       2 ALA2        0.0000 
     85 CZ          4.7596    7.0303   54.6833 C.ar      4 PHE5        0.0000 
     86 CA          0.2544    7.9416   53.5116 C.3       5 GLY6        0.0000 
     87 CZ          1.5166    7.2027   53.8445 C.ar      4 PHE5        0.0000 
     88 CZ          2.7789    6.4638   54.1774 C.ar      4 PHE5        0.0000 
     89 OG          4.0411    5.7250   54.5103 O.2       1 SER1        0.0000 
     90 CZ          0.7982    5.8974   53.6715 C.ar      4 PHE5        0.0000 
     91 OG          3.3226    4.4196   54.3373 O.2       1 SER1        0.0000 
     92 CZ          2.6042    3.1143   54.1643 C.ar      4 PHE5        0.0000 
     93 CZ          1.8857    1.8090   53.9913 C.ar      4 PHE5        0.0000 
     94 N           3.1479    1.0701   54.3242 N.2       2 ALA2        0.0000 
     95 CZ         -0.0950    1.2425   53.4854 C.ar      4 PHE5        0.0000 
     96 CZ          1.1672    0.5037   53.8183 C.ar      4 PHE5        0.0000 
     97 O           2.4295   -0.2352   54.1512 O.2       2 ALA2        0.0000 
     98 CZ          0.4488   -0.8017   53.6453 C.ar      4 PHE5        0.0000 
     99 NZ          5.0718    9.6826   59.3862 N.2       3 LYS4        0.0000 
    100 O           4.3534    8.3772   59.2132 O.2       2 ALA2        0.0000 
    101 O           4.8972    6.3330   59.3731 O.2       2 ALA2        0.0000 
    102 N           2.9223   11.1464   57.2681 N.2       2 ALA2        0.0000 
    103 N           4.1845   10.4076   57.6010 N.2       2 ALA2        0.0000 
    104 CA          5.4467    9.6687   57.9339 C.3       5 GLY6        0.0000 
    105 CA          6.7090    8.9298   58.2668 C.3       5 GLY6        0.0000 
    106 N           2.2038    9.8411   57.0951 N.2       2 ALA2        0.0000 
    107 O           3.4660    9.1022   57.4280 O.2       2 ALA2        0.0000 
    108 O           4.7283    8.3634   57.7609 O.2       2 ALA2        0.0000 
    109 CZ          5.9905    7.6245   58.0938 C.ar      4 PHE5        0.0000 
    110 CZ          7.2528    6.8856   58.4267 C.ar      4 PHE5        0.0000 
    111 CA          1.4853    8.5358   56.9222 C.3       5 GLY6        0.0000 
    112 CA         -0.5762    0.6206   47.1703 C.3       5 GLY6        0.0000 
    113 CA          0.6861   -0.1183   47.5031 C.3       5 GLY6        0.0000 
    114 OG          0.5172    1.9120   45.8909 O.2       1 SER1        0.0000 
    115 CZ          1.7794    1.1731   46.2238 C.ar      4 PHE5        0.0000 
@<TRIPOS>BOND
@<TRIPOS>SUBSTRUCTURE
     1 SER1       11 GROUP   
     2 ALA2        1 GROUP   
     3 LYS4        2 GROUP   
     4 PHE5        4 GROUP   
     5 GLY6        5 GROUP   
     6 CUB7       57 GROUP   
@<TRIPOS>SET

