#    Name: 3d4s_TIM_1_INTS_M
#    Modification time : Mon Mar 24 22:42:19 2014

@<TRIPOS>MOLECULE
3d4s_TIM_1_INTS_M
   61     0    12     0     0
SMALL
NO_CHARGES


@<TRIPOS>ATOM
      1 CA          3.6075    0.5370   49.6005 C.3       4 GLC5        0.0000 
      2 CA          3.0370    1.1450   51.1390 C.3      12 GLL5        0.0000 
      3 CA          4.1780   -0.0710   48.0620 C.3       8 GLP5        0.0000 
      4 N           3.7530   -0.6230   53.0655 N.am      2 SEC2        0.0000 
      5 N           2.5250    0.1090   53.2570 N.am     10 SEL2        0.0000 
      6 N           4.9810   -1.3550   52.8740 N.am      6 SEP2        0.0000 
      7 CA          0.7110    1.7690   54.2110 C.3       4 GLC5        0.0000 
      8 CA          1.1250    0.2240   53.0440 C.3      12 GLL5        0.0000 
      9 CA          0.2970    3.3140   55.3780 C.3       8 GLP5        0.0000 
     10 CA         -1.1270    2.1925   48.1895 C.3       4 GLC5        0.0000 
     11 CA          0.3760    1.6670   47.2510 C.3      12 GLL5        0.0000 
     12 CA         -2.6300    2.7180   49.1280 C.3       8 GLP5        0.0000 
     13 CA          1.5050    2.6665   45.9405 C.3       4 GLC5        0.0000 
     14 CA          2.6340    3.6660   44.6300 C.3       8 GLP5        0.0000 
     15 CA         -1.1175    1.5855   45.6195 C.3       4 GLC5        0.0000 
     16 CA         -2.6110    1.5040   43.9880 C.3       8 GLP5        0.0000 
     17 CA         -0.3390   -0.0015   46.7415 C.3       4 GLC5        0.0000 
     18 CA         -1.0540   -1.6700   46.2320 C.3       8 GLP5        0.0000 
     19 CA          0.1495    5.1785   48.6550 C.3       4 GLC5        0.0000 
     20 CA          2.2270    5.3000   48.9410 C.3      12 GLL5        0.0000 
     21 CA         -1.9280    5.0570   48.3690 C.3       8 GLP5        0.0000 
     22 CA          2.2075    5.6620   47.1300 C.3       4 GLC5        0.0000 
     23 CA          2.1880    6.0240   45.3190 C.3       8 GLP5        0.0000 
     24 CA          4.6680    4.7235   50.1475 C.3       4 GLC5        0.0000 
     25 CA          3.2130    6.0320   49.8630 C.3      12 GLL5        0.0000 
     26 CA          6.1230    3.4150   50.4320 C.3       8 GLP5        0.0000 
     27 N           5.0570    7.4640   49.4975 N.am      2 SEC2        0.0000 
     28 N           3.8880    7.0830   49.2350 N.am     10 SEL2        0.0000 
     29 N           6.2260    7.8450   49.7600 N.am      6 SEP2        0.0000 
     30 O           2.6040    7.9290   48.8240 O.2       1 ALC1        0.0000 
     31 O           3.8880    7.0830   49.2350 O.2       9 ALL1        0.0000 
     32 O           1.3200    8.7750   48.4130 O.2       5 ALP1        0.0000 
     33 CA          0.8885    7.8270   50.3950 C.3       4 GLC5        0.0000 
     34 CA          2.4800    6.5150   51.1020 C.3      12 GLL5        0.0000 
     35 CA         -0.7030    9.1390   49.6880 C.3       8 GLP5        0.0000 
     36 CA          4.3655    5.3425   51.3475 C.3       4 GLC5        0.0000 
     37 CA          6.2510    4.1700   51.5930 C.3       8 GLP5        0.0000 
     38 OD1         2.2755    8.4630   51.1980 O.co2     3 ASC3        0.0000 
     39 OD1         3.0430    7.5930   51.8810 O.co2    11 ASL3        0.0000 
     40 OD1         1.5080    9.3330   50.5150 O.co2     7 ASP3        0.0000 
     41 CA          1.8930   10.5385   54.2625 C.3       4 GLC5        0.0000 
     42 CA          2.6000    8.7570   54.0240 C.3      12 GLL5        0.0000 
     43 CA          1.1860   12.3200   54.5010 C.3       8 GLP5        0.0000 
     44 CA         -0.6590    6.8690   53.8090 C.3       4 GLC5        0.0000 
     45 CA          1.0670    6.9630   53.2160 C.3      12 GLL5        0.0000 
     46 CA         -2.3850    6.7750   54.4020 C.3       8 GLP5        0.0000 
     47 CA          4.8275    5.2815   52.8020 C.3       4 GLC5        0.0000 
     48 CA          3.4040    6.3930   54.0110 C.3      12 GLL5        0.0000 
     49 CA          5.1150    5.7155   54.9425 C.3       4 GLC5        0.0000 
     50 CA          6.8260    5.0380   55.8740 C.3       8 GLP5        0.0000 
     51 CA          4.6275    2.2890   51.1650 C.3       4 GLC5        0.0000 
     52 CA          3.2270    1.1810   52.6570 C.3      12 GLL5        0.0000 
     53 CA         -0.4513    0.0043   53.4640 C.3       4 GLC5        0.0000 
     54 CA          0.7100    0.3790   51.5700 C.3      12 GLL5        0.0000 
     55 CA         -1.8200   -0.2930   54.6210 C.3       8 GLP5        0.0000 
     56 CA         -0.2937   -1.2612   51.7855 C.3       4 GLC5        0.0000 
     57 CA         -1.5050   -2.8240   51.2640 C.3       8 GLP5        0.0000 
     58 CA          4.1590    6.2765   48.0125 C.3       4 GLC5        0.0000 
     59 CA          5.5980    6.8870   46.6230 C.3       8 GLP5        0.0000 
     60 CA          1.8476    5.5116   54.8430 C.3       4 GLC5        0.0000 
     61 CA          1.0910    4.2270   56.0590 C.3       8 GLP5        0.0000 
@<TRIPOS>BOND
@<TRIPOS>SUBSTRUCTURE
     1 ALC1       30 GROUP        1 X    ALC  0     ROOT ALC X 1
     2 SEC2        4 GROUP        1 X    SEC  0     **** SEC X 2
     3 ASC3       38 GROUP        1 X    ASC  0     **** ASC X 3
     4 GLC5        1 GROUP        1 X    GLC  0     **** GLC X 6
     5 ALP1       32 GROUP        1 Y    ALP  0     ROOT ALP Y 8
     6 SEP2        6 GROUP        1 Y    SEP  0     **** SEP Y 9
     7 ASP3       40 GROUP        1 Y    ASP  0     **** ASP Y 10
     8 GLP5        3 GROUP        1 Y    GLP  0     **** GLP Y 13
     9 ALL1       31 GROUP        1 Z    ALL  0     ROOT ALL Z 15
    10 SEL2        5 GROUP        1 Z    SEL  0     **** SEL Z 16
    11 ASL3       39 GROUP        1 Z    ASL  0     **** ASL Z 17
    12 GLL5        2 GROUP        1 Z    GLL  0     **** GLL Z 20
@<TRIPOS>SET

