#    Name: 3d4s_TIM_1_ligand
#    Modification time : Mon Mar 24 22:42:19 2014

@<TRIPOS>MOLECULE
3d4s_TIM_1_ligand
   44    45     1     0     0
SMALL
NO_CHARGES


@<TRIPOS>ATOM
      1 C5          3.0370    1.1450   51.1390 C.3       1 TIM401      0.0000 
      2 C6          3.2270    1.1810   52.6570 C.3       1 TIM401      0.0000 
      3 O1          2.5250    0.1090   53.2570 O.3       1 TIM401      0.0000 
      4 C2          1.1250    0.2240   53.0440 C.3       1 TIM401      0.0000 
      5 C3          0.7100    0.3790   51.5700 C.3       1 TIM401      0.0000 
      6 N4          1.6400    1.1180   50.7540 N.3       1 TIM401      0.0000 
      7 C7          1.3060    1.5940   49.5090 C.2       1 TIM401      0.0000 
      8 N8          0.6450    0.8220   48.6310 N.2       1 TIM401      0.0000 
      9 S9          0.3760    1.6670   47.2510 S.3       1 TIM401      0.0000 
     10 N10         1.0840    3.0830   47.6660 N.2       1 TIM401      0.0000 
     11 C11         1.5540    2.9670   48.8980 C.2       1 TIM401      0.0000 
     12 O12         2.2330    3.9730   49.5430 O.3       1 TIM401      0.0000 
     13 C13         2.2270    5.3000   48.9410 C.3       1 TIM401      0.0000 
     14 C14         3.2130    6.0320   49.8630 C.3       1 TIM401      0.0000 
     15 O15         3.8880    7.0830   49.2350 O.3       1 TIM401      0.0000 
     16 C16         2.4800    6.5150   51.1020 C.3       1 TIM401      0.0000 
     17 N17         3.0430    7.5930   51.8810 N.4       1 TIM401      0.0000 
     18 C18         2.5420    7.4360   53.2700 C.3       1 TIM401      0.0000 
     19 C19         2.6000    8.7570   54.0240 C.3       1 TIM401      0.0000 
     20 C20         1.0670    6.9630   53.2160 C.3       1 TIM401      0.0000 
     21 C21         3.4040    6.3930   54.0110 C.3       1 TIM401      0.0000 
     22 H           3.5705    0.2573   50.7537 H         1 TIM401      0.0000 
     23 H           3.5471    2.0287   50.7147 H         1 TIM401      0.0000 
     24 H           2.8706    2.1580   53.0107 H         1 TIM401      0.0000 
     25 H           4.3062    1.1309   52.8554 H         1 TIM401      0.0000 
     26 H           0.6981    1.0978   53.5935 H         1 TIM401      0.0000 
     27 H           0.5763   -0.6636   53.4425 H         1 TIM401      0.0000 
     28 H          -0.2972    0.8575   51.5609 H         1 TIM401      0.0000 
     29 H           0.5503   -0.6472   51.1640 H         1 TIM401      0.0000 
     30 H           1.2819    5.7644   49.0195 H         1 TIM401      0.0000 
     31 H           2.6225    5.2907   47.9619 H         1 TIM401      0.0000 
     32 H           3.9320    5.2600   50.2163 H         1 TIM401      0.0000 
     33 H           2.3115    5.6064   51.7644 H         1 TIM401      0.0000 
     34 H           1.4226    6.7818   50.7804 H         1 TIM401      0.0000 
     35 H           3.5330    9.1127   54.0787 H         1 TIM401      0.0000 
     36 H           2.0432    9.4610   53.5831 H         1 TIM401      0.0000 
     37 H           2.2662    8.6642   54.9621 H         1 TIM401      0.0000 
     38 H           0.9750    6.0869   52.7428 H         1 TIM401      0.0000 
     39 H           0.6815    6.8438   54.1310 H         1 TIM401      0.0000 
     40 H           0.4842    7.6183   52.7354 H         1 TIM401      0.0000 
     41 H           4.3647    6.6673   54.0527 H         1 TIM401      0.0000 
     42 H           3.0964    6.2587   54.9530 H         1 TIM401      0.0000 
     43 H           3.3734    5.4997   53.5625 H         1 TIM401      0.0000 
     44 H           3.1702    7.7196   48.9531 H         1 TIM401      0.0000 
@<TRIPOS>BOND
     1    2    1 1    
     2    6    1 1    
     3   22    1 1    
     4   23    1 1    
     5    3    2 1    
     6   24    2 1    
     7   25    2 1    
     8    4    3 1    
     9    5    4 1    
    10   26    4 1    
    11   27    4 1    
    12    6    5 1    
    13   28    5 1    
    14   29    5 1    
    15    7    6 1    
    16    8    7 2    
    17   11    7 1    
    18    9    8 1    
    19   10    9 1    
    20   11   10 2    
    21   12   11 1    
    22   13   12 1    
    23   14   13 1    
    24   30   13 1    
    25   31   13 1    
    26   15   14 1    
    27   16   14 1    
    28   32   14 1    
    29   44   15 1    
    30   17   16 1    
    31   33   16 1    
    32   34   16 1    
    33   18   17 1    
    34   19   18 1    
    35   20   18 1    
    36   21   18 1    
    37   35   19 1    
    38   36   19 1    
    39   37   19 1    
    40   38   20 1    
    41   39   20 1    
    42   40   20 1    
    43   41   21 1    
    44   42   21 1    
    45   43   21 1    
@<TRIPOS>SUBSTRUCTURE
     1 TIM401      1 GROUP   
@<TRIPOS>SET

