#    Name: 4jmo_JAF_1_INTS_M
#    Modification time : Tue Mar 25 06:05:44 2014

@<TRIPOS>MOLECULE
4jmo_JAF_1_INTS_M
   46     0     9     0     0
SMALL
NO_CHARGES


@<TRIPOS>ATOM
      1 CA         25.3095   12.7875   56.3680 C.3       3 GLC5        0.0000 
      2 CA         27.0910   13.2110   57.5710 C.3       9 GLL5        0.0000 
      3 CA         23.5280   12.3640   55.1650 C.3       6 GLP5        0.0000 
      4 CA         26.3720   14.9690   57.1900 C.3       3 GLC5        0.0000 
      5 CA         25.6530   16.7270   56.8090 C.3       6 GLP5        0.0000 
      6 CA         24.8845   11.1395   57.7935 C.3       3 GLC5        0.0000 
      7 CA         26.7780   10.8620   58.1770 C.3       9 GLL5        0.0000 
      8 CA         22.9910   11.4170   57.4100 C.3       6 GLP5        0.0000 
      9 CA         26.4780    7.8830   56.7925 C.3       3 GLC5        0.0000 
     10 CA         27.0990    9.4980   58.1030 C.3       9 GLL5        0.0000 
     11 CA         25.8570    6.2680   55.4820 C.3       6 GLP5        0.0000 
     12 N          26.6830    7.0850   58.5925 N.am      2 SEC2        0.0000 
     13 N          26.3290    8.6480   58.8180 N.am      8 SEL2        0.0000 
     14 N          27.0370    5.5220   58.3670 N.am      5 SEP2        0.0000 
     15 O          25.1190    9.3670   59.4615 O.2       1 ALC1        0.0000 
     16 O          26.3290    8.6480   58.8180 O.2       7 ALL1        0.0000 
     17 O          23.9090   10.0860   60.1050 O.2       4 ALP1        0.0000 
     18 CA         27.6230    7.2775   56.5675 C.3       3 GLC5        0.0000 
     19 CA         28.1270    9.0580   57.2670 C.3       9 GLL5        0.0000 
     20 CA         27.1190    5.4970   55.8680 C.3       6 GLP5        0.0000 
     21 CA         27.4880    8.6195   55.4310 C.3       3 GLC5        0.0000 
     22 CA         28.8550    9.9960   56.5230 C.3       9 GLL5        0.0000 
     23 CA         26.1210    7.2430   54.3390 C.3       6 GLP5        0.0000 
     24 CA         25.9350   10.5820   51.6375 C.3       3 GLC5        0.0000 
     25 CA         27.2930    9.6370   52.4260 C.3       9 GLL5        0.0000 
     26 CA         24.5770   11.5270   50.8490 C.3       6 GLP5        0.0000 
     27 CA         29.1315    5.7840   50.9185 C.3       3 GLC5        0.0000 
     28 CA         29.2470    7.6190   50.1140 C.3       9 GLL5        0.0000 
     29 CA         29.0160    3.9490   51.7230 C.3       6 GLP5        0.0000 
     30 CA         27.4630    7.9980   49.0425 C.3       3 GLC5        0.0000 
     31 CA         25.6790    8.3770   47.9710 C.3       6 GLP5        0.0000 
     32 CA         28.4738   10.8140   59.3105 C.3       3 GLC5        0.0000 
     33 CA         30.0090   11.4480   60.4810 C.3       6 GLP5        0.0000 
     34 CA         26.9222   10.4755   59.9970 C.3       3 GLC5        0.0000 
     35 CA         26.9060   10.7710   61.8540 C.3       6 GLP5        0.0000 
     36 CA         28.6205    8.4590   59.1355 C.3       3 GLC5        0.0000 
     37 CA         29.6280    7.6400   60.5860 C.3       6 GLP5        0.0000 
     38 CA         29.2500   10.4875   58.6880 C.3       3 GLC5        0.0000 
     39 CA         28.9501   12.7676   58.1382 C.3       3 GLC5        0.0000 
     40 CA         28.5220   11.3660   56.6200 C.3       9 GLL5        0.0000 
     41 CA         29.9980   13.5930   59.2130 C.3       6 GLP5        0.0000 
     42 CA         26.9932    8.4710   53.3097 C.3       3 GLC5        0.0000 
     43 CA         27.3410   10.7590   53.2360 C.3       9 GLL5        0.0000 
     44 CA         28.1354   11.6349   51.5112 C.3       3 GLC5        0.0000 
     45 CA         29.7010   11.0140   52.6710 C.3       9 GLL5        0.0000 
     46 CA         27.3470   12.9700   50.6330 C.3       6 GLP5        0.0000 
@<TRIPOS>BOND
@<TRIPOS>SUBSTRUCTURE
     1 ALC1       15 GROUP        1 X    ALC  0     ROOT ALC X 1
     2 SEC2       12 GROUP        1 X    SEC  0     **** SEC X 2
     3 GLC5        1 GROUP        1 X    GLC  0     **** GLC X 6
     4 ALP1       17 GROUP        1 Y    ALP  0     ROOT ALP Y 8
     5 SEP2       14 GROUP        1 Y    SEP  0     **** SEP Y 9
     6 GLP5        3 GROUP        1 Y    GLP  0     **** GLP Y 13
     7 ALL1       16 GROUP        1 Z    ALL  0     ROOT ALL Z 15
     8 SEL2       13 GROUP        1 Z    SEL  0     **** SEL Z 16
     9 GLL5        2 GROUP        1 Z    GLL  0     **** GLL Z 20
@<TRIPOS>SET

