#    Name: 4jmo_JAF_1_ligand
#    Modification time : Tue Mar 25 06:05:44 2014

@<TRIPOS>MOLECULE
4jmo_JAF_1_ligand
   38    39     1     0     0
SMALL
NO_CHARGES


@<TRIPOS>ATOM
      1 CAB        27.0910   13.2110   57.5710 C.3       1 JAF301      0.0000 
      2 CAO        27.4740   11.8260   57.4430 C.ar      1 JAF301      0.0000 
      3 CAK        26.7780   10.8620   58.1770 C.ar      1 JAF301      0.0000 
      4 CAQ        27.0990    9.4980   58.1030 C.ar      1 JAF301      0.0000 
      5 OAF        26.3290    8.6480   58.8180 O.3       1 JAF301      0.0000 
      6 CAL        28.1270    9.0580   57.2670 C.ar      1 JAF301      0.0000 
      7 CAP        28.8550    9.9960   56.5230 C.ar      1 JAF301      0.0000 
      8 CAC        29.9100    9.5660   55.6990 C.3       1 JAF301      0.0000 
      9 CAT        28.5220   11.3660   56.6200 C.ar      1 JAF301      0.0000 
     10 NAM        29.2270   12.2670   55.8900 N.pl3     1 JAF301      0.0000 
     11 SAU        28.5670   12.7830   54.3300 S.o2      1 JAF301      0.0000 
     12 OAD        29.4160   13.8600   53.5850 O.2       1 JAF301      0.0000 
     13 OAE        27.1080   13.2350   54.5530 O.2       1 JAF301      0.0000 
     14 CAS        28.5480   11.4340   53.3480 C.ar      1 JAF301      0.0000 
     15 CAI        27.3410   10.7590   53.2360 C.ar      1 JAF301      0.0000 
     16 CAG        27.2930    9.6370   52.4260 C.ar      1 JAF301      0.0000 
     17 CAR        28.4140    9.2000   51.7300 C.ar      1 JAF301      0.0000 
     18 OAN        28.2000    8.0550   50.9710 O.3       1 JAF301      0.0000 
     19 CAA        29.2470    7.6190   50.1140 C.3       1 JAF301      0.0000 
     20 CAH        29.6360    9.8890   51.8650 C.ar      1 JAF301      0.0000 
     21 CAJ        29.7010   11.0140   52.6710 C.ar      1 JAF301      0.0000 
     22 H          25.9997   11.1613   58.7964 H         1 JAF301      0.0000 
     23 H          28.3477    8.0639   57.1969 H         1 JAF301      0.0000 
     24 H          30.0740   12.7196   56.0525 H         1 JAF301      0.0000 
     25 H          26.5155   11.0803   53.7353 H         1 JAF301      0.0000 
     26 H          26.4028    9.1099   52.3352 H         1 JAF301      0.0000 
     27 H          30.4635    9.5521   51.3667 H         1 JAF301      0.0000 
     28 H          30.5729   11.5346   52.7751 H         1 JAF301      0.0000 
     29 H          27.1790   13.5351   58.5129 H         1 JAF301      0.0000 
     30 H          27.6573   13.8071   57.0018 H         1 JAF301      0.0000 
     31 H          26.1409   13.3604   57.2972 H         1 JAF301      0.0000 
     32 H          30.3465   10.3308   55.2250 H         1 JAF301      0.0000 
     33 H          30.6235    9.0997   56.2221 H         1 JAF301      0.0000 
     34 H          29.5961    8.9268   54.9970 H         1 JAF301      0.0000 
     35 H          30.0835    7.4163   50.6231 H         1 JAF301      0.0000 
     36 H          28.9980    6.7881   49.6165 H         1 JAF301      0.0000 
     37 H          29.4801    8.3110   49.4307 H         1 JAF301      0.0000 
     38 H          25.5808    9.2105   59.1699 H         1 JAF301      0.0000 
@<TRIPOS>BOND
     1    2    1 1    
     2   29    1 1    
     3   30    1 1    
     4   31    1 1    
     5    3    2 ar   
     6    9    2 ar   
     7    4    3 ar   
     8   22    3 1    
     9    5    4 1    
    10    6    4 ar   
    11   38    5 1    
    12    7    6 ar   
    13   23    6 1    
    14    8    7 1    
    15    9    7 ar   
    16   32    8 1    
    17   33    8 1    
    18   34    8 1    
    19   10    9 1    
    20   11   10 1    
    21   24   10 1    
    22   12   11 2    
    23   13   11 2    
    24   14   11 1    
    25   15   14 ar   
    26   21   14 ar   
    27   16   15 ar   
    28   25   15 1    
    29   17   16 ar   
    30   26   16 1    
    31   18   17 1    
    32   20   17 ar   
    33   19   18 1    
    34   35   19 1    
    35   36   19 1    
    36   37   19 1    
    37   21   20 ar   
    38   27   20 1    
    39   28   21 1    
@<TRIPOS>SUBSTRUCTURE
     1 JAF301      1 GROUP   
@<TRIPOS>SET

