#    Name: 3m42_HGF_1_INTS_M
#    Modification time : Mon Mar 24 22:43:35 2014

@<TRIPOS>MOLECULE
3m42_HGF_1_INTS_M
   74     0     9     0     0
SMALL
NO_CHARGES


@<TRIPOS>ATOM
      1 CA         39.5775    5.7795   11.6505 C.3       3 GLC5        0.0000 
      2 CA         39.5400    6.0650   13.7530 C.3       9 GLL5        0.0000 
      3 CA         39.6150    5.4940    9.5480 C.3       6 GLP5        0.0000 
      4 CA         40.6560    4.5305   13.2650 C.3       3 GLC5        0.0000 
      5 CA         41.7720    2.9960   12.7770 C.3       6 GLP5        0.0000 
      6 N          38.9580    4.3850   12.1275 N.am      2 SEC2        0.0000 
      7 N          38.4930    5.2850   13.3410 N.am      8 SEL2        0.0000 
      8 N          39.4230    3.4850   10.9140 N.am      5 SEP2        0.0000 
      9 CA         39.0160    3.4700   13.4295 C.3       3 GLC5        0.0000 
     10 CA         37.5340    4.7980   14.1870 C.3       9 GLL5        0.0000 
     11 CA         40.4980    2.1420   12.6720 C.3       6 GLP5        0.0000 
     12 CA         35.2595    5.7925   12.4735 C.3       3 GLC5        0.0000 
     13 CA         35.9400    4.1210   12.3230 C.3       9 GLL5        0.0000 
     14 CA         34.5790    7.4640   12.6240 C.3       6 GLP5        0.0000 
     15 CA         36.3980    4.7155   10.7290 C.3       3 GLC5        0.0000 
     16 CA         36.8560    5.3100    9.1350 C.3       6 GLP5        0.0000 
     17 CA         33.3970    4.2415   12.6975 C.3       3 GLC5        0.0000 
     18 CA         34.3220    2.3650   12.6470 C.3       9 GLL5        0.0000 
     19 CA         32.4720    6.1180   12.7480 C.3       6 GLP5        0.0000 
     20 CA         35.6080    1.1025   11.4420 C.3       3 GLC5        0.0000 
     21 CA         36.8940   -0.1600   10.2370 C.3       6 GLP5        0.0000 
     22 CA         36.8350    0.2000   16.7400 C.3       3 GLC5        0.0000 
     23 CA         34.9940    0.1580   15.4760 C.3       9 GLL5        0.0000 
     24 CA         38.6760    0.2420   18.0040 C.3       6 GLP5        0.0000 
     25 CA         35.3985   -1.0065   18.2750 C.3       3 GLC5        0.0000 
     26 CA         34.2240   -0.4120   16.6910 C.3       9 GLL5        0.0000 
     27 CA         36.5730   -1.6010   19.8590 C.3       6 GLP5        0.0000 
     28 CA         34.8520   -0.4740   19.2115 C.3       3 GLC5        0.0000 
     29 CA         33.1310    0.6530   18.5640 C.3       9 GLL5        0.0000 
     30 CA         42.5140    6.7975   14.7640 C.3       3 GLC5        0.0000 
     31 CA         40.7450    7.2250   15.5820 C.3       9 GLL5        0.0000 
     32 CA         44.2830    6.3700   13.9460 C.3       6 GLP5        0.0000 
     33 CA         35.8320    6.1260   20.2135 C.3       3 GLC5        0.0000 
     34 CA         37.8840    6.2340   20.9390 C.3       9 GLL5        0.0000 
     35 CA         33.7800    6.0180   19.4880 C.3       6 GLP5        0.0000 
     36 CA         40.8725    7.0155   22.5185 C.3       3 GLC5        0.0000 
     37 CA         38.8900    6.6230   22.0740 C.3       9 GLL5        0.0000 
     38 CA         42.8550    7.4080   22.9630 C.3       6 GLP5        0.0000 
     39 O          40.4440    7.8555   22.9765 O.2       1 ALC1        0.0000 
     40 O          39.9310    7.6110   21.7110 O.2       7 ALL1        0.0000 
     41 O          40.9570    8.1000   24.2420 O.2       4 ALP1        0.0000 
     42 N          41.2950   10.0225   20.9285 N.am      2 SEC2        0.0000 
     43 N          41.1610    8.7000   20.1740 N.am      8 SEL2        0.0000 
     44 N          41.4290   11.3450   21.6830 N.am      5 SEP2        0.0000 
     45 CA         38.1610    8.1638   17.9560 C.3       3 GLC5        0.0000 
     46 CA         39.8740    7.0560   17.8450 C.3       9 GLL5        0.0000 
     47 CA         36.9740    9.6780   18.2900 C.3       6 GLP5        0.0000 
     48 CA         39.3509    4.3342   16.5474 C.3       3 GLC5        0.0000 
     49 CA         39.6730    6.4080   15.1190 C.3       9 GLL5        0.0000 
     50 CA         39.4890    2.4280   17.1770 C.3       6 GLP5        0.0000 
     51 CA         35.7100    5.7337   14.8433 C.3       3 GLC5        0.0000 
     52 CA         37.6180    5.1010   15.5660 C.3       9 GLL5        0.0000 
     53 CA         33.8440    6.5180   14.8100 C.3       6 GLP5        0.0000 
     54 CA         38.5325    3.6887   16.0267 C.3       3 GLC5        0.0000 
     55 CA         37.4215    7.4876   15.7211 C.3       3 GLC5        0.0000 
     56 CA         36.4450    9.3470   15.8710 C.3       6 GLP5        0.0000 
     57 CA         34.9823    4.9932   14.4260 C.3       3 GLC5        0.0000 
     58 CA         36.4260    3.9640   13.6410 C.3       9 GLL5        0.0000 
     59 CA         37.9695    3.0808   12.1550 C.3       3 GLC5        0.0000 
     60 CA         39.7560    2.1190   11.3280 C.3       6 GLP5        0.0000 
     61 CA         35.7005   -1.4115   15.5678 C.3       3 GLC5        0.0000 
     62 CA         36.7920   -2.6960   15.0520 C.3       6 GLP5        0.0000 
     63 CA         39.1824    7.8694   13.7230 C.3       3 GLC5        0.0000 
     64 CA         38.1890    9.0080   12.4370 C.3       6 GLP5        0.0000 
     65 CA         41.0595    9.1367   15.9303 C.3       3 GLC5        0.0000 
     66 CA         41.3200   10.8810   15.5900 C.3       6 GLP5        0.0000 
     67 CA         41.9885    5.9358   17.0478 C.3       3 GLC5        0.0000 
     68 CA         40.8530    7.5600   16.9590 C.3       9 GLL5        0.0000 
     69 CA         43.1780    4.4790   17.8250 C.3       6 GLP5        0.0000 
     70 CA         41.4785    6.1540   18.8685 C.3       3 GLC5        0.0000 
     71 CA         43.2210    5.2020   19.1490 C.3       6 GLP5        0.0000 
     72 CA         37.8705    7.8978   22.6773 C.3       3 GLC5        0.0000 
     73 CA         37.3540    9.3670   23.8480 C.3       6 GLP5        0.0000 
     74 CA         37.7198    8.0935   19.2416 C.3       3 GLC5        0.0000 
@<TRIPOS>BOND
@<TRIPOS>SUBSTRUCTURE
     1 ALC1       39 GROUP        1 X    ALC  0     ROOT ALC X 1
     2 SEC2        6 GROUP        1 X    SEC  0     **** SEC X 2
     3 GLC5        1 GROUP        1 X    GLC  0     **** GLC X 6
     4 ALP1       41 GROUP        1 Y    ALP  0     ROOT ALP Y 8
     5 SEP2        8 GROUP        1 Y    SEP  0     **** SEP Y 9
     6 GLP5        3 GROUP        1 Y    GLP  0     **** GLP Y 13
     7 ALL1       40 GROUP        1 Z    ALL  0     ROOT ALL Z 15
     8 SEL2        7 GROUP        1 Z    SEL  0     **** SEL Z 16
     9 GLL5        2 GROUP        1 Z    GLL  0     **** GLL Z 20
@<TRIPOS>SET

