#    Name: 3m42_HGF_1_ligand
#    Modification time : Mon Mar 24 22:43:35 2014

@<TRIPOS>MOLECULE
3m42_HGF_1_ligand
   49    53     1     0     0
SMALL
NO_CHARGES


@<TRIPOS>ATOM
      1 N1         38.0530    5.8930   18.4500 N.pl3     1 HGF365      0.0000 
      2 C3         38.8220    6.2430   17.3990 C.ar      1 HGF365      0.0000 
      3 C4         38.6830    5.9030   16.0340 C.ar      1 HGF365      0.0000 
      4 C5         39.6730    6.4080   15.1190 C.ar      1 HGF365      0.0000 
      5 C6         39.5400    6.0650   13.7530 C.ar      1 HGF365      0.0000 
      6 N8         38.4930    5.2850   13.3410 N.ar      1 HGF365      0.0000 
      7 C9         37.5340    4.7980   14.1870 C.ar      1 HGF365      0.0000 
      8 C10        37.6180    5.1010   15.5660 C.ar      1 HGF365      0.0000 
      9 C12        36.4260    3.9640   13.6410 C.ar      1 HGF365      0.0000 
     10 C13        35.9400    4.1210   12.3230 C.ar      1 HGF365      0.0000 
     11 N15        34.9190    3.3260   11.8780 N.ar      1 HGF365      0.0000 
     12 C16        34.3220    2.3650   12.6470 C.ar      1 HGF365      0.0000 
     13 C18        34.7620    2.1560   13.9790 C.ar      1 HGF365      0.0000 
     14 C19        35.8150    2.9730   14.4430 C.ar      1 HGF365      0.0000 
     15 O21        34.2090    1.1910   14.8440 O.3       1 HGF365      0.0000 
     16 C22        34.9940    0.1580   15.4760 C.3       1 HGF365      0.0000 
     17 C25        34.2240   -0.4120   16.6910 C.3       1 HGF365      0.0000 
     18 O28        34.3480    0.5030   17.8000 O.3       1 HGF365      0.0000 
     19 C29        33.1310    0.6530   18.5640 C.3       1 HGF365      0.0000 
     20 C33        40.7450    7.2250   15.5820 C.ar      1 HGF365      0.0000 
     21 C35        40.8530    7.5600   16.9590 C.ar      1 HGF365      0.0000 
     22 C37        39.8740    7.0560   17.8450 C.ar      1 HGF365      0.0000 
     23 C38        39.5980    7.1560   19.3310 C.2       1 HGF365      0.0000 
     24 C39        38.4960    6.4120   19.5640 C.2       1 HGF365      0.0000 
     25 C40        37.8840    6.2340   20.9390 C.3       1 HGF365      0.0000 
     26 C43        38.8900    6.6230   22.0740 C.3       1 HGF365      0.0000 
     27 N46        39.9310    7.6110   21.7110 N.am      1 HGF365      0.0000 
     28 C48        40.2940    7.8820   20.4240 C.2       1 HGF365      0.0000 
     29 O49        41.1610    8.7000   20.1740 O.2       1 HGF365      0.0000 
     30 H          37.2517    5.3102   18.3636 H         1 HGF365      0.0000 
     31 H          40.2407    6.4118   13.0850 H         1 HGF365      0.0000 
     32 H          36.9200    4.7456   16.2123 H         1 HGF365      0.0000 
     33 H          36.3643    4.8335   11.7185 H         1 HGF365      0.0000 
     34 H          33.5575    1.7861   12.2826 H         1 HGF365      0.0000 
     35 H          36.1572    2.8411   15.4173 H         1 HGF365      0.0000 
     36 H          35.9484    0.5424   15.8421 H         1 HGF365      0.0000 
     37 H          35.1942   -0.6716   14.7946 H         1 HGF365      0.0000 
     38 H          34.6497   -1.3880   16.9223 H         1 HGF365      0.0000 
     39 H          33.1852   -0.5444   16.3899 H         1 HGF365      0.0000 
     40 H          41.4393    7.5712   14.9187 H         1 HGF365      0.0000 
     41 H          41.6057    8.1392   17.2897 H         1 HGF365      0.0000 
     42 H          37.5927    5.1945   21.0871 H         1 HGF365      0.0000 
     43 H          37.0006    6.8640   21.0397 H         1 HGF365      0.0000 
     44 H          39.3601    5.6786   22.4304 H         1 HGF365      0.0000 
     45 H          38.2854    6.9952   22.9318 H         1 HGF365      0.0000 
     46 H          40.3826    8.1005   22.5146 H         1 HGF365      0.0000 
     47 H          32.8282   -0.2163   18.9546 H         1 HGF365      0.0000 
     48 H          33.2464    1.2917   19.3247 H         1 HGF365      0.0000 
     49 H          32.3799    0.9993   18.0019 H         1 HGF365      0.0000 
@<TRIPOS>BOND
     1    2    1 1    
     2   24    1 1    
     3   30    1 1    
     4    3    2 ar   
     5   22    2 ar   
     6    4    3 ar   
     7    8    3 ar   
     8    5    4 ar   
     9   20    4 ar   
    10    6    5 ar   
    11   31    5 1    
    12    7    6 ar   
    13    8    7 ar   
    14    9    7 1    
    15   32    8 1    
    16   10    9 ar   
    17   14    9 ar   
    18   11   10 ar   
    19   33   10 1    
    20   12   11 ar   
    21   13   12 ar   
    22   34   12 1    
    23   14   13 ar   
    24   15   13 1    
    25   35   14 1    
    26   16   15 1    
    27   17   16 1    
    28   36   16 1    
    29   37   16 1    
    30   18   17 1    
    31   38   17 1    
    32   39   17 1    
    33   19   18 1    
    34   47   19 1    
    35   48   19 1    
    36   49   19 1    
    37   21   20 ar   
    38   40   20 1    
    39   22   21 ar   
    40   41   21 1    
    41   23   22 1    
    42   24   23 2    
    43   28   23 1    
    44   25   24 1    
    45   26   25 1    
    46   42   25 1    
    47   43   25 1    
    48   27   26 1    
    49   44   26 1    
    50   45   26 1    
    51   28   27 am   
    52   46   27 1    
    53   29   28 2    
@<TRIPOS>SUBSTRUCTURE
     1 HGF365      1 GROUP   
@<TRIPOS>SET

