#    Name: 2exc_JNK_1_INTS_M
#    Modification time : Tue Mar 25 12:12:42 2014

@<TRIPOS>MOLECULE
2exc_JNK_1_INTS_M
   85     0     9     0     0
SMALL
NO_CHARGES


@<TRIPOS>ATOM
      1 CA         20.2180    7.7080   33.6445 C.3       3 GLC5        0.0000 
      2 CA         20.9030    7.3940   31.5310 C.3       9 GLL5        0.0000 
      3 CA         19.5330    8.0220   35.7580 C.3       6 GLP5        0.0000 
      4 CA         17.0135    8.7750   32.8360 C.3       3 GLC5        0.0000 
      5 CA         18.6770    7.9660   32.2180 C.3       9 GLL5        0.0000 
      6 CA         15.3500    9.5840   33.4540 C.3       6 GLP5        0.0000 
      7 CA         17.3385    9.3665   31.2650 C.3       3 GLC5        0.0000 
      8 CA         16.0000   10.7670   30.3120 C.3       6 GLP5        0.0000 
      9 CA         21.4930   12.6675   33.2535 C.3       3 GLC5        0.0000 
     10 CA         20.0230   12.1580   32.2980 C.3       9 GLL5        0.0000 
     11 CA         22.9630   13.1770   34.2090 C.3       6 GLP5        0.0000 
     12 CA         22.3620   12.3595   32.5355 C.3       3 GLC5        0.0000 
     13 CA         21.7610   11.5420   30.8620 C.3       9 GLL5        0.0000 
     14 CA         20.8360    5.1905   33.3455 C.3       3 GLC5        0.0000 
     15 CA         20.5520    6.0600   31.5350 C.3       9 GLL5        0.0000 
     16 CA         21.1200    4.3210   35.1560 C.3       6 GLP5        0.0000 
     17 CA         18.9615    4.7200   30.7590 C.3       3 GLC5        0.0000 
     18 CA         17.3710    3.3800   29.9830 C.3       6 GLP5        0.0000 
     19 CA         16.3995    7.3980   32.5440 C.3       3 GLC5        0.0000 
     20 CA         18.4010    6.6150   32.2430 C.3       9 GLL5        0.0000 
     21 CA         14.3980    8.1810   32.8450 C.3       6 GLP5        0.0000 
     22 CA         18.0780    5.1195   33.4790 C.3       3 GLC5        0.0000 
     23 CA         17.7550    3.6240   34.7150 C.3       6 GLP5        0.0000 
     24 CA         17.3555    5.4705   31.3515 C.3       3 GLC5        0.0000 
     25 CA         16.3100    4.3260   30.4600 C.3       6 GLP5        0.0000 
     26 O          20.9350    3.8120   31.3015 O.2       1 ALC1        0.0000 
     27 O          21.5330    5.0810   31.2990 O.2       7 ALL1        0.0000 
     28 O          20.3370    2.5430   31.3040 O.2       4 ALP1        0.0000 
     29 N          18.6330    4.4930   32.1310 N.am      2 SEC2        0.0000 
     30 N          19.3330    5.7290   31.9260 N.am      8 SEL2        0.0000 
     31 N          17.9330    3.2570   32.3360 N.am      5 SEP2        0.0000 
     32 CA         14.9240   15.2420   34.3110 C.3       3 GLC5        0.0000 
     33 CA         16.1770   13.6510   34.8040 C.3       9 GLL5        0.0000 
     34 CA         13.6710   16.8330   33.8180 C.3       6 GLP5        0.0000 
     35 CA         15.7635   11.6175   34.1290 C.3       3 GLC5        0.0000 
     36 CA         22.0240    1.6890   30.4975 C.3       3 GLC5        0.0000 
     37 CA         23.4200    2.9630   31.5270 C.3       9 GLL5        0.0000 
     38 CA         20.6280    0.4150   29.4680 C.3       6 GLP5        0.0000 
     39 CA         23.0475    3.3350   28.0055 C.3       3 GLC5        0.0000 
     40 CA         24.3940    3.8740   29.3590 C.3       9 GLL5        0.0000 
     41 CA         21.7010    2.7960   26.6520 C.3       6 GLP5        0.0000 
     42 CA         27.2825    4.3650   32.9630 C.3       3 GLC5        0.0000 
     43 CA         28.1340    3.1990   31.6770 C.3       9 GLL5        0.0000 
     44 CA         26.4310    5.5310   34.2490 C.3       6 GLP5        0.0000 
     45 CA         14.0425   13.2945   37.5895 C.3       3 GLC5        0.0000 
     46 CA         15.3970   12.6240   36.8520 C.3       9 GLL5        0.0000 
     47 CA         12.6880   13.9650   38.3270 C.3       6 GLP5        0.0000 
     48 CA         15.7520   11.7405   38.4715 C.3       3 GLC5        0.0000 
     49 CA         16.1070   10.8570   40.0910 C.3       6 GLP5        0.0000 
     50 CA         14.8300   10.9160   36.4635 C.3       3 GLC5        0.0000 
     51 CA         14.2630    9.2080   36.0750 C.3       6 GLP5        0.0000 
     52 CA         19.1923   10.2387   30.5292 C.3       3 GLC5        0.0000 
     53 CA         19.9760    8.3760   31.8640 C.3       9 GLL5        0.0000 
     54 CA         18.2170   11.3800   29.2360 C.3       6 GLP5        0.0000 
     55 CA         19.7174    8.9911   33.9464 C.3       3 GLC5        0.0000 
     56 CA         20.3590    9.8190   31.7810 C.3       9 GLL5        0.0000 
     57 CA         19.0232   11.4352   30.8043 C.3       3 GLC5        0.0000 
     58 CA         19.6360   10.8230   32.4470 C.3       9 GLL5        0.0000 
     59 CA         21.7914   10.5155   33.2403 C.3       3 GLC5        0.0000 
     60 CA         22.8660   10.7640   34.9380 C.3       6 GLP5        0.0000 
     61 CA         19.8679    8.6646   29.8844 C.3       3 GLC5        0.0000 
     62 CA         21.4360   10.2130   30.9710 C.3       9 GLL5        0.0000 
     63 CA         18.9340    7.6740   28.3720 C.3       6 GLP5        0.0000 
     64 CA         19.9078   11.1288   30.0763 C.3       3 GLC5        0.0000 
     65 CA         22.2613    6.8850   32.9415 C.3       3 GLC5        0.0000 
     66 CA         23.7950    7.0430   34.3500 C.3       6 GLP5        0.0000 
     67 CA         19.8308    7.2005   29.9525 C.3       3 GLC5        0.0000 
     68 CA         19.0360    7.6562   33.9943 C.3       3 GLC5        0.0000 
     69 CA         18.7365    7.4823   30.3013 C.3       3 GLC5        0.0000 
     70 CA         18.8633   14.8895   34.5785 C.3       3 GLC5        0.0000 
     71 CA         18.3470   13.0670   33.9230 C.3       9 GLL5        0.0000 
     72 CA         19.9760   16.3410   35.2870 C.3       6 GLP5        0.0000 
     73 CA         14.8507   13.3865   34.0468 C.3       3 GLC5        0.0000 
     74 CA         17.1540   13.8090   33.8170 C.3       9 GLL5        0.0000 
     75 CA         13.0360   13.0430   33.7830 C.3       6 GLP5        0.0000 
     76 CA         18.7895   10.0735   35.6292 C.3       3 GLC5        0.0000 
     77 CA         17.5520   12.0490   35.9870 C.3       9 GLL5        0.0000 
     78 CA         18.7398   13.4962   36.3661 C.3       3 GLC5        0.0000 
     79 CA         16.3570   12.7720   35.8920 C.3       9 GLL5        0.0000 
     80 CA         20.2780   14.5440   37.0360 C.3       6 GLP5        0.0000 
     81 CA         14.4565   12.8705   35.0775 C.3       3 GLC5        0.0000 
     82 CA         16.3792   10.8172   35.4531 C.3       3 GLC5        0.0000 
     83 CA         15.5570    9.1860   35.2100 C.3       6 GLP5        0.0000 
     84 CA         16.1871   13.9406   37.5069 C.3       3 GLC5        0.0000 
     85 CA         16.2210   15.2540   38.7540 C.3       6 GLP5        0.0000 
@<TRIPOS>BOND
@<TRIPOS>SUBSTRUCTURE
     1 ALC1       26 GROUP        1 X    ALC  0     ROOT ALC X 1
     2 SEC2       29 GROUP        1 X    SEC  0     **** SEC X 2
     3 GLC5        1 GROUP        1 X    GLC  0     **** GLC X 6
     4 ALP1       28 GROUP        1 Y    ALP  0     ROOT ALP Y 8
     5 SEP2       31 GROUP        1 Y    SEP  0     **** SEP Y 9
     6 GLP5        3 GROUP        1 Y    GLP  0     **** GLP Y 13
     7 ALL1       27 GROUP        1 Z    ALL  0     ROOT ALL Z 15
     8 SEL2       30 GROUP        1 Z    SEL  0     **** SEL Z 16
     9 GLL5        2 GROUP        1 Z    GLL  0     **** GLL Z 20
@<TRIPOS>SET

