#    Name: 2exc_JNK_1_ligand
#    Modification time : Tue Mar 25 12:12:42 2014

@<TRIPOS>MOLECULE
2exc_JNK_1_ligand
   56    59     1     0     0
SMALL
NO_CHARGES


@<TRIPOS>ATOM
      1 C1         20.3590    9.8190   31.7810 C.ar      1 JNK600      0.0000 
      2 C2         19.9760    8.3760   31.8640 C.ar      1 JNK600      0.0000 
      3 C3         19.6360   10.8230   32.4470 C.ar      1 JNK600      0.0000 
      4 C4         21.4360   10.2130   30.9710 C.ar      1 JNK600      0.0000 
      5 C5         20.9030    7.3940   31.5310 C.ar      1 JNK600      0.0000 
      6 C6         18.6770    7.9660   32.2180 C.ar      1 JNK600      0.0000 
      7 C7         20.0230   12.1580   32.2980 C.ar      1 JNK600      0.0000 
      8 C8         21.7610   11.5420   30.8620 C.ar      1 JNK600      0.0000 
      9 C9         20.5520    6.0600   31.5350 C.ar      1 JNK600      0.0000 
     10 C10        18.4010    6.6150   32.2430 C.ar      1 JNK600      0.0000 
     11 N11        19.3450   13.2130   32.9410 N.pl3     1 JNK600      0.0000 
     12 N12        21.0650   12.4520   31.5150 N.ar      1 JNK600      0.0000 
     13 N13        21.5330    5.0810   31.2990 N.am      1 JNK600      0.0000 
     14 N14        19.3330    5.7290   31.9260 N.ar      1 JNK600      0.0000 
     15 C15        18.3470   13.0670   33.9230 C.ar      1 JNK600      0.0000 
     16 C16        22.8080    5.3190   30.8290 C.2       1 JNK600      0.0000 
     17 C17        17.1540   13.8090   33.8170 C.ar      1 JNK600      0.0000 
     18 C18        18.5400   12.2010   35.0140 C.ar      1 JNK600      0.0000 
     19 C19        23.8450    4.2210   30.7520 C.3       1 JNK600      0.0000 
     20 O20        23.1790    6.4350   30.4870 O.2       1 JNK600      0.0000 
     21 C21        16.1770   13.6510   34.8040 C.ar      1 JNK600      0.0000 
     22 C22        17.5520   12.0490   35.9870 C.ar      1 JNK600      0.0000 
     23 C23        23.4200    2.9630   31.5270 C.3       1 JNK600      0.0000 
     24 C24        24.3940    3.8740   29.3590 C.3       1 JNK600      0.0000 
     25 C25        16.3570   12.7720   35.8920 C.ar      1 JNK600      0.0000 
     26 C26        24.6630    2.0830   31.7920 C.3       1 JNK600      0.0000 
     27 C27        25.5890    2.8940   29.6000 C.3       1 JNK600      0.0000 
     28 C28        25.9260    2.4670   30.9630 C.3       1 JNK600      0.0000 
     29 O29        26.7150    3.4670   31.6600 O.3       1 JNK600      0.0000 
     30 C30        28.1340    3.1990   31.6770 C.3       1 JNK600      0.0000 
     31 F31        15.3970   12.6240   36.8520 F         1 JNK600      0.0000 
     32 H          18.8379   10.5771   33.0321 H         1 JNK600      0.0000 
     33 H          21.9724    9.4954   30.4653 H         1 JNK600      0.0000 
     34 H          21.8679    7.6731   31.2775 H         1 JNK600      0.0000 
     35 H          17.9696    8.6581   32.4471 H         1 JNK600      0.0000 
     36 H          22.5675   11.8092   30.2530 H         1 JNK600      0.0000 
     37 H          17.4385    6.3115   32.5184 H         1 JNK600      0.0000 
     38 H          19.6102   14.2027   32.6603 H         1 JNK600      0.0000 
     39 H          21.2578    4.0703   31.5041 H         1 JNK600      0.0000 
     40 H          17.0119   14.4435   33.0384 H         1 JNK600      0.0000 
     41 H          19.4225   11.6752   35.0911 H         1 JNK600      0.0000 
     42 H          24.7568    4.6107   31.3418 H         1 JNK600      0.0000 
     43 H          15.2954   14.1916   34.7394 H         1 JNK600      0.0000 
     44 H          17.6992   11.4070   36.7742 H         1 JNK600      0.0000 
     45 H          22.7086    2.4025   30.9404 H         1 JNK600      0.0000 
     46 H          22.9839    3.2523   32.4707 H         1 JNK600      0.0000 
     47 H          24.7591    4.7521   28.8825 H         1 JNK600      0.0000 
     48 H          23.6484    3.3746   28.7880 H         1 JNK600      0.0000 
     49 H          24.4102    1.0338   31.5739 H         1 JNK600      0.0000 
     50 H          24.9189    2.1400   32.8614 H         1 JNK600      0.0000 
     51 H          26.4934    3.3682   29.1079 H         1 JNK600      0.0000 
     52 H          25.3938    1.9879   28.9473 H         1 JNK600      0.0000 
     53 H          26.5290    1.5315   30.8956 H         1 JNK600      0.0000 
     54 H          28.5144    3.1534   30.7533 H         1 JNK600      0.0000 
     55 H          28.6401    3.9083   32.1677 H         1 JNK600      0.0000 
     56 H          28.3422    2.3286   32.1231 H         1 JNK600      0.0000 
@<TRIPOS>BOND
     1    2    1 1    
     2    3    1 ar   
     3    4    1 ar   
     4    5    2 ar   
     5    6    2 ar   
     6    7    3 ar   
     7   32    3 1    
     8    8    4 ar   
     9   33    4 1    
    10    9    5 ar   
    11   34    5 1    
    12   10    6 ar   
    13   35    6 1    
    14   11    7 1    
    15   12    7 ar   
    16   12    8 ar   
    17   36    8 1    
    18   13    9 1    
    19   14    9 ar   
    20   14   10 ar   
    21   37   10 1    
    22   15   11 1    
    23   38   11 1    
    24   16   13 am   
    25   39   13 1    
    26   17   15 ar   
    27   18   15 ar   
    28   19   16 1    
    29   20   16 2    
    30   21   17 ar   
    31   40   17 1    
    32   22   18 ar   
    33   41   18 1    
    34   23   19 1    
    35   24   19 1    
    36   42   19 1    
    37   25   21 ar   
    38   43   21 1    
    39   25   22 ar   
    40   44   22 1    
    41   26   23 1    
    42   45   23 1    
    43   46   23 1    
    44   27   24 1    
    45   47   24 1    
    46   48   24 1    
    47   31   25 1    
    48   28   26 1    
    49   49   26 1    
    50   50   26 1    
    51   28   27 1    
    52   51   27 1    
    53   52   27 1    
    54   29   28 1    
    55   53   28 1    
    56   30   29 1    
    57   54   30 1    
    58   55   30 1    
    59   56   30 1    
@<TRIPOS>SUBSTRUCTURE
     1 JNK600      1 GROUP   
@<TRIPOS>SET

