#    Name: 3ebl_GA4_3_INTS_M
#    Modification time : Tue Mar 25 01:24:26 2014

@<TRIPOS>MOLECULE
3ebl_GA4_3_INTS_M
   50     0     9     0     0
SMALL
NO_CHARGES


@<TRIPOS>ATOM
      1 CA         -0.1655   54.6090  -17.7520 C.3       3 GLC5        0.0000 
      2 CA         -1.7980   54.3180  -17.4340 C.3       9 GLL5        0.0000 
      3 CA          1.4670   54.9000  -18.0700 C.3       6 GLP5        0.0000 
      4 CA         -1.0510   55.1105  -15.5880 C.3       3 GLC5        0.0000 
      5 CA         -0.3040   55.9030  -13.7420 C.3       6 GLP5        0.0000 
      6 CA         -1.9135   53.4190  -20.1115 C.3       3 GLC5        0.0000 
      7 CA         -2.3760   55.0380  -18.6760 C.3       9 GLL5        0.0000 
      8 CA         -1.4510   51.8000  -21.5470 C.3       6 GLP5        0.0000 
      9 CA         -0.4995   54.8875  -19.0610 C.3       3 GLC5        0.0000 
     10 CA          1.3770   54.7370  -19.4460 C.3       6 GLP5        0.0000 
     11 CA         -4.9330   57.3000  -19.0355 C.3       3 GLC5        0.0000 
     12 CA         -3.8690   55.4630  -18.5720 C.3       9 GLL5        0.0000 
     13 CA         -5.9970   59.1370  -19.4990 C.3       6 GLP5        0.0000 
     14 O          -5.0600   57.3290  -18.3155 O.2       1 ALC1        0.0000 
     15 O          -3.9550   56.6950  -17.8400 O.2       7 ALL1        0.0000 
     16 O          -6.1650   57.9630  -18.7910 O.2       4 ALP1        0.0000 
     17 N          -6.2050   56.2860  -14.5525 N.am      2 SEC2        0.0000 
     18 N          -5.8960   54.8340  -14.3230 N.am      8 SEL2        0.0000 
     19 N          -6.5140   57.7380  -14.7820 N.am      5 SEP2        0.0000 
     20 N          -6.2370   54.4690  -12.9765 N.am      2 SEC2        0.0000 
     21 N          -6.5780   54.1040  -11.6300 N.am      5 SEP2        0.0000 
     22 N          -7.9930   54.0025  -14.4560 N.am      2 SEC2        0.0000 
     23 N          -6.9960   52.9610  -14.5660 N.am      8 SEL2        0.0000 
     24 N          -8.9900   55.0440  -14.3460 N.am      5 SEP2        0.0000 
     25 CA         -1.3830   54.2340  -14.6790 C.3       3 GLC5        0.0000 
     26 CA         -2.4620   52.5650  -15.6160 C.3       9 GLL5        0.0000 
     27 CA         -1.2655   50.5020  -17.4920 C.3       3 GLC5        0.0000 
     28 CA         -1.7110   51.2330  -15.8170 C.3       9 GLL5        0.0000 
     29 CA         -0.8200   49.7710  -19.1670 C.3       6 GLP5        0.0000 
     30 CA         -0.0195   52.4765  -16.4915 C.3       3 GLC5        0.0000 
     31 CA          1.6720   53.7200  -17.1660 C.3       6 GLP5        0.0000 
     32 CA          0.5820   50.4745  -14.4730 C.3       3 GLC5        0.0000 
     33 CA         -1.4890   50.4770  -14.4860 C.3       9 GLL5        0.0000 
     34 CA          2.6530   50.4720  -14.4600 C.3       6 GLP5        0.0000 
     35 CA         -7.8825   55.0005  -16.7755 C.3       3 GLC5        0.0000 
     36 CA         -6.2480   54.7470  -17.8910 C.3       9 GLL5        0.0000 
     37 CA         -9.5170   55.2540  -15.6600 C.3       6 GLP5        0.0000 
     38 CA         -2.7723   56.7843  -19.6430 C.3       3 GLC5        0.0000 
     39 CA         -2.4220   58.3180  -20.6620 C.3       6 GLP5        0.0000 
     40 CA         -3.6302   55.4022  -20.5705 C.3       3 GLC5        0.0000 
     41 CA         -4.1380   55.5540  -22.5170 C.3       6 GLP5        0.0000 
     42 CA         -4.2085   49.0805  -14.4147 C.3       3 GLC5        0.0000 
     43 CA         -3.9600   50.8980  -14.4890 C.3       9 GLL5        0.0000 
     44 CA         -5.0490   47.4410  -14.7830 C.3       6 GLP5        0.0000 
     45 CA         -2.9295   52.3748  -10.4133 C.3       3 GLC5        0.0000 
     46 CA         -2.7280   51.7800  -12.7720 C.3       9 GLL5        0.0000 
     47 CA         -3.4530   52.9500   -8.6300 C.3       6 GLP5        0.0000 
     48 CA         -1.2211   53.5195  -12.5920 C.3       3 GLC5        0.0000 
     49 CA         -2.0840   51.8190  -11.6210 C.3       9 GLL5        0.0000 
     50 CA          0.1470   54.9460  -12.8390 C.3       6 GLP5        0.0000 
@<TRIPOS>BOND
@<TRIPOS>SUBSTRUCTURE
     1 ALC1       14 GROUP        1 X    ALC  0     ROOT ALC X 1
     2 SEC2       17 GROUP        1 X    SEC  0     **** SEC X 2
     3 GLC5        1 GROUP        1 X    GLC  0     **** GLC X 6
     4 ALP1       16 GROUP        1 Y    ALP  0     ROOT ALP Y 8
     5 SEP2       19 GROUP        1 Y    SEP  0     **** SEP Y 9
     6 GLP5        3 GROUP        1 Y    GLP  0     **** GLP Y 13
     7 ALL1       15 GROUP        1 Z    ALL  0     ROOT ALL Z 15
     8 SEL2       18 GROUP        1 Z    SEL  0     **** SEL Z 16
     9 GLL5        2 GROUP        1 Z    GLL  0     **** GLL Z 20
@<TRIPOS>SET

