#    Name: 3ebl_GA4_3_ligand
#    Modification time : Tue Mar 25 01:24:26 2014

@<TRIPOS>MOLECULE
3ebl_GA4_3_ligand
   45    49     1     0     0
SMALL
NO_CHARGES


@<TRIPOS>ATOM
      1 C1         -1.7980   54.3180  -17.4340 C.3       1 GA4401      0.0000 
      2 C2         -2.3760   55.0380  -18.6760 C.3       1 GA4401      0.0000 
      3 C3         -3.8690   55.4630  -18.5720 C.3       1 GA4401      0.0000 
      4 O31        -3.9550   56.6950  -17.8400 O.3       1 GA4401      0.0000 
      5 C4         -4.7350   54.3840  -17.8920 C.3       1 GA4401      0.0000 
      6 C5         -4.1330   54.0860  -16.5130 C.3       1 GA4401      0.0000 
      7 C6         -4.8470   53.0910  -15.5740 C.3       1 GA4401      0.0000 
      8 C7         -5.9890   53.6800  -14.7730 C.2       1 GA4401      0.0000 
      9 O71        -5.8960   54.8340  -14.3230 O.co2     1 GA4401      0.0000 
     10 O72        -6.9960   52.9610  -14.5660 O.co2     1 GA4401      0.0000 
     11 C8         -3.7520   52.3960  -14.7570 C.3       1 GA4401      0.0000 
     12 C9         -2.4620   52.5650  -15.6160 C.3       1 GA4401      0.0000 
     13 C10        -2.8580   53.3290  -16.8710 C.3       1 GA4401      0.0000 
     14 C11        -1.7110   51.2330  -15.8170 C.3       1 GA4401      0.0000 
     15 C12        -1.4890   50.4770  -14.4860 C.3       1 GA4401      0.0000 
     16 C13        -2.7760   50.5420  -13.6040 C.3       1 GA4401      0.0000 
     17 C14        -3.9600   50.8980  -14.4890 C.3       1 GA4401      0.0000 
     18 C15        -3.4610   52.9540  -13.3660 C.3       1 GA4401      0.0000 
     19 C16        -2.7280   51.7800  -12.7720 C.2       1 GA4401      0.0000 
     20 C17        -2.0840   51.8190  -11.6210 C.2       1 GA4401      0.0000 
     21 C18        -6.2480   54.7470  -17.8910 C.3       1 GA4401      0.0000 
     22 C19        -4.4370   53.0820  -18.5800 C.2       1 GA4401      0.0000 
     23 O91        -5.0060   52.5940  -19.5390 O.2       1 GA4401      0.0000 
     24 O92        -3.3300   52.4700  -17.9430 O.3       1 GA4401      0.0000 
     25 H          -1.5602   55.0470  -16.6771 H         1 GA4401      0.0000 
     26 H          -0.9179   53.7655  -17.7189 H         1 GA4401      0.0000 
     27 H          -2.2620   54.3773  -19.5538 H         1 GA4401      0.0000 
     28 H          -1.7702   55.9394  -18.8771 H         1 GA4401      0.0000 
     29 H          -4.2372   55.5983  -19.5856 H         1 GA4401      0.0000 
     30 H          -3.8506   54.9538  -16.0123 H         1 GA4401      0.0000 
     31 H          -5.2646   52.2981  -16.2528 H         1 GA4401      0.0000 
     32 H          -1.8064   53.2408  -15.0159 H         1 GA4401      0.0000 
     33 H          -0.7408   51.4361  -16.2742 H         1 GA4401      0.0000 
     34 H          -2.2865   50.5976  -16.4926 H         1 GA4401      0.0000 
     35 H          -0.6726   50.9345  -13.9452 H         1 GA4401      0.0000 
     36 H          -1.2620   49.4411  -14.6951 H         1 GA4401      0.0000 
     37 H          -2.9397   49.7152  -13.0699 H         1 GA4401      0.0000 
     38 H          -3.9070   50.3651  -15.4004 H         1 GA4401      0.0000 
     39 H          -4.8650   50.7555  -13.9617 H         1 GA4401      0.0000 
     40 H          -4.3611   53.1212  -12.8572 H         1 GA4401      0.0000 
     41 H          -2.8256   53.7830  -13.4439 H         1 GA4401      0.0000 
     42 H          -6.4246   55.6016  -17.4027 H         1 GA4401      0.0000 
     43 H          -6.6033   54.8608  -18.8188 H         1 GA4401      0.0000 
     44 H          -6.7996   54.0385  -17.4507 H         1 GA4401      0.0000 
     45 H          -4.7595   57.1599  -18.2096 H         1 GA4401      0.0000 
@<TRIPOS>BOND
     1    2    1 1    
     2   13    1 1    
     3   25    1 1    
     4   26    1 1    
     5    3    2 1    
     6   27    2 1    
     7   28    2 1    
     8    4    3 1    
     9    5    3 1    
    10   29    3 1    
    11   45    4 1    
    12    6    5 1    
    13   21    5 1    
    14   22    5 1    
    15    7    6 1    
    16   13    6 1    
    17   30    6 1    
    18    8    7 1    
    19   11    7 1    
    20   31    7 1    
    21    9    8 ar   
    22   10    8 ar   
    23   12   11 1    
    24   17   11 1    
    25   18   11 1    
    26   13   12 1    
    27   14   12 1    
    28   32   12 1    
    29   24   13 1    
    30   15   14 1    
    31   33   14 1    
    32   34   14 1    
    33   16   15 1    
    34   35   15 1    
    35   36   15 1    
    36   17   16 1    
    37   19   16 1    
    38   37   16 1    
    39   38   17 1    
    40   39   17 1    
    41   19   18 1    
    42   40   18 1    
    43   41   18 1    
    44   20   19 2    
    45   42   21 1    
    46   43   21 1    
    47   44   21 1    
    48   23   22 2    
    49   24   22 1    
@<TRIPOS>SUBSTRUCTURE
     1 GA4401      1 GROUP   
@<TRIPOS>SET

