#    Name: 3zo1_SIJ_1_INTS_M
#    Modification time : Tue Mar 25 03:44:26 2014

@<TRIPOS>MOLECULE
3zo1_SIJ_1_INTS_M
   50     0    12     0     0
SMALL
NO_CHARGES


@<TRIPOS>ATOM
      1 O         -34.7640  -10.2865   -1.7320 O.2       1 ALC1        0.0000 
      2 O         -33.4020  -10.1150   -1.8520 O.2       9 ALL1        0.0000 
      3 O         -36.1260  -10.4580   -1.6120 O.2       5 ALP1        0.0000 
      4 CA        -34.9015  -10.7600   -3.6235 C.3       4 GLC5        0.0000 
      5 CA        -32.8440  -10.1360   -3.0970 C.3      12 GLL5        0.0000 
      6 CA        -36.9590  -11.3840   -4.1500 C.3       8 GLP5        0.0000 
      7 CA        -34.3875   -8.5630   -3.1585 C.3       4 GLC5        0.0000 
      8 CA        -35.9310   -6.9900   -3.2200 C.3       8 GLP5        0.0000 
      9 N         -34.8515   -9.6210   -4.6365 N.am      2 SEC2        0.0000 
     10 N         -33.4770  -10.0450   -4.2810 N.am     10 SEL2        0.0000 
     11 N         -36.2260   -9.1970   -4.9920 N.am      6 SEP2        0.0000 
     12 CA        -32.2400  -11.8875   -5.9875 C.3       4 GLC5        0.0000 
     13 CA        -32.6710  -10.0780   -5.3450 C.3      12 GLL5        0.0000 
     14 CA        -31.8090  -13.6970   -6.6300 C.3       8 GLP5        0.0000 
     15 CA        -32.9750  -11.7455   -4.0975 C.3       4 GLC5        0.0000 
     16 CA        -33.2790  -13.4130   -2.8500 C.3       8 GLP5        0.0000 
     17 CA        -34.5205   -8.9640   -5.4530 C.3       4 GLC5        0.0000 
     18 CA        -36.3700   -7.8500   -5.5610 C.3       8 GLP5        0.0000 
     19 CA        -32.3095   -8.4560   -4.6190 C.3       4 GLC5        0.0000 
     20 CA        -31.9480   -6.8340   -3.8930 C.3       8 GLP5        0.0000 
     21 CA        -31.1055   -8.4110   -1.8385 C.3       4 GLC5        0.0000 
     22 CA        -31.4760  -10.2820   -2.8980 C.3      12 GLL5        0.0000 
     23 CA        -30.7350   -6.5400   -0.7790 C.3       8 GLP5        0.0000 
     24 CA        -31.2910  -11.9940   -5.3925 C.3       4 GLC5        0.0000 
     25 CA        -30.7730  -10.2910   -4.1550 C.3      12 GLL5        0.0000 
     26 CA        -28.8800  -12.1790   -2.9270 C.3       4 GLC5        0.0000 
     27 CA        -28.4850  -10.4360   -3.0410 C.3      12 GLL5        0.0000 
     28 CA        -29.2750  -13.9220   -2.8130 C.3       8 GLP5        0.0000 
     29 CA        -28.5795   -7.8760   -1.4115 C.3       4 GLC5        0.0000 
     30 CA        -27.6170   -9.1900   -2.9510 C.3      12 GLL5        0.0000 
     31 CA        -29.5420   -6.5620    0.1280 C.3       8 GLP5        0.0000 
     32 CA        -27.4110   -7.2430   -6.3745 C.3       4 GLC5        0.0000 
     33 CA        -27.7000   -9.0460   -5.4020 C.3      12 GLL5        0.0000 
     34 CA        -27.1220   -5.4400   -7.3470 C.3       8 GLP5        0.0000 
     35 CA        -29.1480   -7.5375   -5.5865 C.3       4 GLC5        0.0000 
     36 CA        -30.5960   -6.0290   -5.7710 C.3       8 GLP5        0.0000 
     37 CA        -29.0275  -11.8310   -6.4725 C.3       4 GLC5        0.0000 
     38 CA        -28.6120  -10.2670   -5.4650 C.3      12 GLL5        0.0000 
     39 CA        -29.4430  -13.3950   -7.4800 C.3       8 GLP5        0.0000 
     40 OD1       -25.7555   -7.2995   -5.5060 O.co2     3 ASC3        0.0000 
     41 OD1       -26.1230   -7.6110   -4.2100 O.co2    11 ASL3        0.0000 
     42 OD1       -25.3880   -6.9880   -6.8020 O.co2     7 ASP3        0.0000 
     43 CA        -25.2710  -11.5425   -5.5255 C.3       4 GLC5        0.0000 
     44 CA        -25.6220  -10.0610   -4.3490 C.3      12 GLL5        0.0000 
     45 CA        -24.9200  -13.0240   -6.7020 C.3       8 GLP5        0.0000 
     46 CA        -30.1998  -12.1043   -3.1698 C.3       4 GLC5        0.0000 
     47 CA        -32.3727  -11.8315   -3.2131 C.3       4 GLC5        0.0000 
     48 CA        -31.7073   -8.5420   -3.7346 C.3       4 GLC5        0.0000 
     49 CA        -29.3100   -9.2828   -6.9518 C.3       4 GLC5        0.0000 
     50 CA        -30.4640   -8.9090   -8.4700 C.3       8 GLP5        0.0000 
@<TRIPOS>BOND
@<TRIPOS>SUBSTRUCTURE
     1 ALC1        1 GROUP        1 X    ALC  0     ROOT ALC X 1
     2 SEC2        9 GROUP        1 X    SEC  0     **** SEC X 2
     3 ASC3       40 GROUP        1 X    ASC  0     **** ASC X 3
     4 GLC5        4 GROUP        1 X    GLC  0     **** GLC X 6
     5 ALP1        3 GROUP        1 Y    ALP  0     ROOT ALP Y 8
     6 SEP2       11 GROUP        1 Y    SEP  0     **** SEP Y 9
     7 ASP3       42 GROUP        1 Y    ASP  0     **** ASP Y 10
     8 GLP5        6 GROUP        1 Y    GLP  0     **** GLP Y 13
     9 ALL1        2 GROUP        1 Z    ALL  0     ROOT ALL Z 15
    10 SEL2       10 GROUP        1 Z    SEL  0     **** SEL Z 16
    11 ASL3       41 GROUP        1 Z    ASL  0     **** ASL Z 17
    12 GLL5        5 GROUP        1 Z    GLL  0     **** GLL Z 20
@<TRIPOS>SET

