#    Name: 3zo1_SIJ_1_ligand
#    Modification time : Tue Mar 25 03:44:26 2014

@<TRIPOS>MOLECULE
3zo1_SIJ_1_ligand
   39    42     1     0     0
SMALL
NO_CHARGES


@<TRIPOS>ATOM
      1 C12       -32.3810  -10.2550   -0.9710 C.2       1 SIJ1351     0.0000 
      2 N3        -31.1970  -10.3640   -1.5410 N.2       1 SIJ1351     0.0000 
      3 N4        -33.4020  -10.1150   -1.8520 N.pl3     1 SIJ1351     0.0000 
      4 C13       -32.8440  -10.1360   -3.0970 C.ar      1 SIJ1351     0.0000 
      5 N5        -33.4770  -10.0450   -4.2810 N.ar      1 SIJ1351     0.0000 
      6 C         -32.6710  -10.0780   -5.3450 C.ar      1 SIJ1351     0.0000 
      7 C11       -31.4760  -10.2820   -2.8980 C.ar      1 SIJ1351     0.0000 
      8 C1        -30.7730  -10.2910   -4.1550 C.ar      1 SIJ1351     0.0000 
      9 N         -31.3390  -10.1800   -5.3810 N.ar      1 SIJ1351     0.0000 
     10 N1        -29.3670  -10.4550   -4.2170 N.3       1 SIJ1351     0.0000 
     11 C10       -28.4850  -10.4360   -3.0410 C.3       1 SIJ1351     0.0000 
     12 C9        -27.6170   -9.1900   -2.9510 C.3       1 SIJ1351     0.0000 
     13 C4        -26.7390   -9.0050   -4.2000 C.3       1 SIJ1351     0.0000 
     14 C3        -27.7000   -9.0460   -5.4020 C.3       1 SIJ1351     0.0000 
     15 C2        -28.6120  -10.2670   -5.4650 C.3       1 SIJ1351     0.0000 
     16 N2        -26.1230   -7.6110   -4.2100 N.4       1 SIJ1351     0.0000 
     17 C8        -25.0080   -7.3980   -3.2730 C.3       1 SIJ1351     0.0000 
     18 C7        -23.9120   -8.4190   -3.4770 C.3       1 SIJ1351     0.0000 
     19 C6        -24.4450   -9.8430   -3.3920 C.3       1 SIJ1351     0.0000 
     20 C5        -25.6220  -10.0610   -4.3490 C.3       1 SIJ1351     0.0000 
     21 H         -32.5330  -10.2719    0.0225 H         1 SIJ1351     0.0000 
     22 H         -34.3241  -10.0207   -1.6484 H         1 SIJ1351     0.0000 
     23 H         -33.1726  -10.0121   -6.3287 H         1 SIJ1351     0.0000 
     24 H         -27.8190  -11.3214   -3.0479 H         1 SIJ1351     0.0000 
     25 H         -29.0845  -10.5074   -2.1120 H         1 SIJ1351     0.0000 
     26 H         -26.9693   -9.2600   -2.0723 H         1 SIJ1351     0.0000 
     27 H         -28.2551   -8.3091   -2.8354 H         1 SIJ1351     0.0000 
     28 H         -27.1007   -8.9953   -6.3316 H         1 SIJ1351     0.0000 
     29 H         -28.3232   -8.1310   -5.3837 H         1 SIJ1351     0.0000 
     30 H         -29.2994  -10.1408   -6.3151 H         1 SIJ1351     0.0000 
     31 H         -27.9913  -11.1509   -5.6759 H         1 SIJ1351     0.0000 
     32 H         -25.3642   -7.4664   -2.2351 H         1 SIJ1351     0.0000 
     33 H         -24.5829   -6.3932   -3.4089 H         1 SIJ1351     0.0000 
     34 H         -23.1384   -8.2813   -2.7145 H         1 SIJ1351     0.0000 
     35 H         -23.4510   -8.2684   -4.4587 H         1 SIJ1351     0.0000 
     36 H         -24.7746  -10.0463   -2.3712 H         1 SIJ1351     0.0000 
     37 H         -23.6472  -10.5442   -3.6444 H         1 SIJ1351     0.0000 
     38 H         -25.2538  -10.0396   -5.3830 H         1 SIJ1351     0.0000 
     39 H         -26.0520  -11.0551   -4.1699 H         1 SIJ1351     0.0000 
@<TRIPOS>BOND
     1    2    1 2    
     2    3    1 1    
     3   21    1 1    
     4    7    2 1    
     5    4    3 1    
     6   22    3 1    
     7    5    4 ar   
     8    7    4 ar   
     9    6    5 ar   
    10    9    6 ar   
    11   23    6 1    
    12    8    7 ar   
    13    9    8 ar   
    14   10    8 1    
    15   11   10 1    
    16   15   10 1    
    17   12   11 1    
    18   24   11 1    
    19   25   11 1    
    20   13   12 1    
    21   26   12 1    
    22   27   12 1    
    23   14   13 1    
    24   16   13 1    
    25   20   13 1    
    26   15   14 1    
    27   28   14 1    
    28   29   14 1    
    29   30   15 1    
    30   31   15 1    
    31   17   16 1    
    32   18   17 1    
    33   32   17 1    
    34   33   17 1    
    35   19   18 1    
    36   34   18 1    
    37   35   18 1    
    38   20   19 1    
    39   36   19 1    
    40   37   19 1    
    41   38   20 1    
    42   39   20 1    
@<TRIPOS>SUBSTRUCTURE
     1 SIJ1351     1 GROUP   
@<TRIPOS>SET

