#    Name: 3zo2_15I_1_INTS_M
#    Modification time : Tue Mar 25 03:44:40 2014

@<TRIPOS>MOLECULE
3zo2_15I_1_INTS_M
   62     0    12     0     0
SMALL
NO_CHARGES


@<TRIPOS>ATOM
      1 O         -34.8105  -10.0950   -1.7045 O.2       1 ALC1        0.0000 
      2 O         -33.4480   -9.8690   -1.8130 O.2       9 ALL1        0.0000 
      3 O         -36.1730  -10.3210   -1.5960 O.2       5 ALP1        0.0000 
      4 CA        -34.8735  -10.5120   -3.6120 C.3       4 GLC5        0.0000 
      5 CA        -32.8200   -9.8900   -3.0260 C.3      12 GLL5        0.0000 
      6 CA        -36.9270  -11.1340   -4.1980 C.3       8 GLP5        0.0000 
      7 CA        -34.2325   -8.3375   -3.1140 C.3       4 GLC5        0.0000 
      8 CA        -35.6450   -6.7850   -3.2020 C.3       8 GLP5        0.0000 
      9 N         -34.7705   -9.4015   -4.6365 N.am      2 SEC2        0.0000 
     10 N         -33.3930   -9.8590   -4.2450 N.am     10 SEL2        0.0000 
     11 N         -36.1480   -8.9440   -5.0280 N.am      6 SEP2        0.0000 
     12 CA        -32.2545  -11.6795   -5.9830 C.3       4 GLC5        0.0000 
     13 CA        -32.5330   -9.9900   -5.2580 C.3      12 GLL5        0.0000 
     14 CA        -31.9760  -13.3690   -6.7080 C.3       8 GLP5        0.0000 
     15 CA        -32.9420  -11.5910   -4.0675 C.3       4 GLC5        0.0000 
     16 CA        -33.3510  -13.1920   -2.8770 C.3       8 GLP5        0.0000 
     17 CA        -34.3865   -8.7855   -5.3990 C.3       4 GLC5        0.0000 
     18 CA        -36.2400   -7.5810   -5.5400 C.3       8 GLP5        0.0000 
     19 CA        -31.9940   -8.4240   -5.4205 C.3       4 GLC5        0.0000 
     20 CA        -31.4550   -6.8580   -5.5830 C.3       8 GLP5        0.0000 
     21 CA        -31.3405  -11.7490   -5.3310 C.3       4 GLC5        0.0000 
     22 CA        -30.7050  -10.1290   -3.9540 C.3      12 GLL5        0.0000 
     23 CA        -27.9240  -11.9270   -2.1570 C.3       4 GLC5        0.0000 
     24 CA        -28.4660  -10.3680   -2.7450 C.3      12 GLL5        0.0000 
     25 CA        -27.3820  -13.4860   -1.5690 C.3       8 GLP5        0.0000 
     26 CA        -28.9725   -7.7865   -1.5075 C.3       4 GLC5        0.0000 
     27 CA        -27.6480   -9.0870   -2.6500 C.3      12 GLL5        0.0000 
     28 CA        -30.2970   -6.4860   -0.3650 C.3       8 GLP5        0.0000 
     29 CA        -27.2870   -7.2890   -6.3645 C.3       4 GLC5        0.0000 
     30 CA        -27.5390   -9.0240   -5.1580 C.3      12 GLL5        0.0000 
     31 CA        -27.0350   -5.5540   -7.5710 C.3       8 GLP5        0.0000 
     32 CA        -28.6410   -7.2400   -4.8085 C.3       4 GLC5        0.0000 
     33 CA        -29.7430   -5.4560   -4.4590 C.3       8 GLP5        0.0000 
     34 CA        -29.0320  -11.6340   -6.3115 C.3       4 GLC5        0.0000 
     35 CA        -28.4810  -10.2190   -5.1660 C.3      12 GLL5        0.0000 
     36 CA        -29.5830  -13.0490   -7.4570 C.3       8 GLP5        0.0000 
     37 CA        -26.7945  -11.3795   -5.8865 C.3       4 GLC5        0.0000 
     38 CA        -25.1080  -12.5400   -6.6070 C.3       8 GLP5        0.0000 
     39 CA        -28.2935  -12.1150   -3.9960 C.3       4 GLC5        0.0000 
     40 CA        -28.1060  -14.0110   -2.8260 C.3       8 GLP5        0.0000 
     41 CA        -26.6190   -6.4625   -5.6955 C.3       4 GLC5        0.0000 
     42 CA        -26.2030   -7.3710   -3.8200 C.3      12 GLL5        0.0000 
     43 CA        -27.9730   -6.4135   -4.1395 C.3       4 GLC5        0.0000 
     44 OD1       -25.9400   -6.7475   -1.5340 O.co2     3 ASC3        0.0000 
     45 OD1       -25.2100   -7.1220   -2.7200 O.co2    11 ASL3        0.0000 
     46 OD1       -26.6700   -6.3730   -0.3480 O.co2     7 ASP3        0.0000 
     47 OD1       -25.2290   -7.4840   -1.1755 O.co2     3 ASC3        0.0000 
     48 OD1       -25.2480   -7.8460    0.3690 O.co2     7 ASP3        0.0000 
     49 CA        -24.0570  -10.9680   -1.7050 C.3       4 GLC5        0.0000 
     50 CA        -24.4610   -9.4890   -2.7830 C.3      12 GLL5        0.0000 
     51 CA        -23.6530  -12.4470   -0.6270 C.3       8 GLP5        0.0000 
     52 CA        -25.3015  -11.1710   -5.2380 C.3       4 GLC5        0.0000 
     53 CA        -25.4950   -9.8020   -3.8690 C.3      12 GLL5        0.0000 
     54 CA        -31.8738   -8.1325   -2.0130 C.3       4 GLC5        0.0000 
     55 CA        -31.6050   -6.3180   -1.1380 C.3       8 GLP5        0.0000 
     56 CA        -30.3555  -11.9512   -3.0180 C.3       4 GLC5        0.0000 
     57 CA        -31.4650  -10.0040   -2.7500 C.3      12 GLL5        0.0000 
     58 CA        -29.6260  -13.8360   -2.6840 C.3       8 GLP5        0.0000 
     59 CA        -32.3874  -11.6150   -3.1490 C.3       4 GLC5        0.0000 
     60 CA        -31.4394   -8.4480   -4.5020 C.3       4 GLC5        0.0000 
     61 CA        -29.2440   -9.2617   -6.8500 C.3       4 GLC5        0.0000 
     62 CA        -30.4780   -8.9020   -8.5380 C.3       8 GLP5        0.0000 
@<TRIPOS>BOND
@<TRIPOS>SUBSTRUCTURE
     1 ALC1        1 GROUP        1 X    ALC  0     ROOT ALC X 1
     2 SEC2        9 GROUP        1 X    SEC  0     **** SEC X 2
     3 ASC3       44 GROUP        1 X    ASC  0     **** ASC X 3
     4 GLC5        4 GROUP        1 X    GLC  0     **** GLC X 6
     5 ALP1        3 GROUP        1 Y    ALP  0     ROOT ALP Y 8
     6 SEP2       11 GROUP        1 Y    SEP  0     **** SEP Y 9
     7 ASP3       46 GROUP        1 Y    ASP  0     **** ASP Y 10
     8 GLP5        6 GROUP        1 Y    GLP  0     **** GLP Y 13
     9 ALL1        2 GROUP        1 Z    ALL  0     ROOT ALL Z 15
    10 SEL2       10 GROUP        1 Z    SEL  0     **** SEL Z 16
    11 ASL3       45 GROUP        1 Z    ASL  0     **** ASL Z 17
    12 GLL5        5 GROUP        1 Z    GLL  0     **** GLL Z 20
@<TRIPOS>SET

