#    Name: 3zo2_15I_1_ligand
#    Modification time : Tue Mar 25 03:44:40 2014

@<TRIPOS>MOLECULE
3zo2_15I_1_ligand
   39    42     1     0     0
SMALL
NO_CHARGES


@<TRIPOS>ATOM
      1 C12       -32.4760   -9.9690   -0.8780 C.2       1 15I1351     0.0000 
      2 N3        -31.2570  -10.0290   -1.3780 N.2       1 15I1351     0.0000 
      3 N4        -33.4480   -9.8690   -1.8130 N.pl3     1 15I1351     0.0000 
      4 C13       -32.8200   -9.8900   -3.0260 C.ar      1 15I1351     0.0000 
      5 N5        -33.3930   -9.8590   -4.2450 N.ar      1 15I1351     0.0000 
      6 C         -32.5330   -9.9900   -5.2580 C.ar      1 15I1351     0.0000 
      7 C11       -31.4650  -10.0040   -2.7500 C.ar      1 15I1351     0.0000 
      8 C1        -30.7050  -10.1290   -3.9540 C.ar      1 15I1351     0.0000 
      9 N         -31.2060  -10.1350   -5.2110 N.ar      1 15I1351     0.0000 
     10 N1        -29.2990  -10.3130   -3.9500 N.3       1 15I1351     0.0000 
     11 C10       -28.4660  -10.3680   -2.7450 C.3       1 15I1351     0.0000 
     12 C9        -27.6480   -9.0870   -2.6500 C.3       1 15I1351     0.0000 
     13 C4        -26.7180   -8.8590   -3.8620 C.3       1 15I1351     0.0000 
     14 C3        -27.5390   -9.0240   -5.1580 C.3       1 15I1351     0.0000 
     15 C2        -28.4810  -10.2190   -5.1660 C.3       1 15I1351     0.0000 
     16 C8        -26.2030   -7.3710   -3.8200 C.3       1 15I1351     0.0000 
     17 N2        -25.2100   -7.1220   -2.7200 N.4       1 15I1351     0.0000 
     18 C7        -24.0180   -7.9840   -2.7520 C.3       1 15I1351     0.0000 
     19 C6        -24.4610   -9.4890   -2.7830 C.3       1 15I1351     0.0000 
     20 C5        -25.4950   -9.8020   -3.8690 C.3       1 15I1351     0.0000 
     21 H         -32.6823   -9.9940    0.1068 H         1 15I1351     0.0000 
     22 H         -34.3826   -9.7980   -1.6645 H         1 15I1351     0.0000 
     23 H         -32.9782   -9.9767   -6.2700 H         1 15I1351     0.0000 
     24 H         -27.7819  -11.2140   -2.7847 H         1 15I1351     0.0000 
     25 H         -29.0819  -10.4531   -1.8514 H         1 15I1351     0.0000 
     26 H         -27.0336   -9.1137   -1.7391 H         1 15I1351     0.0000 
     27 H         -28.3267   -8.2268   -2.5645 H         1 15I1351     0.0000 
     28 H         -26.8369   -9.1088   -6.0067 H         1 15I1351     0.0000 
     29 H         -28.1223   -8.1001   -5.3208 H         1 15I1351     0.0000 
     30 H         -29.1281  -10.1428   -6.0591 H         1 15I1351     0.0000 
     31 H         -27.8757  -11.1352   -5.2933 H         1 15I1351     0.0000 
     32 H         -27.0785   -6.7223   -3.6978 H         1 15I1351     0.0000 
     33 H         -25.7550   -7.1494   -4.7960 H         1 15I1351     0.0000 
     34 H         -23.4032   -7.8432   -1.8685 H         1 15I1351     0.0000 
     35 H         -23.4207   -7.8015   -3.6399 H         1 15I1351     0.0000 
     36 H         -24.8742   -9.7419   -1.7998 H         1 15I1351     0.0000 
     37 H         -23.5670  -10.1032   -2.9403 H         1 15I1351     0.0000 
     38 H         -25.0107   -9.7413   -4.8551 H         1 15I1351     0.0000 
     39 H         -25.8486  -10.8361   -3.7419 H         1 15I1351     0.0000 
@<TRIPOS>BOND
     1    2    1 2    
     2    3    1 1    
     3   21    1 1    
     4    7    2 1    
     5    4    3 1    
     6   22    3 1    
     7    5    4 ar   
     8    7    4 ar   
     9    6    5 ar   
    10    9    6 ar   
    11   23    6 1    
    12    8    7 ar   
    13    9    8 ar   
    14   10    8 1    
    15   11   10 1    
    16   15   10 1    
    17   12   11 1    
    18   24   11 1    
    19   25   11 1    
    20   13   12 1    
    21   26   12 1    
    22   27   12 1    
    23   14   13 1    
    24   16   13 1    
    25   20   13 1    
    26   15   14 1    
    27   28   14 1    
    28   29   14 1    
    29   30   15 1    
    30   31   15 1    
    31   17   16 1    
    32   32   16 1    
    33   33   16 1    
    34   18   17 1    
    35   19   18 1    
    36   34   18 1    
    37   35   18 1    
    38   20   19 1    
    39   36   19 1    
    40   37   19 1    
    41   38   20 1    
    42   39   20 1    
@<TRIPOS>SUBSTRUCTURE
     1 15I1351     1 GROUP   
@<TRIPOS>SET

