#    Name: 4l2o_1DD_3_INTS_M
#    Modification time : Mon Apr  7 23:52:16 2014

@<TRIPOS>MOLECULE
4l2o_1DD_3_INTS_M
   36     0     3     0     0
SMALL
NO_CHARGES


@<TRIPOS>ATOM
      1 CA        124.7005   -7.6125  -43.5650 C.3       1 GLC5        0.0000 
      2 CA        123.3590   -6.1390  -43.7910 C.3       3 GLL5        0.0000 
      3 CA        126.0420   -9.0860  -43.3390 C.3       2 GLP5        0.0000 
      4 CA        124.8045   -5.9185  -43.1035 C.3       1 GLC5        0.0000 
      5 CA        126.2500   -5.6980  -42.4160 C.3       2 GLP5        0.0000 
      6 CA        116.3965   -5.7100  -46.8080 C.3       1 GLC5        0.0000 
      7 CA        116.3810   -5.1900  -45.1150 C.3       3 GLL5        0.0000 
      8 CA        116.4120   -6.2300  -48.5010 C.3       2 GLP5        0.0000 
      9 CA        117.4380   -6.8820  -44.2980 C.3       1 GLC5        0.0000 
     10 CA        118.4950   -8.5740  -43.4810 C.3       2 GLP5        0.0000 
     11 CA        119.1155    0.4360  -44.2710 C.3       1 GLC5        0.0000 
     12 CA        118.4050   -1.1220  -42.9930 C.3       3 GLL5        0.0000 
     13 CA        119.8260    1.9940  -45.5490 C.3       2 GLP5        0.0000 
     14 CA        122.5627   -5.2607  -46.4728 C.3       1 GLC5        0.0000 
     15 CA        122.2790   -5.4380  -44.1730 C.3       3 GLL5        0.0000 
     16 CA        123.3750   -4.7570  -48.4620 C.3       2 GLP5        0.0000 
     17 CA        124.0170   -4.3765  -43.3942 C.3       1 GLC5        0.0000 
     18 CA        125.7850   -4.0000  -42.7290 C.3       2 GLP5        0.0000 
     19 CA        122.0462   -5.8633  -42.5270 C.3       1 GLC5        0.0000 
     20 CA        122.2190   -4.0680  -43.9460 C.3       3 GLL5        0.0000 
     21 CA        122.2220   -6.2170  -40.6750 C.3       2 GLP5        0.0000 
     22 CA        119.5793   -7.1517  -44.2360 C.3       1 GLC5        0.0000 
     23 CA        121.2220   -6.0910  -44.7940 C.3       3 GLL5        0.0000 
     24 CA        117.6887   -3.4748  -41.7725 C.3       1 GLC5        0.0000 
     25 CA        117.6290   -2.2170  -43.3400 C.3       3 GLL5        0.0000 
     26 CA        118.3430   -4.5510  -40.6050 C.3       2 GLP5        0.0000 
     27 CA        117.7618    1.1587  -42.6795 C.3       1 GLC5        0.0000 
     28 CA        117.3030    3.0680  -42.9240 C.3       2 GLP5        0.0000 
     29 CA        118.2818   -2.6507  -41.5200 C.3       1 GLC5        0.0000 
     30 CA        118.0360   -0.3790  -41.8770 C.3       3 GLL5        0.0000 
     31 CA        118.1342    0.0355  -39.9363 C.3       1 GLC5        0.0000 
     32 CA        118.7910    0.6180  -38.3770 C.3       2 GLP5        0.0000 
     33 CA        115.8255    0.2840  -42.0498 C.3       1 GLC5        0.0000 
     34 CA        116.9190   -0.7150  -41.1140 C.3       3 GLL5        0.0000 
     35 CA        115.1320    1.8290  -42.8250 C.3       2 GLP5        0.0000 
     36 CA        117.4310   -2.9060  -40.9397 C.3       1 GLC5        0.0000 
@<TRIPOS>BOND
@<TRIPOS>SUBSTRUCTURE
     1 GLC5        1 GROUP        1 X    GLC  0     ROOT GLC X 6
     2 GLP5        3 GROUP        1 Y    GLP  0     ROOT GLP Y 13
     3 GLL5        2 GROUP        1 Z    GLL  0     ROOT GLL Z 20
@<TRIPOS>SET

