#    Name: 4l2o_1DD_3_ligand
#    Modification time : Mon Apr  7 23:52:16 2014

@<TRIPOS>MOLECULE
4l2o_1DD_3_ligand
   31    33     1     0     0
SMALL
NO_CHARGES


@<TRIPOS>ATOM
      1 F20       123.3590   -6.1390  -43.7910 F         1 1DD504      0.0000 
      2 C17       122.2790   -5.4380  -44.1730 C.ar      1 1DD504      0.0000 
      3 C16       122.2190   -4.0680  -43.9460 C.ar      1 1DD504      0.0000 
      4 C15       121.0990   -3.3470  -44.3410 C.ar      1 1DD504      0.0000 
      5 C18       121.2220   -6.0910  -44.7940 C.ar      1 1DD504      0.0000 
      6 C19       120.1050   -5.3680  -45.1880 C.ar      1 1DD504      0.0000 
      7 C14       120.0410   -4.0000  -44.9630 C.ar      1 1DD504      0.0000 
      8 S10       118.7530   -3.1870  -45.4330 S.o2      1 1DD504      0.0000 
      9 O11       119.1430   -1.8440  -45.7640 O.2       1 1DD504      0.0000 
     10 O12       118.2090   -3.8270  -46.5970 O.2       1 1DD504      0.0000 
     11 N9        117.6410   -3.1450  -44.2830 N.pl3     1 1DD504      0.0000 
     12 C8        116.6420   -4.0280  -44.1990 C.2       1 1DD504      0.0000 
     13 C13       116.3810   -5.1900  -45.1150 C.3       1 1DD504      0.0000 
     14 N7        115.8980   -3.6820  -43.1150 N.2       1 1DD504      0.0000 
     15 C2        116.4400   -2.5800  -42.5400 C.ar      1 1DD504      0.0000 
     16 C3        117.6290   -2.2170  -43.3400 C.ar      1 1DD504      0.0000 
     17 C4        118.4050   -1.1220  -42.9930 C.ar      1 1DD504      0.0000 
     18 C5        118.0360   -0.3790  -41.8770 C.ar      1 1DD504      0.0000 
     19 C6        116.9190   -0.7150  -41.1140 C.ar      1 1DD504      0.0000 
     20 C1        116.1190   -1.8070  -41.4350 C.ar      1 1DD504      0.0000 
     21 H         123.0038   -3.5883  -43.4857 H         1 1DD504      0.0000 
     22 H         121.0524   -2.3346  -44.1742 H         1 1DD504      0.0000 
     23 H         121.2674   -7.1029  -44.9603 H         1 1DD504      0.0000 
     24 H         119.3187   -5.8494  -45.6502 H         1 1DD504      0.0000 
     25 H         119.2241   -0.8668  -43.5397 H         1 1DD504      0.0000 
     26 H         118.6052    0.4459  -41.6044 H         1 1DD504      0.0000 
     27 H         116.6790   -0.1354  -40.2860 H         1 1DD504      0.0000 
     28 H         115.3032   -2.0351  -40.8604 H         1 1DD504      0.0000 
     29 H         117.1441   -5.8363  -45.1217 H         1 1DD504      0.0000 
     30 H         115.5660   -5.7016  -44.8430 H         1 1DD504      0.0000 
     31 H         116.2394   -4.8938  -46.0596 H         1 1DD504      0.0000 
@<TRIPOS>BOND
     1    2    1 1    
     2    3    2 ar   
     3    5    2 ar   
     4    4    3 ar   
     5   21    3 1    
     6    7    4 ar   
     7   22    4 1    
     8    6    5 ar   
     9   23    5 1    
    10    7    6 ar   
    11   24    6 1    
    12    8    7 1    
    13    9    8 2    
    14   10    8 2    
    15   11    8 1    
    16   12   11 1    
    17   16   11 1    
    18   13   12 1    
    19   14   12 2    
    20   29   13 1    
    21   30   13 1    
    22   31   13 1    
    23   15   14 1    
    24   16   15 ar   
    25   20   15 ar   
    26   17   16 ar   
    27   18   17 ar   
    28   25   17 1    
    29   19   18 ar   
    30   26   18 1    
    31   20   19 ar   
    32   27   19 1    
    33   28   20 1    
@<TRIPOS>SUBSTRUCTURE
     1 1DD504      1 GROUP   
@<TRIPOS>SET

