#    Name: 4MTY_1_CAVITY_N1_6.mol2
#    Modification time : Tue Mar 11 15:36:07 2014

@<TRIPOS>MOLECULE
4MTY_1_CAVITY_N1_6.mol2
   78     0     6     0     0
SMALL
NO_CHARGES


@<TRIPOS>ATOM
      1 CA         -1.3785    7.4713   14.3822 C.3       5 GLY6        0.0000 
      2 N           1.0047    4.9243   11.9670 N.2       2 ALA2        0.0000 
      3 CZ         -3.5642    7.6371   15.7770 C.ar      4 PHE5        0.0000 
      4 CA         -1.2514    5.4011   14.8276 C.3       5 GLY6        0.0000 
      5 CA         -2.3726    6.3636   14.5694 C.3       5 GLY6        0.0000 
      6 CZ         -3.4937    7.3261   14.3113 C.ar      4 PHE5        0.0000 
      7 N          -1.1809    5.0901   13.3618 N.2       2 ALA2        0.0000 
      8 DU         -2.3021    6.0526   13.1037 H         6 CUB7        0.0000 
      9 CZ         -3.4232    7.0151   12.8456 C.ar      4 PHE5        0.0000 
     10 N           0.0107    3.8166   12.1543 N.2       2 ALA2        0.0000 
     11 N          -1.1105    4.7791   11.8961 N.2       2 ALA2        0.0000 
     12 DU         -3.3528    6.7041   11.3799 H         6 CUB7        0.0000 
     13 CZ          0.0811    3.5056   10.6886 C.ar      4 PHE5        0.0000 
     14 DU         -1.0400    4.4681   10.4304 H         6 CUB7        0.0000 
     15 CA          0.1516    3.1946    9.2228 C.3       5 GLY6        0.0000 
     16 CA         -4.5582    6.5295   15.9643 C.3       5 GLY6        0.0000 
     17 CA         -2.2454    4.2935   15.0148 C.3       5 GLY6        0.0000 
     18 CA         -3.3666    5.2560   14.7567 C.3       5 GLY6        0.0000 
     19 CZ         -4.4877    6.2185   14.4985 C.ar      4 PHE5        0.0000 
     20 OG         -2.1750    3.9825   13.5491 O.2       1 SER1        0.0000 
     21 DU         -3.2961    4.9450   13.2910 H         6 CUB7        0.0000 
     22 DU         -4.4172    5.9075   13.0328 H         6 CUB7        0.0000 
     23 CZ         -5.5384    6.8700   12.7747 C.ar      4 PHE5        0.0000 
     24 OG         -0.9833    2.7090   12.3415 O.2       1 SER1        0.0000 
     25 OG         -2.1045    3.6715   12.0834 O.2       1 SER1        0.0000 
     26 DU         -3.2256    4.6340   11.8252 H         6 CUB7        0.0000 
     27 O          -4.3468    5.5965   11.5671 O.2       2 ALA2        0.0000 
     28 O          -5.4679    6.5590   11.3090 O.2       2 ALA2        0.0000 
     29 CZ         -0.9129    2.3980   10.8758 C.ar      4 PHE5        0.0000 
     30 DU         -2.0340    3.3605   10.6177 H         6 CUB7        0.0000 
     31 O          -3.1552    4.3230   10.3595 O.2       2 ALA2        0.0000 
     32 N          -4.2763    5.2855   10.1014 N.2       2 ALA2        0.0000 
     33 CA         -0.8424    2.0870    9.4101 C.3       5 GLY6        0.0000 
     34 O          -1.9636    3.0495    9.1519 O.2       2 ALA2        0.0000 
     35 CA         -5.5522    5.4219   16.1515 C.3       5 GLY6        0.0000 
     36 CZ         -6.6733    6.3844   15.8934 C.ar      4 PHE5        0.0000 
     37 OG         -3.2394    3.1859   15.2020 O.2       1 SER1        0.0000 
     38 CA         -4.3606    4.1484   14.9439 C.3       5 GLY6        0.0000 
     39 CA         -5.4817    5.1109   14.6858 C.3       5 GLY6        0.0000 
     40 CZ         -6.6029    6.0734   14.4276 C.ar      4 PHE5        0.0000 
     41 OG         -3.1690    2.8749   13.7363 O.2       1 SER1        0.0000 
     42 DU         -4.2901    3.8374   13.4782 H         6 CUB7        0.0000 
     43 O          -5.4113    4.7999   13.2201 O.2       2 ALA2        0.0000 
     44 OG         -3.0985    2.5639   12.2706 O.2       1 SER1        0.0000 
     45 O          -4.2197    3.5264   12.0125 O.2       2 ALA2        0.0000 
     46 O          -5.3408    4.4889   11.7543 O.2       2 ALA2        0.0000 
     47 CZ         -0.7858    0.3279   11.3211 C.ar      4 PHE5        0.0000 
     48 OG         -1.9069    1.2904   11.0630 O.2       1 SER1        0.0000 
     49 O          -3.0280    2.2529   10.8049 O.2       2 ALA2        0.0000 
     50 N          -4.1492    3.2154   10.5468 N.2       2 ALA2        0.0000 
     51 CA         -4.3039    2.3892   16.8550 C.3       5 GLY6        0.0000 
     52 CA         -5.4251    3.3517   16.5968 C.3       5 GLY6        0.0000 
     53 CA         -6.5462    4.3142   16.3387 C.3       5 GLY6        0.0000 
     54 OG         -4.2335    2.0782   15.3893 O.2       1 SER1        0.0000 
     55 CA         -5.3546    3.0407   15.1311 C.3       5 GLY6        0.0000 
     56 O          -6.4758    4.0032   14.8730 O.2       2 ALA2        0.0000 
     57 OG         -4.1630    1.7672   13.9236 O.2       1 SER1        0.0000 
     58 O          -5.2841    2.7297   13.6654 O.2       2 ALA2        0.0000 
     59 OG         -2.9714    0.4937   12.7160 O.2       1 SER1        0.0000 
     60 OG         -4.0925    1.4562   12.4578 O.2       1 SER1        0.0000 
     61 O          -5.2137    2.4187   12.1997 O.2       2 ALA2        0.0000 
     62 CA         -1.7798   -0.7798   11.5084 C.3       5 GLY6        0.0000 
     63 CA         -2.9009    0.1827   11.2503 C.3       5 GLY6        0.0000 
     64 O          -4.0221    1.1452   10.9921 O.2       2 ALA2        0.0000 
     65 N          -5.1432    2.1077   10.7340 N.2       2 ALA2        0.0000 
     66 CA         -6.4896    2.5551   18.2498 C.3       5 GLY6        0.0000 
     67 O          -5.2979    1.2816   17.0422 O.2       2 ALA2        0.0000 
     68 CA         -6.4191    2.2441   16.7841 C.3       5 GLY6        0.0000 
     69 CA         -7.5402    3.2066   16.5260 C.3       5 GLY6        0.0000 
     70 OD1        -5.2275    0.9706   15.5765 O.3       3 ASP3        0.0000 
     71 N          -6.3486    1.9331   15.3184 N.2       2 ALA2        0.0000 
     72 CA         -7.4698    2.8956   15.0602 C.3       5 GLY6        0.0000 
     73 N          -5.1570    0.6596   14.1108 N.2       2 ALA2        0.0000 
     74 CA         -3.9654   -0.6139   12.9032 C.3       5 GLY6        0.0000 
     75 N          -5.0865    0.3486   12.6451 N.2       2 ALA2        0.0000 
     76 CA         -2.7738   -1.8874   11.6956 C.3       5 GLY6        0.0000 
     77 CA         -3.8949   -0.9249   11.4375 C.3       5 GLY6        0.0000 
     78 CA         -5.0161    0.0376   11.1794 C.3       5 GLY6        0.0000 
@<TRIPOS>BOND
@<TRIPOS>SUBSTRUCTURE
     1 SER1       20 GROUP   
     2 ALA2        2 GROUP   
     3 ASP3       70 GROUP   
     4 PHE5        3 GROUP   
     5 GLY6        1 GROUP   
     6 CUB7        8 GROUP   
@<TRIPOS>SET

