#    Name: 4mty_SBW_1_INTS_M
#    Modification time : Tue Mar 25 12:23:21 2014

@<TRIPOS>MOLECULE
4mty_SBW_1_INTS_M
   37     0    12     0     0
SMALL
NO_CHARGES


@<TRIPOS>ATOM
      1 N          -4.1495    0.7100   18.6040 N.am      2 SEC2        0.0000 
      2 N          -5.5090    1.0890   18.1540 N.am     10 SEL2        0.0000 
      3 N          -2.7900    0.3310   19.0540 N.am      6 SEP2        0.0000 
      4 O          -4.6210   -1.2045   16.8570 O.2       1 ALC1        0.0000 
      5 O          -5.5380   -0.3690   16.1380 O.2       9 ALL1        0.0000 
      6 O          -3.7040   -2.0400   17.5760 O.2       5 ALP1        0.0000 
      7 Zn         -6.1855   -0.9605   15.7060 Zn        3 ZIC7        0.0000 
      8 Zn         -5.5380   -0.3690   16.1380 Zn       11 ZIL7        0.0000 
      9 Zn         -6.8330   -1.5520   15.2740 Zn        7 ZIP7        0.0000 
     10 CA         -2.2540    1.2320   15.1190 C.3       4 GLC5        0.0000 
     11 CA         -4.1070    2.3200   15.5340 C.3      12 GLL5        0.0000 
     12 CA         -0.4010    0.1440   14.7040 C.3       8 GLP5        0.0000 
     13 CA         -8.1260    3.3785   15.1985 C.3       4 GLC5        0.0000 
     14 CA         -6.2740    3.3710   15.5440 C.3      12 GLL5        0.0000 
     15 CA         -9.9780    3.3860   14.8530 C.3       8 GLP5        0.0000 
     16 CA         -7.7055    5.0995   15.2250 C.3       4 GLC5        0.0000 
     17 CA         -5.7540    4.4330   14.8270 C.3      12 GLL5        0.0000 
     18 CA         -9.6570    5.7660   15.6230 C.3       8 GLP5        0.0000 
     19 CA         -4.5660    3.6717   17.0358 C.3       4 GLC5        0.0000 
     20 CA         -4.3470    5.0370   18.3540 C.3       8 GLP5        0.0000 
     21 CA         -4.1788    4.4912   16.4970 C.3       4 GLC5        0.0000 
     22 CA         -3.5970    3.4210   14.8270 C.3      12 GLL5        0.0000 
     23 CA         -5.1805    4.4695   16.7697 C.3       4 GLC5        0.0000 
     24 CA         -1.7975    7.2085   16.3543 C.3       4 GLC5        0.0000 
     25 CA         -1.8720    8.1620   14.6110 C.3      12 GLL5        0.0000 
     26 CA         -2.0250    5.7620   17.7180 C.3       8 GLP5        0.0000 
     27 CA         -1.6350   10.8730   16.2828 C.3       4 GLC5        0.0000 
     28 CA         -1.2680    9.1480   15.3700 C.3      12 GLL5        0.0000 
     29 CA         -2.5460   12.2850   17.4430 C.3       8 GLP5        0.0000 
     30 CA         -0.2510    9.4280   17.0382 C.3       4 GLC5        0.0000 
     31 CA         -0.1800    9.7740   14.8750 C.3      12 GLL5        0.0000 
     32 CA          0.2220    9.3950   18.9540 C.3       8 GLP5        0.0000 
     33 CA          0.7875    8.2622   15.4254 C.3       4 GLC5        0.0000 
     34 CA          1.7580    7.0970   16.4580 C.3       8 GLP5        0.0000 
     35 CA          0.2539    7.0848   14.4949 C.3       4 GLC5        0.0000 
     36 CA         -0.2560    8.3910   12.9320 C.3      12 GLL5        0.0000 
     37 CA          1.4570    5.9820   15.5300 C.3       8 GLP5        0.0000 
@<TRIPOS>BOND
@<TRIPOS>SUBSTRUCTURE
     1 ALC1        4 GROUP        1 X    ALC  0     ROOT ALC X 1
     2 SEC2        1 GROUP        1 X    SEC  0     **** SEC X 2
     3 ZIC7        7 GROUP        1 X    ZIC  0     **** ZIC X 5
     4 GLC5       10 GROUP        1 X    GLC  0     **** GLC X 6
     5 ALP1        6 GROUP        1 Y    ALP  0     ROOT ALP Y 8
     6 SEP2        3 GROUP        1 Y    SEP  0     **** SEP Y 9
     7 ZIP7        9 GROUP        1 Y    ZIP  0     **** ZIP Y 12
     8 GLP5       12 GROUP        1 Y    GLP  0     **** GLP Y 13
     9 ALL1        5 GROUP        1 Z    ALL  0     ROOT ALL Z 15
    10 SEL2        2 GROUP        1 Z    SEL  0     **** SEL Z 16
    11 ZIL7        8 GROUP        1 Z    ZIL  0     **** ZIL Z 19
    12 GLL5       11 GROUP        1 Z    GLL  0     **** GLL Z 20
@<TRIPOS>SET

