#    Name: 4mty_SBW_1_ligand
#    Modification time : Tue Mar 25 12:23:21 2014

@<TRIPOS>MOLECULE
4mty_SBW_1_ligand
   34    35     1     0     0
SMALL
NO_CHARGES


@<TRIPOS>ATOM
      1 O04        -5.5090    1.0890   18.1540 O.2       1 SBW302      0.0000 
      2 S01        -6.0670    0.9320   16.8240 S.o2      1 SBW302      0.0000 
      3 O03        -7.4840    1.0300   16.6910 O.2       1 SBW302      0.0000 
      4 N02        -5.5380   -0.3690   16.1380 N.pl3     1 SBW302      0.0000 
      5 C16        -5.4630    2.2930   15.9010 C.ar      1 SBW302      0.0000 
      6 C15        -4.1070    2.3200   15.5340 C.ar      1 SBW302      0.0000 
      7 C14        -3.5970    3.4210   14.8270 C.ar      1 SBW302      0.0000 
      8 C17        -6.2740    3.3710   15.5440 C.ar      1 SBW302      0.0000 
      9 C18        -5.7540    4.4330   14.8270 C.ar      1 SBW302      0.0000 
     10 C13        -4.4240    4.4700   14.4530 C.ar      1 SBW302      0.0000 
     11 C12        -3.9050    5.6570   13.6890 C.2       1 SBW302      0.0000 
     12 O02        -4.6840    6.6150   13.4540 O.2       1 SBW302      0.0000 
     13 N01        -2.6750    5.6630   13.2960 N.am      1 SBW302      0.0000 
     14 C11        -2.0660    6.7410   12.5190 C.3       1 SBW302      0.0000 
     15 C09        -1.4130    7.8060   13.3640 C.ar      1 SBW302      0.0000 
     16 C08        -1.8720    8.1620   14.6110 C.ar      1 SBW302      0.0000 
     17 C07        -1.2680    9.1480   15.3700 C.ar      1 SBW302      0.0000 
     18 C06        -0.1800    9.7740   14.8750 C.ar      1 SBW302      0.0000 
     19 C05         0.3580    9.3940   13.6630 C.ar      1 SBW302      0.0000 
     20 O01         1.4800   10.0350   13.2240 O.3       1 SBW302      0.0000 
     21 C10        -0.2560    8.3910   12.9320 C.ar      1 SBW302      0.0000 
     22 H          -4.8834   -0.9099   16.6661 H         1 SBW302      0.0000 
     23 H          -3.4938    1.5404   15.7810 H         1 SBW302      0.0000 
     24 H          -2.5935    3.4429   14.5862 H         1 SBW302      0.0000 
     25 H          -7.2687    3.3705   15.8198 H         1 SBW302      0.0000 
     26 H          -6.3793    5.2230   14.5629 H         1 SBW302      0.0000 
     27 H          -2.0060    4.8643   13.5167 H         1 SBW302      0.0000 
     28 H          -2.8293    7.2264   11.8738 H         1 SBW302      0.0000 
     29 H          -1.3023    6.3287   11.8252 H         1 SBW302      0.0000 
     30 H          -2.7108    7.6694   15.0035 H         1 SBW302      0.0000 
     31 H          -1.6530    9.3882   16.2926 H         1 SBW302      0.0000 
     32 H           0.2673   10.5524   15.4024 H         1 SBW302      0.0000 
     33 H           0.1785    8.0821   12.0368 H         1 SBW302      0.0000 
     34 H           1.6470   10.7549   13.8977 H         1 SBW302      0.0000 
@<TRIPOS>BOND
     1    2    1 2    
     2    3    2 2    
     3    4    2 1    
     4    5    2 1    
     5   22    4 1    
     6    6    5 ar   
     7    8    5 ar   
     8    7    6 ar   
     9   23    6 1    
    10   10    7 ar   
    11   24    7 1    
    12    9    8 ar   
    13   25    8 1    
    14   10    9 ar   
    15   26    9 1    
    16   11   10 1    
    17   12   11 2    
    18   13   11 am   
    19   14   13 1    
    20   27   13 1    
    21   15   14 1    
    22   28   14 1    
    23   29   14 1    
    24   16   15 ar   
    25   21   15 ar   
    26   17   16 ar   
    27   30   16 1    
    28   18   17 ar   
    29   31   17 1    
    30   19   18 ar   
    31   32   18 1    
    32   20   19 1    
    33   21   19 ar   
    34   34   20 1    
    35   33   21 1    
@<TRIPOS>SUBSTRUCTURE
     1 SBW302      1 GROUP   
@<TRIPOS>SET

