#    Name: 1wvx_BD4_1_INTS_M
#    Modification time : Tue Mar 25 09:21:28 2014

@<TRIPOS>MOLECULE
1wvx_BD4_1_INTS_M
   67     0    12     0     0
SMALL
NO_CHARGES


@<TRIPOS>ATOM
      1 O          24.6535   43.6830    9.2065 O.2       1 ALC1        0.0000 
      2 O          25.3820   42.5600    9.7420 O.2       9 ALL1        0.0000 
      3 O          23.9250   44.8060    8.6710 O.2       5 ALP1        0.0000 
      4 N          27.1470   44.0355    7.6830 N.am      2 SEC2        0.0000 
      5 N          26.9120   42.6050    8.0390 N.am     10 SEL2        0.0000 
      6 N          27.3820   45.4660    7.3270 N.am      6 SEP2        0.0000 
      7 CA         23.1685   40.0360   12.2855 C.3       4 GLC5        0.0000 
      8 CA         25.1450   39.3570   12.7640 C.3      12 GLL5        0.0000 
      9 CA         21.1920   40.7150   11.8070 C.3       8 GLP5        0.0000 
     10 CA         27.8355   42.0430    6.0960 C.3       4 GLC5        0.0000 
     11 CA         29.1070   40.9460    7.4870 C.3      12 GLL5        0.0000 
     12 CA         26.5640   43.1400    4.7050 C.3       8 GLP5        0.0000 
     13 CA         29.5755   40.0810    4.7120 C.3       4 GLC5        0.0000 
     14 CA         30.5740   41.7040    5.5640 C.3      12 GLL5        0.0000 
     15 CA         28.5770   38.4580    3.8600 C.3       8 GLP5        0.0000 
     16 CA         28.5690   42.4220    5.1345 C.3       4 GLC5        0.0000 
     17 CA         30.5440   43.5125    4.9860 C.3       4 GLC5        0.0000 
     18 CA         30.5140   45.3210    4.4080 C.3       8 GLP5        0.0000 
     19 CA         29.3805   35.3435    9.4860 C.3       4 GLC5        0.0000 
     20 CA         29.6110   37.0780   10.3310 C.3      12 GLL5        0.0000 
     21 CA         29.1500   33.6090    8.6410 C.3       8 GLP5        0.0000 
     22 CA         27.8830   36.4510    9.6840 C.3       4 GLC5        0.0000 
     23 CA         26.1550   35.8240    9.0370 C.3       8 GLP5        0.0000 
     24 CA         29.7595   39.6500   13.1635 C.3       4 GLC5        0.0000 
     25 CA         30.7410   38.1820   12.3300 C.3      12 GLL5        0.0000 
     26 CA         28.7780   41.1180   13.9970 C.3       8 GLP5        0.0000 
     27 OD1        33.3830   38.0585   12.6675 O.co2     3 ASC3        0.0000 
     28 OD1        32.0210   38.2730   13.0490 O.co2    11 ASL3        0.0000 
     29 OD1        34.7450   37.8440   12.2860 O.co2     7 ASP3        0.0000 
     30 O          33.3830   38.0585   12.6675 O.2       1 ALC1        0.0000 
     31 O          32.0210   38.2730   13.0490 O.2       9 ALL1        0.0000 
     32 O          34.7450   37.8440   12.2860 O.2       5 ALP1        0.0000 
     33 O          32.2905   39.1855   14.1160 O.2       1 ALC1        0.0000 
     34 O          32.5600   40.0980   15.1830 O.2       5 ALP1        0.0000 
     35 CA         24.8637   41.1043    8.6750 C.3       4 GLC5        0.0000 
     36 CA         26.7790   40.9230    9.6950 C.3      12 GLL5        0.0000 
     37 CA         23.3770   41.3890    7.1190 C.3       8 GLP5        0.0000 
     38 CA         28.0643   42.4382    9.5585 C.3       4 GLC5        0.0000 
     39 CA         28.8310   44.4020    9.5490 C.3       8 GLP5        0.0000 
     40 CA         24.8343   37.9108   11.1880 C.3       4 GLC5        0.0000 
     41 CA         26.0880   39.5980   11.5820 C.3      12 GLL5        0.0000 
     42 CA         24.0520   36.3440   10.2030 C.3       8 GLP5        0.0000 
     43 CA         27.1765   40.4375   12.9831 C.3       4 GLC5        0.0000 
     44 CA         26.8525   37.3140    9.9153 C.3       4 GLC5        0.0000 
     45 CA         27.1170   38.6930   11.3270 C.3      12 GLL5        0.0000 
     46 CA         28.1640   39.9610   12.3952 C.3       4 GLC5        0.0000 
     47 CA         27.9830   38.9150   10.2600 C.3      12 GLL5        0.0000 
     48 CA         29.5553   40.5673   10.1337 C.3       4 GLC5        0.0000 
     49 CA         31.2110   41.6640   10.4170 C.3       8 GLP5        0.0000 
     50 CA         27.5630   39.5690    7.2198 C.3       4 GLC5        0.0000 
     51 CA         28.8320   40.0300    8.5000 C.3      12 GLL5        0.0000 
     52 CA         26.8020   39.1100    5.4690 C.3       8 GLP5        0.0000 
     53 CA         28.9002   42.4450    8.7713 C.3       4 GLC5        0.0000 
     54 CA         30.0902   41.0760    9.2052 C.3       4 GLC5        0.0000 
     55 CA         28.2355   39.9737    6.2797 C.3       4 GLC5        0.0000 
     56 CA         30.9265   40.9207    8.6105 C.3       4 GLC5        0.0000 
     57 CA         30.2310   40.7290    6.6940 C.3      12 GLL5        0.0000 
     58 CA         32.2534   41.7096    7.2428 C.3       4 GLC5        0.0000 
     59 CA         31.0530   39.6260    6.9140 C.3      12 GLL5        0.0000 
     60 CA         33.7790   42.9980    7.9640 C.3       8 GLP5        0.0000 
     61 CA         30.7097   40.2410    9.3700 C.3       4 GLC5        0.0000 
     62 CA         30.7690   38.7110    7.9270 C.3      12 GLL5        0.0000 
     63 CA         29.2797   38.1134    7.0269 C.3       4 GLC5        0.0000 
     64 CA         29.6480   38.9250    8.7190 C.3      12 GLL5        0.0000 
     65 CA         28.2800   37.1800    5.9840 C.3       8 GLP5        0.0000 
     66 CA         31.0215   39.7050   11.0627 C.3       4 GLC5        0.0000 
     67 CA         30.9230   37.3100   11.0870 C.3      12 GLL5        0.0000 
@<TRIPOS>BOND
@<TRIPOS>SUBSTRUCTURE
     1 ALC1        1 GROUP        1 X    ALC  0     ROOT ALC X 1
     2 SEC2        4 GROUP        1 X    SEC  0     **** SEC X 2
     3 ASC3       27 GROUP        1 X    ASC  0     **** ASC X 3
     4 GLC5        7 GROUP        1 X    GLC  0     **** GLC X 6
     5 ALP1        3 GROUP        1 Y    ALP  0     ROOT ALP Y 8
     6 SEP2        6 GROUP        1 Y    SEP  0     **** SEP Y 9
     7 ASP3       29 GROUP        1 Y    ASP  0     **** ASP Y 10
     8 GLP5        9 GROUP        1 Y    GLP  0     **** GLP Y 13
     9 ALL1        2 GROUP        1 Z    ALL  0     ROOT ALL Z 15
    10 SEL2        5 GROUP        1 Z    SEL  0     **** SEL Z 16
    11 ASL3       28 GROUP        1 Z    ASL  0     **** ASL Z 17
    12 GLL5        8 GROUP        1 Z    GLL  0     **** GLL Z 20
@<TRIPOS>SET

