#    Name: 1wvx_BD4_1_ligand
#    Modification time : Tue Mar 25 09:21:29 2014

@<TRIPOS>MOLECULE
1wvx_BD4_1_ligand
   44    47     1     0     0
SMALL
NO_CHARGES


@<TRIPOS>ATOM
      1 O23        24.1580   42.0070   11.6060 O.2       1 BD41001     0.0000 
      2 C20        25.0400   41.7910   10.7770 C.2       1 BD41001     0.0000 
      3 N21        25.3820   42.5600    9.7420 N.am      1 BD41001     0.0000 
      4 C22        26.4200   42.0970    9.0450 C.2       1 BD41001     0.0000 
      5 O24        26.9120   42.6050    8.0390 O.2       1 BD41001     0.0000 
      6 C13        26.7790   40.9230    9.6950 C.ar      1 BD41001     0.0000 
      7 C12        25.9220   40.7160   10.7670 C.ar      1 BD41001     0.0000 
      8 C11        26.0880   39.5980   11.5820 C.ar      1 BD41001     0.0000 
      9 C15        25.1450   39.3570   12.7640 C.3       1 BD41001     0.0000 
     10 C10        27.1170   38.6930   11.3270 C.ar      1 BD41001     0.0000 
     11 C8         27.9830   38.9150   10.2600 C.ar      1 BD41001     0.0000 
     12 C9         27.8160   40.0260    9.4410 C.ar      1 BD41001     0.0000 
     13 C5         28.8320   40.0300    8.5000 C.ar      1 BD41001     0.0000 
     14 C6         29.1070   40.9460    7.4870 C.ar      1 BD41001     0.0000 
     15 C1         30.2310   40.7290    6.6940 C.ar      1 BD41001     0.0000 
     16 C14        30.5740   41.7040    5.5640 C.3       1 BD41001     0.0000 
     17 C2         31.0530   39.6260    6.9140 C.ar      1 BD41001     0.0000 
     18 C3         30.7690   38.7110    7.9270 C.ar      1 BD41001     0.0000 
     19 C4         29.6480   38.9250    8.7190 C.ar      1 BD41001     0.0000 
     20 N7         29.0730   38.3250    9.7650 N.pl3     1 BD41001     0.0000 
     21 C16        29.6110   37.0780   10.3310 C.3       1 BD41001     0.0000 
     22 C17        30.9230   37.3100   11.0870 C.3       1 BD41001     0.0000 
     23 C18        30.7410   38.1820   12.3300 C.3       1 BD41001     0.0000 
     24 N19        32.0210   38.2730   13.0490 N.4       1 BD41001     0.0000 
     25 H          24.8998   43.4126    9.5087 H         1 BD41001     0.0000 
     26 H          27.2349   37.8671   11.9236 H         1 BD41001     0.0000 
     27 H          28.5057   41.7478    7.3317 H         1 BD41001     0.0000 
     28 H          31.8856   39.4834    6.3179 H         1 BD41001     0.0000 
     29 H          31.3710   37.9051    8.0808 H         1 BD41001     0.0000 
     30 H          29.8001   36.3429    9.5351 H         1 BD41001     0.0000 
     31 H          28.8893   36.6277   11.0282 H         1 BD41001     0.0000 
     32 H          31.6424   37.7906   10.4140 H         1 BD41001     0.0000 
     33 H          31.3384   36.3408   11.3865 H         1 BD41001     0.0000 
     34 H          29.9754   37.7310   12.9586 H         1 BD41001     0.0000 
     35 H          30.4041   39.1674   12.0136 H         1 BD41001     0.0000 
     36 H          25.3762   38.5193   13.2588 H         1 BD41001     0.0000 
     37 H          25.1789   40.1066   13.4250 H         1 BD41001     0.0000 
     38 H          24.1937   39.2697   12.4684 H         1 BD41001     0.0000 
     39 H          30.7295   42.6303    5.9071 H         1 BD41001     0.0000 
     40 H          31.4022   41.4296    5.0753 H         1 BD41001     0.0000 
     41 H          29.8399   41.7614    4.8874 H         1 BD41001     0.0000 
     42 H          32.8016   38.2038   12.4279 H         1 BD41001     0.0000 
     43 H          32.1116   39.1407   13.5378 H         1 BD41001     0.0000 
     44 H          32.1194   37.5435   13.7259 H         1 BD41001     0.0000 
@<TRIPOS>BOND
     1    2    1 2    
     2    3    2 am   
     3    7    2 1    
     4    4    3 am   
     5   25    3 1    
     6    5    4 2    
     7    6    4 1    
     8    7    6 ar   
     9   12    6 ar   
    10    8    7 ar   
    11    9    8 1    
    12   10    8 ar   
    13   36    9 1    
    14   37    9 1    
    15   38    9 1    
    16   11   10 ar   
    17   26   10 1    
    18   12   11 ar   
    19   20   11 1    
    20   13   12 1    
    21   14   13 ar   
    22   19   13 ar   
    23   15   14 ar   
    24   27   14 1    
    25   16   15 1    
    26   17   15 ar   
    27   39   16 1    
    28   40   16 1    
    29   41   16 1    
    30   18   17 ar   
    31   28   17 1    
    32   19   18 ar   
    33   29   18 1    
    34   20   19 1    
    35   21   20 1    
    36   22   21 1    
    37   30   21 1    
    38   31   21 1    
    39   23   22 1    
    40   32   22 1    
    41   33   22 1    
    42   24   23 1    
    43   34   23 1    
    44   35   23 1    
    45   42   24 1    
    46   43   24 1    
    47   44   24 1    
@<TRIPOS>SUBSTRUCTURE
     1 BD41001     1 GROUP   
@<TRIPOS>SET

