#    Name: 3ckt_YDP_1_INTS_M
#    Modification time : Mon Mar 24 21:46:38 2014

@<TRIPOS>MOLECULE
3ckt_YDP_1_INTS_M
   84     0    12     0     0
SMALL
NO_CHARGES


@<TRIPOS>ATOM
      1 CA         10.1200    7.9160  -15.0730 C.3       4 GLC5        0.0000 
      2 CA          8.9070    6.7760  -16.0830 C.3      12 GLL5        0.0000 
      3 CA         11.3330    9.0560  -14.0630 C.3       8 GLP5        0.0000 
      4 CA         10.1400   -2.6735  -11.2675 C.3       4 GLC5        0.0000 
      5 CA          8.4390   -1.2680  -11.1950 C.3      12 GLL5        0.0000 
      6 CA         11.8410   -4.0790  -11.3400 C.3       8 GLP5        0.0000 
      7 CA          9.9425    1.5685  -11.6360 C.3       4 GLC5        0.0000 
      8 CA          8.8590    0.3180  -13.0720 C.3      12 GLL5        0.0000 
      9 CA         11.0260    2.8190  -10.2000 C.3       8 GLP5        0.0000 
     10 CA          8.2420   -3.2570  -14.2420 C.3       4 GLC5        0.0000 
     11 CA          7.5380   -1.7970  -13.5040 C.3      12 GLL5        0.0000 
     12 CA          8.9460   -4.7170  -14.9800 C.3       8 GLP5        0.0000 
     13 CA          9.6760   -1.4970  -14.0375 C.3       4 GLC5        0.0000 
     14 CA         11.8140   -1.1970  -14.5710 C.3       8 GLP5        0.0000 
     15 CA          6.5565   -2.7240  -15.0925 C.3       4 GLC5        0.0000 
     16 CA          5.5750   -3.6510  -16.6810 C.3       8 GLP5        0.0000 
     17 CA          5.6105    1.3775  -18.3820 C.3       4 GLC5        0.0000 
     18 CA          6.3410    1.4800  -16.4570 C.3      12 GLL5        0.0000 
     19 CA          4.8800    1.2750  -20.3070 C.3       8 GLP5        0.0000 
     20 CA          7.8625    1.7920  -17.6995 C.3       4 GLC5        0.0000 
     21 CA          9.3840    2.1040  -18.9420 C.3       8 GLP5        0.0000 
     22 OD1         6.1715   -0.4160  -17.4680 O.co2     3 ASC3        0.0000 
     23 OD1         5.5940    0.2230  -16.3390 O.co2    11 ASL3        0.0000 
     24 OD1         6.7490   -1.0550  -18.5970 O.co2     7 ASP3        0.0000 
     25 OD1         6.7825   -0.4410  -16.5320 O.co2     3 ASC3        0.0000 
     26 OD1         7.9710   -1.1050  -16.7250 O.co2     7 ASP3        0.0000 
     27 OD1         4.7760   -0.4805  -17.2565 O.co2     3 ASC3        0.0000 
     28 OD1         3.9580   -1.1840  -18.1740 O.co2     7 ASP3        0.0000 
     29 OD1         4.1950    0.3155  -16.7770 O.co2     3 ASC3        0.0000 
     30 OD1         2.7960    0.4080  -17.2150 O.co2     7 ASP3        0.0000 
     31 N          11.2530    6.1045  -20.0315 N.am      2 SEC2        0.0000 
     32 N          10.8730    6.8860  -19.0880 N.am     10 SEL2        0.0000 
     33 N          11.6330    5.3230  -20.9750 N.am      6 SEP2        0.0000 
     34 O          -0.6530   -4.0310   -9.6095 O.2       1 ALC1        0.0000 
     35 O           0.3770   -3.0810   -9.7660 O.2       9 ALL1        0.0000 
     36 O          -1.6830   -4.9810   -9.4530 O.2       5 ALP1        0.0000 
     37 CA          1.7245    0.6855   -9.0545 C.3       4 GLC5        0.0000 
     38 CA          2.3960   -0.9890  -10.3450 C.3      12 GLL5        0.0000 
     39 CA          1.0530    2.3600   -7.7640 C.3       8 GLP5        0.0000 
     40 N          -0.5775   -4.1780  -12.4120 N.am      2 SEC2        0.0000 
     41 N          -0.0470   -3.0300  -11.9750 N.am     10 SEL2        0.0000 
     42 N          -1.1080   -5.3260  -12.8490 N.am      6 SEP2        0.0000 
     43 CA          2.5485    3.8665  -18.8590 C.3       4 GLC5        0.0000 
     44 CA          3.3330    4.2670  -17.2450 C.3      12 GLL5        0.0000 
     45 CA          1.7640    3.4660  -20.4730 C.3       8 GLP5        0.0000 
     46 CA          1.5205    5.1300  -17.6740 C.3       4 GLC5        0.0000 
     47 CA         -0.2920    5.9930  -18.1030 C.3       8 GLP5        0.0000 
     48 N           3.3395    4.5245  -10.9990 N.am      2 SEC2        0.0000 
     49 N           3.4850    3.3960  -11.6360 N.am     10 SEL2        0.0000 
     50 N           3.1940    5.6530  -10.3620 N.am      6 SEP2        0.0000 
     51 CA          2.6530    1.6675   -9.5475 C.3       4 GLC5        0.0000 
     52 CA          3.2720    0.0610  -10.6260 C.3      12 GLL5        0.0000 
     53 CA          2.0340    3.2740   -8.4690 C.3       8 GLP5        0.0000 
     54 CA          4.2895    1.1495   -9.0770 C.3       4 GLC5        0.0000 
     55 CA          5.3070    2.2380   -7.5280 C.3       8 GLP5        0.0000 
     56 CA          1.0280    1.5805  -14.1615 C.3       4 GLC5        0.0000 
     57 CA          2.0530    0.5330  -12.6680 C.3      12 GLL5        0.0000 
     58 CA          0.0030    2.6280  -15.6550 C.3       8 GLP5        0.0000 
     59 CA          5.3125   -1.7655  -15.8235 C.3       4 GLC5        0.0000 
     60 CA          5.0500    0.1200  -14.9660 C.3      12 GLL5        0.0000 
     61 CA          4.4080    5.5135  -13.1885 C.3       4 GLC5        0.0000 
     62 CA          3.7610    4.3720  -14.7770 C.3      12 GLL5        0.0000 
     63 CA          5.0550    6.6550  -11.6000 C.3       8 GLP5        0.0000 
     64 CA         10.2368   -0.6182  -12.6975 C.3       4 GLC5        0.0000 
     65 CA          8.3200   -0.8350  -12.6390 C.3      12 GLL5        0.0000 
     66 CA         12.0940   -0.1850  -13.4780 C.3       8 GLP5        0.0000 
     67 CA          9.6867    3.3368  -17.7890 C.3       4 GLC5        0.0000 
     68 CA          9.8160    4.1260  -16.1180 C.3      12 GLL5        0.0000 
     69 CA         11.8012    4.2112  -16.0390 C.3       4 GLC5        0.0000 
     70 CA         13.6130    3.8530  -15.4420 C.3       8 GLP5        0.0000 
     71 CA         10.4505    0.2082  -13.6280 C.3       4 GLC5        0.0000 
     72 CA          8.7550    0.8850  -14.4840 C.3      12 GLL5        0.0000 
     73 CA          1.7623    3.6290  -16.1315 C.3       4 GLC5        0.0000 
     74 CA          1.6963    2.3738  -11.3805 C.3       4 GLC5        0.0000 
     75 CA          0.8270    4.0640  -10.5380 C.3       8 GLP5        0.0000 
     76 CA          1.4144   -1.3649  -13.7718 C.3       4 GLC5        0.0000 
     77 CA          1.1600   -2.5310  -15.2970 C.3       8 GLP5        0.0000 
     78 CA          1.8075    3.1303  -15.1650 C.3       4 GLC5        0.0000 
     79 CA          3.4630    2.8930  -14.5730 C.3      12 GLL5        0.0000 
     80 CA          2.4376    6.1516  -14.4631 C.3       4 GLC5        0.0000 
     81 CA          1.0660    7.2540  -13.5060 C.3       8 GLP5        0.0000 
     82 CA         10.8504    5.9235  -14.8210 C.3       4 GLC5        0.0000 
     83 CA          9.0020    4.5720  -15.0760 C.3      12 GLL5        0.0000 
     84 CA         12.3710    6.7800  -13.7920 C.3       8 GLP5        0.0000 
@<TRIPOS>BOND
@<TRIPOS>SUBSTRUCTURE
     1 ALC1       34 GROUP        1 X    ALC  0     ROOT ALC X 1
     2 SEC2       31 GROUP        1 X    SEC  0     **** SEC X 2
     3 ASC3       22 GROUP        1 X    ASC  0     **** ASC X 3
     4 GLC5        1 GROUP        1 X    GLC  0     **** GLC X 6
     5 ALP1       36 GROUP        1 Y    ALP  0     ROOT ALP Y 8
     6 SEP2       33 GROUP        1 Y    SEP  0     **** SEP Y 9
     7 ASP3       24 GROUP        1 Y    ASP  0     **** ASP Y 10
     8 GLP5        3 GROUP        1 Y    GLP  0     **** GLP Y 13
     9 ALL1       35 GROUP        1 Z    ALL  0     ROOT ALL Z 15
    10 SEL2       32 GROUP        1 Z    SEL  0     **** SEL Z 16
    11 ASL3       23 GROUP        1 Z    ASL  0     **** ASL Z 17
    12 GLL5        2 GROUP        1 Z    GLL  0     **** GLL Z 20
@<TRIPOS>SET

