#    Name: 3ckt_YDP_1_ligand
#    Modification time : Mon Mar 24 21:46:38 2014

@<TRIPOS>MOLECULE
3ckt_YDP_1_ligand
   77    79     1     0     0
SMALL
NO_CHARGES


@<TRIPOS>ATOM
      1 N1          9.7120    8.5970  -18.1680 N.am      1 YDP2501     0.0000 
      2 C5          8.9070    6.7760  -16.0830 C.ar      1 YDP2501     0.0000 
      3 C6          9.7430    6.3410  -17.1200 C.ar      1 YDP2501     0.0000 
      4 C8         10.1380    7.3110  -18.2170 C.2       1 YDP2501     0.0000 
      5 C10         8.4390   -1.2680  -11.1950 C.3       1 YDP2501     0.0000 
      6 C20         8.5480    5.8930  -15.0690 C.ar      1 YDP2501     0.0000 
      7 C24         6.5330    2.1150  -15.0780 C.3       1 YDP2501     0.0000 
      8 C27         9.0020    4.5720  -15.0760 C.ar      1 YDP2501     0.0000 
      9 C18         9.8160    4.1260  -16.1180 C.ar      1 YDP2501     0.0000 
     10 C2         10.1630    5.0130  -17.1540 C.ar      1 YDP2501     0.0000 
     11 S9          8.5100    3.5040  -13.7700 S.o2      1 YDP2501     0.0000 
     12 O40         9.7690    3.1490  -13.0950 O.2       1 YDP2501     0.0000 
     13 N32         7.8910    2.0860  -14.5140 N.pl3     1 YDP2501     0.0000 
     14 C33         8.7550    0.8850  -14.4840 C.3       1 YDP2501     0.0000 
     15 C34         8.8590    0.3180  -13.0720 C.2       1 YDP2501     0.0000 
     16 C35         8.3200   -0.8350  -12.6390 C.2       1 YDP2501     0.0000 
     17 C11         7.5380   -1.7970  -13.5040 C.3       1 YDP2501     0.0000 
     18 C25         6.3410    1.4800  -16.4570 C.3       1 YDP2501     0.0000 
     19 N22         5.5940    0.2230  -16.3390 N.4       1 YDP2501     0.0000 
     20 O11         7.4860    4.1060  -12.9360 O.2       1 YDP2501     0.0000 
     21 O2         10.8730    6.8860  -19.0880 O.2       1 YDP2501     0.0000 
     22 N2          0.3770   -3.0810   -9.7660 N.am      1 YDP2501     0.0000 
     23 C3          2.3960   -0.9890  -10.3450 C.ar      1 YDP2501     0.0000 
     24 O3         -0.0470   -3.0300  -11.9750 O.2       1 YDP2501     0.0000 
     25 C7          1.1860   -0.5350  -12.3880 C.ar      1 YDP2501     0.0000 
     26 C4          1.3830   -1.3260  -11.2620 C.ar      1 YDP2501     0.0000 
     27 C9          0.5100   -2.5460  -11.0080 C.2       1 YDP2501     0.0000 
     28 S10         4.1990    2.1930  -12.0280 S.o2      1 YDP2501     0.0000 
     29 C12         3.3330    4.2670  -17.2450 C.3       1 YDP2501     0.0000 
     30 C13         4.0050    6.4600  -16.1560 C.3       1 YDP2501     0.0000 
     31 O12         3.4850    3.3960  -11.6360 O.2       1 YDP2501     0.0000 
     32 C19         3.2720    0.0610  -10.6260 C.ar      1 YDP2501     0.0000 
     33 C21         2.0530    0.5330  -12.6680 C.ar      1 YDP2501     0.0000 
     34 C23         5.5330    1.3520  -14.1620 C.3       1 YDP2501     0.0000 
     35 C26         5.0500    0.1200  -14.9660 C.3       1 YDP2501     0.0000 
     36 C28         3.0780    0.8340  -11.7780 C.ar      1 YDP2501     0.0000 
     37 N36         4.3850    2.1570  -13.6990 N.pl3     1 YDP2501     0.0000 
     38 C37         3.4630    2.8930  -14.5730 C.3       1 YDP2501     0.0000 
     39 C38         3.7610    4.3720  -14.7770 C.2       1 YDP2501     0.0000 
     40 C39         3.7100    4.9930  -15.9710 C.2       1 YDP2501     0.0000 
     41 O41         5.4360    1.7980  -11.3760 O.2       1 YDP2501     0.0000 
     42 H           9.1404    8.8416  -17.3848 H         1 YDP2501     0.0000 
     43 H          10.0070    9.1872  -18.9194 H         1 YDP2501     0.0000 
     44 H           8.5636    7.7412  -16.0752 H         1 YDP2501     0.0000 
     45 H           7.9382    6.2163  -14.3005 H         1 YDP2501     0.0000 
     46 H           6.1479    3.1380  -15.1325 H         1 YDP2501     0.0000 
     47 H          10.1598    3.1648  -16.1335 H         1 YDP2501     0.0000 
     48 H          10.7320    4.6718  -17.9406 H         1 YDP2501     0.0000 
     49 H           9.7632    1.1323  -14.8349 H         1 YDP2501     0.0000 
     50 H           8.3501    0.1081  -15.1421 H         1 YDP2501     0.0000 
     51 H           9.4221    0.9412  -12.4231 H         1 YDP2501     0.0000 
     52 H           7.3276    1.3060  -16.8947 H         1 YDP2501     0.0000 
     53 H           5.8057    2.1921  -17.0908 H         1 YDP2501     0.0000 
     54 H           0.8688   -2.6143   -9.0309 H         1 YDP2501     0.0000 
     55 H          -0.2009   -3.8942   -9.6967 H         1 YDP2501     0.0000 
     56 H           2.4865   -1.5178   -9.4718 H         1 YDP2501     0.0000 
     57 H           0.4007   -0.7288  -13.0247 H         1 YDP2501     0.0000 
     58 H           4.0512    0.2663   -9.9961 H         1 YDP2501     0.0000 
     59 H           1.9267    1.0817  -13.5215 H         1 YDP2501     0.0000 
     60 H           6.1015    0.9645  -13.3177 H         1 YDP2501     0.0000 
     61 H           5.4126   -0.7702  -14.4715 H         1 YDP2501     0.0000 
     62 H           3.9691    0.1251  -14.9763 H         1 YDP2501     0.0000 
     63 H           2.4166    2.8060  -14.1824 H         1 YDP2501     0.0000 
     64 H           3.4273    2.4092  -15.5828 H         1 YDP2501     0.0000 
     65 H           4.0133    4.8741  -13.8952 H         1 YDP2501     0.0000 
     66 H           9.3936   -1.3719  -10.9159 H         1 YDP2501     0.0000 
     67 H           8.0222   -0.6052  -10.5730 H         1 YDP2501     0.0000 
     68 H           7.9889   -2.1460  -11.0322 H         1 YDP2501     0.0000 
     69 H           7.4803   -1.4819  -14.4513 H         1 YDP2501     0.0000 
     70 H           7.9569   -2.7049  -13.5221 H         1 YDP2501     0.0000 
     71 H           6.6004   -1.9133  -13.1762 H         1 YDP2501     0.0000 
     72 H           4.0613    4.3140  -17.9286 H         1 YDP2501     0.0000 
     73 H           3.1482    3.2982  -17.0796 H         1 YDP2501     0.0000 
     74 H           2.5120    4.6546  -17.6643 H         1 YDP2501     0.0000 
     75 H           4.2496    6.9014  -15.2927 H         1 YDP2501     0.0000 
     76 H           4.7660    6.6091  -16.7874 H         1 YDP2501     0.0000 
     77 H           3.2173    6.9536  -16.5247 H         1 YDP2501     0.0000 
@<TRIPOS>BOND
     1    4    1 am   
     2   42    1 1    
     3   43    1 1    
     4    3    2 ar   
     5    6    2 ar   
     6   44    2 1    
     7    4    3 1    
     8   10    3 ar   
     9   21    4 2    
    10   16    5 1    
    11   66    5 1    
    12   67    5 1    
    13   68    5 1    
    14    8    6 ar   
    15   45    6 1    
    16   13    7 1    
    17   18    7 1    
    18   34    7 1    
    19   46    7 1    
    20    9    8 ar   
    21   11    8 1    
    22   10    9 ar   
    23   47    9 1    
    24   48   10 1    
    25   12   11 2    
    26   13   11 1    
    27   20   11 2    
    28   14   13 1    
    29   15   14 1    
    30   49   14 1    
    31   50   14 1    
    32   16   15 2    
    33   51   15 1    
    34   17   16 1    
    35   69   17 1    
    36   70   17 1    
    37   71   17 1    
    38   19   18 1    
    39   52   18 1    
    40   53   18 1    
    41   35   19 1    
    42   27   22 am   
    43   54   22 1    
    44   55   22 1    
    45   26   23 ar   
    46   32   23 ar   
    47   56   23 1    
    48   27   24 2    
    49   26   25 ar   
    50   33   25 ar   
    51   57   25 1    
    52   27   26 1    
    53   31   28 2    
    54   36   28 1    
    55   37   28 1    
    56   41   28 2    
    57   40   29 1    
    58   72   29 1    
    59   73   29 1    
    60   74   29 1    
    61   40   30 1    
    62   75   30 1    
    63   76   30 1    
    64   77   30 1    
    65   36   32 ar   
    66   58   32 1    
    67   36   33 ar   
    68   59   33 1    
    69   35   34 1    
    70   37   34 1    
    71   60   34 1    
    72   61   35 1    
    73   62   35 1    
    74   38   37 1    
    75   39   38 1    
    76   63   38 1    
    77   64   38 1    
    78   40   39 2    
    79   65   39 1    
@<TRIPOS>SUBSTRUCTURE
     1 YDP2501     1 GROUP   
@<TRIPOS>SET

