#    Name: 4kq6_DLZ_1_INTS_M
#    Modification time : Tue Mar 25 08:20:01 2014

@<TRIPOS>MOLECULE
4kq6_DLZ_1_INTS_M
   48     0     9     0     0
SMALL
NO_CHARGES


@<TRIPOS>ATOM
      1 CA          5.0460   10.2095   76.8570 C.3       3 GLC5        0.0000 
      2 CA          4.8970    8.7410   75.6680 C.3       9 GLL5        0.0000 
      3 CA          5.1950   11.6780   78.0460 C.3       6 GLP5        0.0000 
      4 O          10.0985   13.2060   73.2375 O.2       1 ALC1        0.0000 
      5 O           8.6400   12.8430   73.1770 O.2       7 ALL1        0.0000 
      6 O          11.5570   13.5690   73.2980 O.2       4 ALP1        0.0000 
      7 N           7.0460   14.6320   70.8080 N.am      2 SEC2        0.0000 
      8 N           8.0770   14.4860   71.8900 N.am      8 SEL2        0.0000 
      9 N           6.0150   14.7780   69.7260 N.am      5 SEP2        0.0000 
     10 N           8.4650   14.3840   70.6310 N.am      2 SEC2        0.0000 
     11 N           8.8530   14.2820   69.3720 N.am      5 SEP2        0.0000 
     12 N           6.1940   14.0170   71.1405 N.am      2 SEC2        0.0000 
     13 N           6.3730   13.2560   72.5550 N.am      8 SEL2        0.0000 
     14 N           4.4860   12.8865   69.0885 N.am      2 SEC2        0.0000 
     15 N           4.2760   12.4380   70.4860 N.am      8 SEL2        0.0000 
     16 N           4.6960   13.3350   67.6910 N.am      5 SEP2        0.0000 
     17 O           1.4955   14.8335   70.4660 O.2       1 ALC1        0.0000 
     18 O           1.5680   14.0230   71.3930 O.2       7 ALL1        0.0000 
     19 O           1.4230   15.6440   69.5390 O.2       4 ALP1        0.0000 
     20 O           0.7925   14.2685   69.8570 O.2       1 ALC1        0.0000 
     21 O           0.0170   14.5140   68.3210 O.2       4 ALP1        0.0000 
     22 O          -0.7300    9.7750   71.1160 O.2       1 ALC1        0.0000 
     23 O           0.6200   10.5040   71.5550 O.2       7 ALL1        0.0000 
     24 O          -2.0800    9.0460   70.6770 O.2       4 ALP1        0.0000 
     25 CA         -2.4230   12.8060   70.5690 C.3       3 GLC5        0.0000 
     26 CA         -0.6960   12.5410   70.9580 C.3       9 GLL5        0.0000 
     27 CA         -4.1500   13.0710   70.1800 C.3       6 GLP5        0.0000 
     28 CA         -0.8145   10.9295   69.5185 C.3       3 GLC5        0.0000 
     29 CA         -0.9330    9.3180   68.0790 C.3       6 GLP5        0.0000 
     30 N          -1.8005   11.5790   68.8420 N.am      2 SEC2        0.0000 
     31 N          -0.7670   12.3420   69.5200 N.am      8 SEL2        0.0000 
     32 N          -2.8340   10.8160   68.1640 N.am      5 SEP2        0.0000 
     33 O          -0.3750   13.4280   68.9205 O.2       1 ALC1        0.0000 
     34 O          -0.7670   12.3420   69.5200 O.2       7 ALL1        0.0000 
     35 CA          4.1125    8.9277   73.7240 C.3       3 GLC5        0.0000 
     36 CA          2.7940   10.4610   74.1280 C.3       9 GLL5        0.0000 
     37 CA          4.6950    7.2410   73.3420 C.3       6 GLP5        0.0000 
     38 CA          4.8875    8.2918   74.2935 C.3       3 GLC5        0.0000 
     39 CA          5.2630    9.9440   74.8220 C.3       9 GLL5        0.0000 
     40 CA          2.5995   12.1282   69.2510 C.3       3 GLC5        0.0000 
     41 CA          3.1910   12.0820   71.3340 C.3       9 GLL5        0.0000 
     42 CA          2.7090   11.8880   67.3730 C.3       6 GLP5        0.0000 
     43 CA          3.5174   14.2336   71.2846 C.3       3 GLC5        0.0000 
     44 CA          1.7890   12.6550   70.9240 C.3       9 GLL5        0.0000 
     45 CA          4.4430   15.9760   71.0940 C.3       6 GLP5        0.0000 
     46 CA         -1.5387   11.8530   72.6032 C.3       3 GLC5        0.0000 
     47 CA          0.5770   11.9550   71.5710 C.3       9 GLL5        0.0000 
     48 CA         -3.0180   11.4580   73.9420 C.3       6 GLP5        0.0000 
@<TRIPOS>BOND
@<TRIPOS>SUBSTRUCTURE
     1 ALC1        4 GROUP        1 X    ALC  0     ROOT ALC X 1
     2 SEC2        7 GROUP        1 X    SEC  0     **** SEC X 2
     3 GLC5        1 GROUP        1 X    GLC  0     **** GLC X 6
     4 ALP1        6 GROUP        1 Y    ALP  0     ROOT ALP Y 8
     5 SEP2        9 GROUP        1 Y    SEP  0     **** SEP Y 9
     6 GLP5        3 GROUP        1 Y    GLP  0     **** GLP Y 13
     7 ALL1        5 GROUP        1 Z    ALL  0     ROOT ALL Z 15
     8 SEL2        8 GROUP        1 Z    SEL  0     **** SEL Z 16
     9 GLL5        2 GROUP        1 Z    GLL  0     **** GLL Z 20
@<TRIPOS>SET

