#    Name: 4kq6_DLZ_1_ligand
#    Modification time : Tue Mar 25 08:20:01 2014

@<TRIPOS>MOLECULE
4kq6_DLZ_1_ligand
   41    42     1     0     0
SMALL
NO_CHARGES


@<TRIPOS>ATOM
      1 C7          2.7940   10.4610   74.1280 C.3       1 DLZ204      0.0000 
      2 C7A         4.2660   10.7680   74.0840 C.2       1 DLZ204      0.0000 
      3 C5A         5.2630    9.9440   74.8220 C.2       1 DLZ204      0.0000 
      4 C6          4.8970    8.7410   75.6680 C.3       1 DLZ204      0.0000 
      5 N5          6.5570   10.2720   74.7280 N.2       1 DLZ204      0.0000 
      6 C4A         6.9310   11.3500   74.0050 C.2       1 DLZ204      0.0000 
      7 C4          8.3580   11.7510   73.9260 C.2       1 DLZ204      0.0000 
      8 O4          9.2590   11.0830   74.5210 O.2       1 DLZ204      0.0000 
      9 N3          8.6400   12.8430   73.1770 N.am      1 DLZ204      0.0000 
     10 C2          7.6860   13.5590   72.5330 C.2       1 DLZ204      0.0000 
     11 O2          8.0770   14.4860   71.8900 O.2       1 DLZ204      0.0000 
     12 N1          6.3730   13.2560   72.5550 N.2       1 DLZ204      0.0000 
     13 C8          5.9320   12.1770   73.2640 C.2       1 DLZ204      0.0000 
     14 N8          4.6450   11.8120   73.3540 N.pl3     1 DLZ204      0.0000 
     15 C1'         3.5980   12.5730   72.7190 C.3       1 DLZ204      0.0000 
     16 C2'         3.1910   12.0820   71.3340 C.3       1 DLZ204      0.0000 
     17 O2'         4.2760   12.4380   70.4860 O.3       1 DLZ204      0.0000 
     18 C3'         1.7890   12.6550   70.9240 C.3       1 DLZ204      0.0000 
     19 O3'         1.5680   14.0230   71.3930 O.3       1 DLZ204      0.0000 
     20 C4'         0.5770   11.9550   71.5710 C.3       1 DLZ204      0.0000 
     21 O4'         0.6200   10.5040   71.5550 O.3       1 DLZ204      0.0000 
     22 C5'        -0.6960   12.5410   70.9580 C.3       1 DLZ204      0.0000 
     23 O5'        -0.7670   12.3420   69.5200 O.3       1 DLZ204      0.0000 
     24 H           9.6500   13.1519   73.0900 H         1 DLZ204      0.0000 
     25 H           3.8937   13.6462   72.6203 H         1 DLZ204      0.0000 
     26 H           2.6782   12.5856   73.3535 H         1 DLZ204      0.0000 
     27 H           3.0984   10.9958   71.4080 H         1 DLZ204      0.0000 
     28 H           1.6616   12.6147   69.8655 H         1 DLZ204      0.0000 
     29 H           0.5738   12.3111   72.6427 H         1 DLZ204      0.0000 
     30 H          -0.7276   13.6167   71.2082 H         1 DLZ204      0.0000 
     31 H          -1.5606   12.0736   71.4628 H         1 DLZ204      0.0000 
     32 H           2.5947    9.5464   73.7762 H         1 DLZ204      0.0000 
     33 H           2.4339   10.5014   75.0600 H         1 DLZ204      0.0000 
     34 H           2.2632   11.1078   73.5804 H         1 DLZ204      0.0000 
     35 H           5.7029    8.3221   76.0863 H         1 DLZ204      0.0000 
     36 H           4.2745    8.9854   76.4115 H         1 DLZ204      0.0000 
     37 H           4.4445    8.0312   75.1282 H         1 DLZ204      0.0000 
     38 H           4.9110   12.9384   71.0746 H         1 DLZ204      0.0000 
     39 H           1.0862   14.4784   70.6443 H         1 DLZ204      0.0000 
     40 H          -0.2982   10.2210   71.2779 H         1 DLZ204      0.0000 
     41 H          -0.0718   12.9521   69.1398 H         1 DLZ204      0.0000 
@<TRIPOS>BOND
     1    2    1 1    
     2   32    1 1    
     3   33    1 1    
     4   34    1 1    
     5    3    2 2    
     6   14    2 1    
     7    4    3 1    
     8    5    3 1    
     9   35    4 1    
    10   36    4 1    
    11   37    4 1    
    12    6    5 2    
    13    7    6 1    
    14   13    6 1    
    15    8    7 2    
    16    9    7 am   
    17   10    9 am   
    18   24    9 1    
    19   11   10 2    
    20   12   10 1    
    21   13   12 2    
    22   14   13 1    
    23   15   14 1    
    24   16   15 1    
    25   25   15 1    
    26   26   15 1    
    27   17   16 1    
    28   18   16 1    
    29   27   16 1    
    30   38   17 1    
    31   19   18 1    
    32   20   18 1    
    33   28   18 1    
    34   39   19 1    
    35   21   20 1    
    36   22   20 1    
    37   29   20 1    
    38   40   21 1    
    39   23   22 1    
    40   30   22 1    
    41   31   22 1    
    42   41   23 1    
@<TRIPOS>SUBSTRUCTURE
     1 DLZ204      1 GROUP   
@<TRIPOS>SET

