#    Name: 3l2k_PXC_1_INTS_M
#    Modification time : Mon Mar 24 20:54:54 2014

@<TRIPOS>MOLECULE
3l2k_PXC_1_INTS_M
   44     0     9     0     0
SMALL
NO_CHARGES


@<TRIPOS>ATOM
      1 NZ         54.6365    8.9400   70.7470 N.4       2 LYC4        0.0000 
      2 NZ         54.7970    8.6250   72.6120 N.4       8 LYL4        0.0000 
      3 NZ         54.4760    9.2550   68.8820 N.4       5 LYP4        0.0000 
      4 NZ         64.8960    8.8830   76.8175 N.4       2 LYC4        0.0000 
      5 NZ         64.4160    8.7790   75.6220 N.4       8 LYL4        0.0000 
      6 NZ         66.1580    9.9960   78.3810 N.4       5 LYP4        0.0000 
      7 N          64.8960    8.8830   76.8175 N.am      1 SEC2        0.0000 
      8 N          64.4160    8.7790   75.6220 N.am      7 SEL2        0.0000 
      9 N          65.3760    8.9870   78.0130 N.am      4 SEP2        0.0000 
     10 NZ         55.8720    9.2885   70.5595 N.4       2 LYC4        0.0000 
     11 NZ         56.6790    8.3590   71.5430 N.4       8 LYL4        0.0000 
     12 NZ         57.5330    7.9275   70.2985 N.4       2 LYC4        0.0000 
     13 NZ         58.3870    7.4960   69.0540 N.4       5 LYP4        0.0000 
     14 N          55.8720    9.2885   70.5595 N.am      1 SEC2        0.0000 
     15 N          56.6790    8.3590   71.5430 N.am      7 SEL2        0.0000 
     16 N          55.0650   10.2180   69.5760 N.am      4 SEP2        0.0000 
     17 N          55.7400    8.1640   70.2605 N.am      1 SEC2        0.0000 
     18 N          54.8010    7.9690   68.9780 N.am      4 SEP2        0.0000 
     19 N          63.9500    9.0330   77.3510 N.am      1 SEC2        0.0000 
     20 N          62.5240    9.0790   76.6890 N.am      7 SEL2        0.0000 
     21 CA         55.0025   10.7945   74.5825 C.3       3 GLC5        0.0000 
     22 CA         56.0740    9.0550   75.0960 C.3       9 GLL5        0.0000 
     23 CA         53.9310   12.5340   74.0690 C.3       6 GLP5        0.0000 
     24 CA         64.9820    9.3900   72.9905 C.3       3 GLC5        0.0000 
     25 CA         63.1430    8.3090   73.1430 C.3       9 GLL5        0.0000 
     26 CA         66.8210   10.4710   72.8380 C.3       6 GLP5        0.0000 
     27 CA         65.0175    7.9700   73.6825 C.3       3 GLC5        0.0000 
     28 CA         66.8920    7.6310   74.2220 C.3       6 GLP5        0.0000 
     29 N          58.8575    7.9060   71.6345 N.am      1 SEC2        0.0000 
     30 N          58.9920    8.4600   72.9230 N.am      7 SEL2        0.0000 
     31 N          58.7230    7.3520   70.3460 N.am      4 SEP2        0.0000 
     32 CA         62.8624    8.9970   70.6424 C.3       3 GLC5        0.0000 
     33 CA         63.7700    9.8240   69.1020 C.3       6 GLP5        0.0000 
     34 CA         55.5517    7.4041   75.0561 C.3       3 GLC5        0.0000 
     35 CA         56.8110    8.7830   73.9190 C.3       9 GLL5        0.0000 
     36 CA         54.5010    5.8370   75.2960 C.3       6 GLP5        0.0000 
     37 CA         62.1110   10.5478   74.6292 C.3       3 GLC5        0.0000 
     38 CA         60.9930    8.6340   74.2330 C.3       9 GLL5        0.0000 
     39 CA         62.5220   12.4880   74.9820 C.3       6 GLP5        0.0000 
     40 CA         58.0270    7.8120   77.0775 C.3       3 GLC5        0.0000 
     41 CA         58.8700    8.9410   75.2530 C.3       9 GLL5        0.0000 
     42 CA         57.9120    6.5340   78.3440 C.3       6 GLP5        0.0000 
     43 CA         60.4308    6.5235   73.4361 C.3       3 GLC5        0.0000 
     44 CA         60.0070    4.5920   73.5490 C.3       6 GLP5        0.0000 
@<TRIPOS>BOND
@<TRIPOS>SUBSTRUCTURE
     1 SEC2        7 GROUP        1 X    SEC  0     ROOT SEC X 2
     2 LYC4        1 GROUP        1 X    LYC  0     **** LYC X 4
     3 GLC5       21 GROUP        1 X    GLC  0     **** GLC X 6
     4 SEP2        9 GROUP        1 Y    SEP  0     ROOT SEP Y 9
     5 LYP4        3 GROUP        1 Y    LYP  0     **** LYP Y 11
     6 GLP5       23 GROUP        1 Y    GLP  0     **** GLP Y 13
     7 SEL2        8 GROUP        1 Z    SEL  0     ROOT SEL Z 16
     8 LYL4        2 GROUP        1 Z    LYL  0     **** LYL Z 18
     9 GLL5       22 GROUP        1 Z    GLL  0     **** GLL Z 20
@<TRIPOS>SET

