#    Name: 3l2k_PXC_1_ligand
#    Modification time : Mon Mar 24 20:54:54 2014

@<TRIPOS>MOLECULE
3l2k_PXC_1_ligand
   26    28     1     0     0
SMALL
NO_CHARGES


@<TRIPOS>ATOM
      1 OAA        54.7970    8.6250   72.6120 O.co2     1 PXC400      0.0000 
      2 OAB        64.4160    8.7790   75.6220 O.co2     1 PXC400      0.0000 
      3 OAC        56.6790    8.3590   71.5430 O.co2     1 PXC400      0.0000 
      4 OAD        62.5240    9.0790   76.6890 O.co2     1 PXC400      0.0000 
      5 CAE        56.7140    9.2640   76.3310 C.ar      1 PXC400      0.0000 
      6 CAF        62.4980    8.0870   71.9120 C.ar      1 PXC400      0.0000 
      7 CAG        56.0740    9.0550   75.0960 C.ar      1 PXC400      0.0000 
      8 CAH        63.1430    8.3090   73.1430 C.ar      1 PXC400      0.0000 
      9 CAI        58.1140    9.2140   76.4070 C.ar      1 PXC400      0.0000 
     10 CAJ        61.0890    8.1420   71.8380 C.ar      1 PXC400      0.0000 
     11 NAK        58.9920    8.4600   72.9230 N.ar      1 PXC400      0.0000 
     12 NAL        60.2200    8.8910   75.3190 N.ar      1 PXC400      0.0000 
     13 CAM        56.0500    8.5750   72.5940 C.2       1 PXC400      0.0000 
     14 CAN        63.1650    8.8350   75.6390 C.2       1 PXC400      0.0000 
     15 CAO        56.8110    8.7830   73.9190 C.ar      1 PXC400      0.0000 
     16 CAP        62.4070    8.5810   74.3200 C.ar      1 PXC400      0.0000 
     17 CAQ        58.8700    8.9410   75.2530 C.ar      1 PXC400      0.0000 
     18 CAR        60.3430    8.4100   72.9890 C.ar      1 PXC400      0.0000 
     19 CAS        58.2200    8.7230   74.0010 C.ar      1 PXC400      0.0000 
     20 CAT        60.9930    8.6340   74.2330 C.ar      1 PXC400      0.0000 
     21 H          56.1599    9.4514   77.1688 H         1 PXC400      0.0000 
     22 H          63.0451    7.8867   71.0742 H         1 PXC400      0.0000 
     23 H          55.0444    9.1003   75.0433 H         1 PXC400      0.0000 
     24 H          64.1721    8.2734   73.1912 H         1 PXC400      0.0000 
     25 H          58.5859    9.3757   77.3002 H         1 PXC400      0.0000 
     26 H          60.6221    7.9854   70.9423 H         1 PXC400      0.0000 
@<TRIPOS>BOND
     1   13    1 ar   
     2   14    2 ar   
     3   13    3 ar   
     4   14    4 ar   
     5    7    5 ar   
     6    9    5 ar   
     7   21    5 1    
     8    8    6 ar   
     9   10    6 ar   
    10   22    6 1    
    11   15    7 ar   
    12   23    7 1    
    13   16    8 ar   
    14   24    8 1    
    15   17    9 ar   
    16   25    9 1    
    17   18   10 ar   
    18   26   10 1    
    19   18   11 ar   
    20   19   11 ar   
    21   17   12 ar   
    22   20   12 ar   
    23   15   13 1    
    24   16   14 1    
    25   19   15 ar   
    26   20   16 ar   
    27   19   17 ar   
    28   20   18 ar   
@<TRIPOS>SUBSTRUCTURE
     1 PXC400      1 GROUP   
@<TRIPOS>SET

