#    Name: 2H7J_1_CAVITY_N1_6.mol2
#    Modification time : Mon Mar 10 16:13:40 2014

@<TRIPOS>MOLECULE
2H7J_1_CAVITY_N1_6.mol2
   89     0     5     0     0
SMALL
NO_CHARGES


@<TRIPOS>ATOM
      1 CA         21.6967   40.7367    9.4683 C.3       4 GLY6        0.0000 
      2 CA         21.9468   39.5169   10.3047 C.3       4 GLY6        0.0000 
      3 CA         21.0331   38.7225    9.4193 C.3       4 GLY6        0.0000 
      4 CA         19.8701   39.0843   10.2948 C.3       4 GLY6        0.0000 
      5 CA         22.1970   38.2971   11.1410 C.3       4 GLY6        0.0000 
      6 CA         21.0340   38.6589   12.0166 C.3       4 GLY6        0.0000 
      7 N          22.4463   37.1409    9.3801 N.2       2 ALA2        0.0000 
      8 N          21.2833   37.5027   10.2556 N.2       2 ALA2        0.0000 
      9 CA         20.1203   37.8645   11.1311 C.3       4 GLY6        0.0000 
     10 N          20.3696   36.7082    9.3702 N.2       2 ALA2        0.0000 
     11 CA         24.5239   37.5100   11.9873 C.3       4 GLY6        0.0000 
     12 DU         23.6102   36.7155   11.1019 H         5 CUB7        0.0000 
     13 CA         22.4471   37.0773   11.9774 C.3       4 GLY6        0.0000 
     14 O          21.2841   37.4391   12.8529 O.2       2 ALA2        0.0000 
     15 N          22.6964   35.9211   10.2165 N.2       2 ALA2        0.0000 
     16 N          21.5334   36.2829   11.0920 N.2       2 ALA2        0.0000 
     17 CA         20.3704   36.6447   11.9675 C.3       4 GLY6        0.0000 
     18 N          20.6197   35.4884   10.2066 N.2       2 ALA2        0.0000 
     19 O          23.6110   36.6520   13.6992 O.2       2 ALA2        0.0000 
     20 DU         23.8603   35.4957   11.9383 H         5 CUB7        0.0000 
     21 N          22.6973   35.8575   12.8138 N.2       2 ALA2        0.0000 
     22 CA         24.1096   34.3395   10.1773 C.3       4 GLY6        0.0000 
     23 N          22.9466   34.7013   11.0528 N.2       2 ALA2        0.0000 
     24 N          21.7836   35.0631   11.9284 N.2       2 ALA2        0.0000 
     25 O          20.8699   34.2686   11.0429 O.2       2 ALA2        0.0000 
     26 O          19.7069   34.6304   11.9185 O.2       2 ALA2        0.0000 
     27 CZ         25.9379   35.8649   14.5455 C.ar      3 PHE5        0.0000 
     28 DU         25.0242   35.0704   13.6600 H         5 CUB7        0.0000 
     29 N          23.8611   35.4322   14.5356 N.2       2 ALA2        0.0000 
     30 DU         25.2735   33.9141   11.8991 H         5 CUB7        0.0000 
     31 DU         24.1104   34.2759   12.7746 H         5 CUB7        0.0000 
     32 N          22.9474   34.6377   13.6501 N.2       2 ALA2        0.0000 
     33 DU         23.1967   33.4815   11.8892 H         5 CUB7        0.0000 
     34 N          22.0337   33.8433   12.7647 N.2       2 ALA2        0.0000 
     35 N          20.8707   34.2051   13.6402 N.2       2 ALA2        0.0000 
     36 CA         22.2830   32.6870   11.0038 C.3       4 GLY6        0.0000 
     37 O          21.1200   33.0488   11.8793 O.2       2 ALA2        0.0000 
     38 O          19.9570   33.4106   12.7548 O.2       2 ALA2        0.0000 
     39 O          20.2063   32.2543   10.9939 O.2       2 ALA2        0.0000 
     40 CZ         25.2743   33.8506   14.4964 C.ar      3 PHE5        0.0000 
     41 DU         25.5236   32.6943   12.7355 H         5 CUB7        0.0000 
     42 CZ         24.3606   33.0561   13.6110 C.ar      3 PHE5        0.0000 
     43 N          23.1976   33.4179   14.4865 N.2       2 ALA2        0.0000 
     44 N          24.6099   31.8999   11.8501 N.2       2 ALA2        0.0000 
     45 DU         23.4469   32.2617   12.7256 H         5 CUB7        0.0000 
     46 N          22.2839   32.6235   13.6011 N.2       2 ALA2        0.0000 
     47 N          21.1209   32.9853   14.4766 N.2       2 ALA2        0.0000 
     48 CA         22.5332   31.4672   11.8402 C.3       4 GLY6        0.0000 
     49 CA         21.3702   31.8290   12.7157 C.3       4 GLY6        0.0000 
     50 CA         20.2072   32.1908   13.5912 C.3       4 GLY6        0.0000 
     51 CA         20.4565   31.0345   11.8303 C.3       4 GLY6        0.0000 
     52 CA         19.2935   31.3963   12.7058 C.3       4 GLY6        0.0000 
     53 CZ         25.7738   31.4745   13.5718 C.ar      3 PHE5        0.0000 
     54 CZ         24.6107   31.8363   14.4474 C.ar      3 PHE5        0.0000 
     55 CA         24.8600   30.6801   12.6864 C.3       4 GLY6        0.0000 
     56 DU         23.6970   31.0419   13.5619 H         5 CUB7        0.0000 
     57 CZ         22.5340   31.4037   14.4375 C.ar      3 PHE5        0.0000 
     58 CZ         21.3710   31.7655   15.3130 C.ar      3 PHE5        0.0000 
     59 CA         22.7833   30.2474   12.6765 C.3       4 GLY6        0.0000 
     60 CA         21.6203   30.6092   13.5520 C.3       4 GLY6        0.0000 
     61 CA         20.4573   30.9710   14.4276 C.3       4 GLY6        0.0000 
     62 CA         20.7066   29.8147   12.6666 C.3       4 GLY6        0.0000 
     63 CA         19.5436   30.1765   13.5421 C.3       4 GLY6        0.0000 
     64 CZ         27.8513   31.8437   16.1791 C.ar      3 PHE5        0.0000 
     65 CZ         26.9376   31.0492   15.2936 C.ar      3 PHE5        0.0000 
     66 CZ         26.0239   30.2547   14.4082 C.ar      3 PHE5        0.0000 
     67 CZ         24.8609   30.6165   15.2837 C.ar      3 PHE5        0.0000 
     68 CZ         25.1102   29.4603   13.5228 C.ar      3 PHE5        0.0000 
     69 DU         23.9472   29.8221   14.3983 H         5 CUB7        0.0000 
     70 CZ         22.7842   30.1839   15.2738 C.ar      3 PHE5        0.0000 
     71 CZ         21.6212   30.5457   16.1493 C.ar      3 PHE5        0.0000 
     72 CZ         24.1965   28.6658   12.6374 C.ar      3 PHE5        0.0000 
     73 CZ         23.0335   29.0276   13.5129 C.ar      3 PHE5        0.0000 
     74 CA         21.8705   29.3894   14.3884 C.3       4 GLY6        0.0000 
     75 CA         20.7075   29.7512   15.2639 C.3       4 GLY6        0.0000 
     76 CA         19.5445   30.1130   16.1394 C.3       4 GLY6        0.0000 
     77 CA         20.9568   28.5949   13.5030 C.3       4 GLY6        0.0000 
     78 N          19.7938   28.9567   14.3785 N.2       2 ALA2        0.0000 
     79 CZ         26.0247   30.1912   17.0055 C.ar      3 PHE5        0.0000 
     80 CZ         25.1110   29.3967   16.1201 C.ar      3 PHE5        0.0000 
     81 CZ         23.9480   29.7585   16.9956 C.ar      3 PHE5        0.0000 
     82 CZ         22.7850   30.1203   17.8711 C.ar      3 PHE5        0.0000 
     83 CZ         25.3603   28.2405   14.3592 C.ar      3 PHE5        0.0000 
     84 CZ         24.1973   28.6023   15.2347 C.ar      3 PHE5        0.0000 
     85 CZ         23.0343   28.9641   16.1102 C.ar      3 PHE5        0.0000 
     86 CA         21.8713   29.3259   16.9857 C.3       4 GLY6        0.0000 
     87 OG         20.7083   29.6877   17.8612 O.2       1 SER1        0.0000 
     88 CA         20.9576   28.5314   16.1003 C.3       4 GLY6        0.0000 
     89 N          19.7946   28.8932   16.9758 N.2       2 ALA2        0.0000 
@<TRIPOS>BOND
@<TRIPOS>SUBSTRUCTURE
     1 SER1       87 GROUP   
     2 ALA2        7 GROUP   
     3 PHE5       27 GROUP   
     4 GLY6        1 GROUP   
     5 CUB7       12 GROUP   
@<TRIPOS>SET

