#    Name: 2h7j_H7J_1_INTS_M
#    Modification time : Tue Mar 25 15:41:52 2014

@<TRIPOS>MOLECULE
2h7j_H7J_1_INTS_M
   60     0     9     0     0
SMALL
NO_CHARGES


@<TRIPOS>ATOM
      1 CA         27.0475   40.2225   15.3965 C.3       3 GLC5        0.0000 
      2 CA         26.0160   38.5670   14.8800 C.3       9 GLL5        0.0000 
      3 CA         28.0790   41.8780   15.9130 C.3       6 GLP5        0.0000 
      4 CA         25.1190   38.9995   17.8095 C.3       3 GLC5        0.0000 
      5 CA         26.0240   38.0790   16.0490 C.3       9 GLL5        0.0000 
      6 CA         24.2140   39.9200   19.5700 C.3       6 GLP5        0.0000 
      7 CA         26.4765   40.0205   16.4740 C.3       3 GLC5        0.0000 
      8 CA         26.9290   41.9620   16.8990 C.3       6 GLP5        0.0000 
      9 O          22.4025   35.5195   14.4920 O.2       1 ALC1        0.0000 
     10 O          23.1910   35.2720   13.3030 O.2       7 ALL1        0.0000 
     11 O          21.6140   35.7670   15.6810 O.2       4 ALP1        0.0000 
     12 CA         22.5720   33.4550    9.3835 C.3       3 GLC5        0.0000 
     13 CA         22.7690   34.0180   11.2050 C.3       9 GLL5        0.0000 
     14 CA         22.3750   32.8920    7.5620 C.3       6 GLP5        0.0000 
     15 CA         19.7305   35.3430   14.1665 C.3       3 GLC5        0.0000 
     16 CA         21.0910   34.0240   13.0930 C.3       9 GLL5        0.0000 
     17 CA         18.3700   36.6620   15.2400 C.3       6 GLP5        0.0000 
     18 CA         22.7950   32.8345   15.6390 C.3       3 GLC5        0.0000 
     19 CA         21.6810   32.8010   13.8140 C.3       9 GLL5        0.0000 
     20 CA         23.9090   32.8680   17.4640 C.3       6 GLP5        0.0000 
     21 CA         18.8165   35.2995   11.4080 C.3       3 GLC5        0.0000 
     22 CA         19.8950   33.6070   12.2310 C.3       9 GLL5        0.0000 
     23 CA         17.7380   36.9920   10.5850 C.3       6 GLP5        0.0000 
     24 CA         19.3225   33.6345   10.2665 C.3       3 GLC5        0.0000 
     25 CA         18.7500   33.6620    8.3020 C.3       6 GLP5        0.0000 
     26 CA         18.2165   33.3820   11.7890 C.3       3 GLC5        0.0000 
     27 CA         16.5380   33.1570   11.3470 C.3       6 GLP5        0.0000 
     28 CA         22.0075   38.0620   12.7660 C.3       3 GLC5        0.0000 
     29 CA         21.5360   36.1200   11.8600 C.3       9 GLL5        0.0000 
     30 CA         22.4790   40.0040   13.6720 C.3       6 GLP5        0.0000 
     31 N          21.5925   37.6610   14.0945 N.am      2 SEC2        0.0000 
     32 N          21.0780   36.9440   12.8050 N.am      8 SEL2        0.0000 
     33 N          22.1070   38.3780   15.3840 N.am      5 SEP2        0.0000 
     34 CA         20.0730   35.0720    9.3670 C.3       3 GLC5        0.0000 
     35 CA         21.3960   36.4820   10.4320 C.3       9 GLL5        0.0000 
     36 CA         19.0200   37.8125   10.1870 C.3       3 GLC5        0.0000 
     37 CA         20.3020   38.6330    9.7890 C.3       9 GLL5        0.0000 
     38 CA         18.2325   37.1245    9.5795 C.3       3 GLC5        0.0000 
     39 CA         18.7270   37.2570    8.5740 C.3       9 GLL5        0.0000 
     40 CA         18.7385   35.4595    8.4380 C.3       3 GLC5        0.0000 
     41 N          17.0490   40.1575    8.7625 N.am      2 SEC2        0.0000 
     42 N          18.2180   39.3980    9.4020 N.am      8 SEL2        0.0000 
     43 N          15.8800   40.9170    8.1230 N.am      5 SEP2        0.0000 
     44 N          17.1680   39.3745   10.6250 N.am      2 SEC2        0.0000 
     45 N          16.1180   39.3510   11.8480 N.am      5 SEP2        0.0000 
     46 CA         24.0385   38.9724   14.0548 C.3       3 GLC5        0.0000 
     47 CA         25.4460   37.8820   13.8800 C.3       9 GLL5        0.0000 
     48 CA         19.1152   33.0944   14.1431 C.3       3 GLC5        0.0000 
     49 CA         17.5900   32.6790   15.4440 C.3       6 GLP5        0.0000 
     50 CA         19.6020   36.6465   10.8655 C.3       3 GLC5        0.0000 
     51 CA         19.8612   40.8280    9.9042 C.3       3 GLC5        0.0000 
     52 CA         19.0020   42.4330   10.2210 C.3       6 GLP5        0.0000 
     53 CA         22.1822   39.8558   11.5437 C.3       3 GLC5        0.0000 
     54 CA         21.1390   39.8130    9.3860 C.3       9 GLL5        0.0000 
     55 CA         23.9025   41.9655   10.7550 C.3       3 GLC5        0.0000 
     56 CA         23.3950   40.6400    9.1110 C.3       9 GLL5        0.0000 
     57 CA         23.6580   43.3530   12.3840 C.3       6 GLP5        0.0000 
     58 CA         23.7610   37.5293   15.9942 C.3       3 GLC5        0.0000 
     59 CA         25.4560   36.9600   16.2560 C.3       9 GLL5        0.0000 
     60 CA         22.1230   37.8370   16.7340 C.3       6 GLP5        0.0000 
@<TRIPOS>BOND
@<TRIPOS>SUBSTRUCTURE
     1 ALC1        9 GROUP        1 X    ALC  0     ROOT ALC X 1
     2 SEC2       31 GROUP        1 X    SEC  0     **** SEC X 2
     3 GLC5        1 GROUP        1 X    GLC  0     **** GLC X 6
     4 ALP1       11 GROUP        1 Y    ALP  0     ROOT ALP Y 8
     5 SEP2       33 GROUP        1 Y    SEP  0     **** SEP Y 9
     6 GLP5        3 GROUP        1 Y    GLP  0     **** GLP Y 13
     7 ALL1       10 GROUP        1 Z    ALL  0     ROOT ALL Z 15
     8 SEL2       32 GROUP        1 Z    SEL  0     **** SEL Z 16
     9 GLL5        2 GROUP        1 Z    GLL  0     **** GLL Z 20
@<TRIPOS>SET

