#    Name: 2h7j_H7J_1_ligand
#    Modification time : Tue Mar 25 15:41:52 2014

@<TRIPOS>MOLECULE
2h7j_H7J_1_ligand
   55    56     1     0     0
SMALL
NO_CHARGES


@<TRIPOS>ATOM
      1 O25        24.5310   36.3290   11.8470 O.2       1 H7J300      0.0000 
      2 C18        24.2840   35.9960   13.0060 C.2       1 H7J300      0.0000 
      3 C19        24.9140   36.7470   14.1100 C.ar      1 H7J300      0.0000 
      4 C24        25.4460   37.8820   13.8800 C.ar      1 H7J300      0.0000 
      5 C23        26.0160   38.5670   14.8800 C.ar      1 H7J300      0.0000 
      6 C22        26.0240   38.0790   16.0490 C.ar      1 H7J300      0.0000 
      7 C21        25.4560   36.9600   16.2560 C.ar      1 H7J300      0.0000 
      8 C20        24.9400   36.2890   15.3020 C.ar      1 H7J300      0.0000 
      9 N17        23.1910   35.2720   13.3030 N.am      1 H7J300      0.0000 
     10 C14        22.1670   34.8440   12.3470 C.3       1 H7J300      0.0000 
     11 C16        22.7690   34.0180   11.2050 C.3       1 H7J300      0.0000 
     12 C15        21.0910   34.0240   13.0930 C.3       1 H7J300      0.0000 
     13 C27        21.6810   32.8010   13.8140 C.3       1 H7J300      0.0000 
     14 C26        19.8950   33.6070   12.2310 C.3       1 H7J300      0.0000 
     15 C12        21.5360   36.1200   11.8600 C.2       1 H7J300      0.0000 
     16 N11        21.0780   36.9440   12.8050 N.2       1 H7J300      0.0000 
     17 N10        20.5450   38.0200   12.0790 N.2       1 H7J300      0.0000 
     18 C13        21.3960   36.4820   10.4320 C.2       1 H7J300      0.0000 
     19 N          20.7460   37.7500   10.7220 N.pl3     1 H7J300      0.0000 
     20 C4         20.3020   38.6330    9.7890 C.3       1 H7J300      0.0000 
     21 C2         19.0550   38.4980    9.3210 C.2       1 H7J300      0.0000 
     22 C          18.7270   37.2570    8.5740 C.3       1 H7J300      0.0000 
     23 O          18.2180   39.3980    9.4020 O.2       1 H7J300      0.0000 
     24 C5         21.1390   39.8130    9.3860 C.3       1 H7J300      0.0000 
     25 C7         22.6320   39.6020    9.4450 C.2       1 H7J300      0.0000 
     26 C8         23.3950   40.6400    9.1110 C.2       1 H7J300      0.0000 
     27 C9         24.8990   40.5160    9.1410 C.3       1 H7J300      0.0000 
     28 H          25.4529   38.3072   12.9136 H         1 H7J300      0.0000 
     29 H          26.4471   39.5053   14.6608 H         1 H7J300      0.0000 
     30 H          26.4983   38.5958   16.8476 H         1 H7J300      0.0000 
     31 H          25.4089   36.5692   17.2581 H         1 H7J300      0.0000 
     32 H          24.5197   35.3215   15.5037 H         1 H7J300      0.0000 
     33 H          23.0121   34.9601   14.3052 H         1 H7J300      0.0000 
     34 H          20.6841   34.6875   13.9021 H         1 H7J300      0.0000 
     35 H          21.6131   36.0939    9.7400 H         1 H7J300      0.0000 
     36 H          20.8450   37.8682    8.7285 H         1 H7J300      0.0000 
     37 H          20.8748   40.6825   10.0307 H         1 H7J300      0.0000 
     38 H          20.8615   40.1183    8.3510 H         1 H7J300      0.0000 
     39 H          22.9469   38.6990    9.7303 H         1 H7J300      0.0000 
     40 H          23.0389   41.5543    8.8232 H         1 H7J300      0.0000 
     41 H          23.4518   34.5372   10.6910 H         1 H7J300      0.0000 
     42 H          23.2214   33.1924   11.5422 H         1 H7J300      0.0000 
     43 H          22.0715   33.7239   10.5516 H         1 H7J300      0.0000 
     44 H          22.1256   32.1724   13.1759 H         1 H7J300      0.0000 
     45 H          22.3674   33.0648   14.4917 H         1 H7J300      0.0000 
     46 H          20.9776   32.2795   14.2970 H         1 H7J300      0.0000 
     47 H          20.1750   33.0387   11.4573 H         1 H7J300      0.0000 
     48 H          19.2256   33.0800   12.7546 H         1 H7J300      0.0000 
     49 H          19.4146   34.3990   11.8542 H         1 H7J300      0.0000 
     50 H          19.3009   37.1496    7.7621 H         1 H7J300      0.0000 
     51 H          18.8578   36.4400    9.1356 H         1 H7J300      0.0000 
     52 H          17.7763   37.2505    8.2639 H         1 H7J300      0.0000 
     53 H          25.3473   41.3670    8.8675 H         1 H7J300      0.0000 
     54 H          25.2347   40.2884   10.0551 H         1 H7J300      0.0000 
     55 H          25.2251   39.8010    8.5226 H         1 H7J300      0.0000 
@<TRIPOS>BOND
     1    2    1 2    
     2    3    2 1    
     3    9    2 am   
     4    4    3 ar   
     5    8    3 ar   
     6    5    4 ar   
     7   28    4 1    
     8    6    5 ar   
     9   29    5 1    
    10    7    6 ar   
    11   30    6 1    
    12    8    7 ar   
    13   31    7 1    
    14   32    8 1    
    15   10    9 1    
    16   33    9 1    
    17   11   10 1    
    18   12   10 1    
    19   15   10 1    
    20   41   11 1    
    21   42   11 1    
    22   43   11 1    
    23   13   12 1    
    24   14   12 1    
    25   34   12 1    
    26   44   13 1    
    27   45   13 1    
    28   46   13 1    
    29   47   14 1    
    30   48   14 1    
    31   49   14 1    
    32   16   15 1    
    33   18   15 2    
    34   17   16 2    
    35   19   17 1    
    36   19   18 1    
    37   35   18 1    
    38   20   19 1    
    39   21   20 1    
    40   24   20 1    
    41   36   20 1    
    42   22   21 1    
    43   23   21 2    
    44   50   22 1    
    45   51   22 1    
    46   52   22 1    
    47   25   24 1    
    48   37   24 1    
    49   38   24 1    
    50   26   25 2    
    51   39   25 1    
    52   27   26 1    
    53   40   26 1    
    54   53   27 1    
    55   54   27 1    
    56   55   27 1    
@<TRIPOS>SUBSTRUCTURE
     1 H7J300      1 GROUP   
@<TRIPOS>SET

