#    Name: 3kry_3KR_4_INTS_M
#    Modification time : Mon Mar 24 20:24:42 2014

@<TRIPOS>MOLECULE
3kry_3KR_4_INTS_M
   72     0     9     0     0
SMALL
NO_CHARGES


@<TRIPOS>ATOM
      1 CA         19.5290   27.0485   10.2225 C.3       3 GLC5        0.0000 
      2 CA         17.6150   26.2660    9.9080 C.3       9 GLL5        0.0000 
      3 CA         21.4430   27.8310   10.5370 C.3       6 GLP5        0.0000 
      4 CA         15.3040   27.6880    8.7480 C.3       3 GLC5        0.0000 
      5 CA         16.4940   27.0920   10.0730 C.3       9 GLL5        0.0000 
      6 CA         14.1140   28.2840    7.4230 C.3       6 GLP5        0.0000 
      7 CA         15.6205   24.7570   12.9365 C.3       3 GLC5        0.0000 
      8 CA         15.2050   25.2000   10.8600 C.3       9 GLL5        0.0000 
      9 CA         16.0360   24.3140   15.0130 C.3       6 GLP5        0.0000 
     10 Zn         12.9350   23.9750    7.7000 Zn        2 ZIC7        0.0000 
     11 Zn         12.5860   23.7320    8.6950 Zn        8 ZIL7        0.0000 
     12 Zn         13.2840   24.2180    6.7050 Zn        5 ZIP7        0.0000 
     13 N          15.3265   22.2625   13.6590 N.am      1 SEC2        0.0000 
     14 N          15.2160   22.6000   12.4090 N.am      7 SEL2        0.0000 
     15 N          15.4370   21.9250   14.9090 N.am      4 SEP2        0.0000 
     16 N          14.1325   22.9260   13.4700 N.am      1 SEC2        0.0000 
     17 N          13.0490   23.2520   14.5310 N.am      4 SEP2        0.0000 
     18 Zn         14.1330   23.7475    7.3090 Zn        2 ZIC7        0.0000 
     19 Zn         14.9820   23.2770    7.9130 Zn        8 ZIL7        0.0000 
     20 CA         15.5360   17.4365   11.2090 C.3       3 GLC5        0.0000 
     21 CA         16.6230   17.2720    9.8330 C.3       9 GLL5        0.0000 
     22 CA         14.4490   17.6010   12.5850 C.3       6 GLP5        0.0000 
     23 CA         18.7275   17.7245   13.5825 C.3       3 GLC5        0.0000 
     24 CA         18.1220   16.9160   11.6090 C.3       9 GLL5        0.0000 
     25 CA         19.3330   18.5330   15.5560 C.3       6 GLP5        0.0000 
     26 CA         16.2855   17.2585   12.0970 C.3       3 GLC5        0.0000 
     27 CA         15.7270   29.3685    8.6795 C.3       3 GLC5        0.0000 
     28 CA         17.4980   29.1210    9.2780 C.3       9 GLL5        0.0000 
     29 CA         13.9560   29.6160    8.0810 C.3       6 GLP5        0.0000 
     30 CA         16.0455   28.5555    7.7085 C.3       3 GLC5        0.0000 
     31 CA         17.9770   28.8270    7.9940 C.3       9 GLL5        0.0000 
     32 N          22.2425   31.3055    7.8795 N.am      1 SEC2        0.0000 
     33 N          20.5650   31.3160    7.7950 N.am      7 SEL2        0.0000 
     34 N          23.9200   31.2950    7.9640 N.am      4 SEP2        0.0000 
     35 CA         20.0310   34.0385    9.8440 C.3       3 GLC5        0.0000 
     36 CA         20.0930   33.4910    8.1080 C.3       9 GLL5        0.0000 
     37 CA         19.9690   34.5860   11.5800 C.3       6 GLP5        0.0000 
     38 CA         21.5815   34.9305    8.2595 C.3       3 GLC5        0.0000 
     39 CA         23.0700   36.3700    8.4110 C.3       6 GLP5        0.0000 
     40 CA         18.4205   32.3190    5.0285 C.3       3 GLC5        0.0000 
     41 CA         19.7280   32.6100    6.1160 C.3       9 GLL5        0.0000 
     42 CA         17.1130   32.0280    3.9410 C.3       6 GLP5        0.0000 
     43 CA         23.2720   31.9260    7.9195 C.3       3 GLC5        0.0000 
     44 CA         21.7770   32.9930    6.8070 C.3       9 GLL5        0.0000 
     45 CA         24.7670   30.8590    9.0320 C.3       6 GLP5        0.0000 
     46 CA         22.7455   34.4075    6.9685 C.3       3 GLC5        0.0000 
     47 CA         23.7140   35.8220    7.1300 C.3       6 GLP5        0.0000 
     48 CA         17.6000   24.9748   12.4165 C.3       3 GLC5        0.0000 
     49 CA         17.5240   24.9110   10.2140 C.3       9 GLL5        0.0000 
     50 CA         18.2780   25.3030   14.3810 C.3       6 GLP5        0.0000 
     51 CA         14.3867   26.4845    9.1855 C.3       3 GLC5        0.0000 
     52 CA         15.3020   26.5520   10.5480 C.3       9 GLL5        0.0000 
     53 CA         13.5200   27.0930    7.6670 C.3       6 GLP5        0.0000 
     54 CA         14.8382   27.1190   12.0191 C.3       3 GLC5        0.0000 
     55 CA         14.1250   28.2270   13.4530 C.3       6 GLP5        0.0000 
     56 CA         17.2772   21.9405    6.8750 C.3       3 GLC5        0.0000 
     57 CA         16.7840   21.4380    8.8620 C.3       9 GLL5        0.0000 
     58 CA         17.9000   22.9800    5.4230 C.3       6 GLP5        0.0000 
     59 CA         14.5718   18.8197   11.1165 C.3       3 GLC5        0.0000 
     60 CA         14.5370   19.5300    9.0940 C.3       9 GLL5        0.0000 
     61 CA         16.2210   30.0277   11.0042 C.3       3 GLC5        0.0000 
     62 CA         14.6710   30.4290   12.3420 C.3       6 GLP5        0.0000 
     63 CA         19.5903   28.4025    9.5865 C.3       3 GLC5        0.0000 
     64 CA         20.3645   28.9678    9.2093 C.3       3 GLC5        0.0000 
     65 CA         19.0170   29.5950    7.4900 C.3       9 GLL5        0.0000 
     66 CA         18.0790   32.1300   10.7935 C.3       3 GLC5        0.0000 
     67 CA         19.0860   30.8900    9.5490 C.3       9 GLL5        0.0000 
     68 CA         17.5930   33.7490   11.7850 C.3       6 GLP5        0.0000 
     69 CA         20.0040   29.1710   10.1695 C.3       3 GLC5        0.0000 
     70 CA         18.2145   33.0960    7.2050 C.3       3 GLC5        0.0000 
     71 CA         20.5410   32.6190    7.1900 C.3       9 GLL5        0.0000 
     72 CA         16.1120   33.1370    6.7610 C.3       6 GLP5        0.0000 
@<TRIPOS>BOND
@<TRIPOS>SUBSTRUCTURE
     1 SEC2       13 GROUP        1 X    SEC  0     ROOT SEC X 2
     2 ZIC7       10 GROUP        1 X    ZIC  0     **** ZIC X 5
     3 GLC5        1 GROUP        1 X    GLC  0     **** GLC X 6
     4 SEP2       15 GROUP        1 Y    SEP  0     ROOT SEP Y 9
     5 ZIP7       12 GROUP        1 Y    ZIP  0     **** ZIP Y 12
     6 GLP5        3 GROUP        1 Y    GLP  0     **** GLP Y 13
     7 SEL2       14 GROUP        1 Z    SEL  0     ROOT SEL Z 16
     8 ZIL7       11 GROUP        1 Z    ZIL  0     **** ZIL Z 19
     9 GLL5        2 GROUP        1 Z    GLL  0     **** GLL Z 20
@<TRIPOS>SET

