#    Name: 3kry_3KR_4_ligand
#    Modification time : Mon Mar 24 20:24:42 2014

@<TRIPOS>MOLECULE
3kry_3KR_4_ligand
   59    61     1     0     0
SMALL
NO_CHARGES


@<TRIPOS>ATOM
      1 S1         16.2140   22.7270   11.0490 S.o2      1 3KR4800     0.0000 
      2 C2         16.3200   24.3820   10.6900 C.ar      1 3KR4800     0.0000 
      3 C3         17.5240   24.9110   10.2140 C.ar      1 3KR4800     0.0000 
      4 C4         17.6150   26.2660    9.9080 C.ar      1 3KR4800     0.0000 
      5 C5         16.4940   27.0920   10.0730 C.ar      1 3KR4800     0.0000 
      6 C6         15.3020   26.5520   10.5480 C.ar      1 3KR4800     0.0000 
      7 C7         15.2050   25.2000   10.8600 C.ar      1 3KR4800     0.0000 
      8 C8         15.5590   21.8320    9.7240 C.3       1 3KR4800     0.0000 
      9 C9         14.5810   22.7080    8.9210 C.2       1 3KR4800     0.0000 
     10 N10        13.2810   22.8900    9.2650 N.2       1 3KR4800     0.0000 
     11 O11        12.5860   23.7320    8.6950 O.2       1 3KR4800     0.0000 
     12 O12        15.2160   22.6000   12.4090 O.2       1 3KR4800     0.0000 
     13 O13        17.7940   22.2310   11.4430 O.2       1 3KR4800     0.0000 
     14 O14        14.9820   23.2770    7.9130 O.2       1 3KR4800     0.0000 
     15 C15        16.7840   21.4380    8.8620 C.3       1 3KR4800     0.0000 
     16 C16        16.5250   20.3640    7.7920 C.3       1 3KR4800     0.0000 
     17 N17        15.8240   19.2030    8.4080 N.4       1 3KR4800     0.0000 
     18 C18        14.5370   19.5300    9.0940 C.3       1 3KR4800     0.0000 
     19 C19        14.8520   20.5470   10.2020 C.3       1 3KR4800     0.0000 
     20 C20        16.4530   17.8460    8.4190 C.3       1 3KR4800     0.0000 
     21 C21        16.6230   17.2720    9.8330 C.3       1 3KR4800     0.0000 
     22 O22        17.8220   17.7350   10.4720 O.3       1 3KR4800     0.0000 
     23 C23        18.1220   16.9160   11.6090 C.3       1 3KR4800     0.0000 
     24 O24        16.5150   28.4010    9.7920 O.3       1 3KR4800     0.0000 
     25 C25        17.4980   29.1210    9.2780 C.ar      1 3KR4800     0.0000 
     26 C26        17.9770   28.8270    7.9940 C.ar      1 3KR4800     0.0000 
     27 C27        19.0170   29.5950    7.4900 C.ar      1 3KR4800     0.0000 
     28 C28        19.5550   30.6140    8.2730 C.ar      1 3KR4800     0.0000 
     29 C29        19.0860   30.8900    9.5490 C.ar      1 3KR4800     0.0000 
     30 C30        18.0440   30.1320   10.0550 C.ar      1 3KR4800     0.0000 
     31 O31        20.5650   31.3160    7.7950 O.3       1 3KR4800     0.0000 
     32 C32        20.5410   32.6190    7.1900 C.3       1 3KR4800     0.0000 
     33 F33        20.0930   33.4910    8.1080 F         1 3KR4800     0.0000 
     34 F34        19.7280   32.6100    6.1160 F         1 3KR4800     0.0000 
     35 F35        21.7770   32.9930    6.8070 F         1 3KR4800     0.0000 
     36 H          18.3382   24.2983   10.0914 H         1 3KR4800     0.0000 
     37 H          18.4943   26.6619    9.5638 H         1 3KR4800     0.0000 
     38 H          14.4779   27.1647   10.6703 H         1 3KR4800     0.0000 
     39 H          14.3272   24.8104   11.2097 H         1 3KR4800     0.0000 
     40 H          17.5862   21.0839    9.5364 H         1 3KR4800     0.0000 
     41 H          17.1704   22.3489    8.3673 H         1 3KR4800     0.0000 
     42 H          17.4800   20.0541    7.3756 H         1 3KR4800     0.0000 
     43 H          15.9166   20.8010    7.0043 H         1 3KR4800     0.0000 
     44 H          15.1454   18.9418    7.1911 H         1 3KR4800     0.0000 
     45 H          14.1131   18.6470    9.5429 H         1 3KR4800     0.0000 
     46 H          13.8420   19.9748    8.4012 H         1 3KR4800     0.0000 
     47 H          13.9103   20.8293   10.7049 H         1 3KR4800     0.0000 
     48 H          15.4851   20.0593   10.9640 H         1 3KR4800     0.0000 
     49 H          17.4444   17.8886    7.9412 H         1 3KR4800     0.0000 
     50 H          15.8401   17.1441    7.8319 H         1 3KR4800     0.0000 
     51 H          16.6122   16.1697    9.7460 H         1 3KR4800     0.0000 
     52 H          15.7236   17.5500   10.4132 H         1 3KR4800     0.0000 
     53 H          17.5699   28.0717    7.4528 H         1 3KR4800     0.0000 
     54 H          19.3871   29.4166    6.5523 H         1 3KR4800     0.0000 
     55 H          19.5029   31.6393   10.1042 H         1 3KR4800     0.0000 
     56 H          17.6783   30.3153   10.9955 H         1 3KR4800     0.0000 
     57 H          18.2633   15.9602   11.3513 H         1 3KR4800     0.0000 
     58 H          18.9523   17.2193   12.0765 H         1 3KR4800     0.0000 
     59 H          17.3837   16.9318   12.2832 H         1 3KR4800     0.0000 
@<TRIPOS>BOND
     1    2    1 1    
     2    8    1 1    
     3   12    1 2    
     4   13    1 2    
     5    3    2 ar   
     6    7    2 ar   
     7    4    3 ar   
     8   36    3 1    
     9    5    4 ar   
    10   37    4 1    
    11    6    5 ar   
    12   24    5 1    
    13    7    6 ar   
    14   38    6 1    
    15   39    7 1    
    16    9    8 1    
    17   15    8 1    
    18   19    8 1    
    19   10    9 1    
    20   14    9 2    
    21   11   10 2    
    22   16   15 1    
    23   40   15 1    
    24   41   15 1    
    25   17   16 1    
    26   42   16 1    
    27   43   16 1    
    28   18   17 1    
    29   20   17 1    
    30   44   17 1    
    31   19   18 1    
    32   45   18 1    
    33   46   18 1    
    34   47   19 1    
    35   48   19 1    
    36   21   20 1    
    37   49   20 1    
    38   50   20 1    
    39   22   21 1    
    40   51   21 1    
    41   52   21 1    
    42   23   22 1    
    43   57   23 1    
    44   58   23 1    
    45   59   23 1    
    46   25   24 1    
    47   26   25 ar   
    48   30   25 ar   
    49   27   26 ar   
    50   53   26 1    
    51   28   27 ar   
    52   54   27 1    
    53   29   28 ar   
    54   31   28 1    
    55   30   29 ar   
    56   55   29 1    
    57   56   30 1    
    58   32   31 1    
    59   33   32 1    
    60   34   32 1    
    61   35   32 1    
@<TRIPOS>SUBSTRUCTURE
     1 3KR4800     1 GROUP   
@<TRIPOS>SET

