#    Name: 1z5v_GSP_1_INTS_M
#    Modification time : Mon Apr  7 16:53:04 2014

@<TRIPOS>MOLECULE
1z5v_GSP_1_INTS_M
   71     0    12     0     0
SMALL
NO_CHARGES


@<TRIPOS>ATOM
      1 CA          9.3280  -14.5015   11.2995 C.3       4 GLC5        0.0000 
      2 CA         10.3090  -14.8310   13.0980 C.3      12 GLL5        0.0000 
      3 CA          8.3470  -14.1720    9.5010 C.3       8 GLP5        0.0000 
      4 Zn          8.8315  -13.5285   16.1035 Zn        3 ZIC7        0.0000 
      5 Zn          8.6870  -13.4950   15.1440 Zn       11 ZIL7        0.0000 
      6 Zn          8.9760  -13.5620   17.0630 Zn        7 ZIP7        0.0000 
      7 O           7.8235  -12.0695   15.2725 O.2       1 ALC1        0.0000 
      8 O           8.6870  -13.4950   15.1440 O.2       9 ALL1        0.0000 
      9 O           6.9600  -10.6440   15.4010 O.2       5 ALP1        0.0000 
     10 N           8.1005  -13.1975   11.5045 N.am      2 SEC2        0.0000 
     11 N           9.0840  -12.5580   12.7610 N.am     10 SEL2        0.0000 
     12 N           7.1170  -13.8370   10.2480 N.am      6 SEP2        0.0000 
     13 N           9.8020  -11.5905   12.1495 N.am      2 SEC2        0.0000 
     14 N          10.5200  -10.6230   11.5380 N.am      6 SEP2        0.0000 
     15 N           8.7015  -11.0300   12.9910 N.am      2 SEC2        0.0000 
     16 N           8.3190   -9.5020   13.2210 N.am      6 SEP2        0.0000 
     17 N          10.0170   -8.9935   15.0195 N.am      2 SEC2        0.0000 
     18 N          10.3240  -10.4540   14.9210 N.am     10 SEL2        0.0000 
     19 N           9.7100   -7.5330   15.1180 N.am      6 SEP2        0.0000 
     20 Zn          9.8730  -12.5860   17.0600 Zn        3 ZIC7        0.0000 
     21 Zn         10.7700  -11.6100   17.0570 Zn       11 ZIL7        0.0000 
     22 N          10.8665  -11.5425   18.4545 N.am      2 SEC2        0.0000 
     23 N          10.7700  -11.6100   17.0570 N.am     10 SEL2        0.0000 
     24 N          10.9630  -11.4750   19.8520 N.am      6 SEP2        0.0000 
     25 N          13.7940  -11.3860   18.8980 N.am      2 SEC2        0.0000 
     26 N          13.7970  -12.0310   17.6100 N.am     10 SEL2        0.0000 
     27 N          13.7910  -10.7410   20.1860 N.am      6 SEP2        0.0000 
     28 N          13.5625   -9.6830   15.4695 N.am      2 SEC2        0.0000 
     29 N          12.6890  -11.1290   15.5700 N.am     10 SEL2        0.0000 
     30 N          14.4360   -8.2370   15.3690 N.am      6 SEP2        0.0000 
     31 N          14.8120   -9.7835   15.4830 N.am      2 SEC2        0.0000 
     32 N          15.1880  -11.3300   15.5970 N.am     10 SEL2        0.0000 
     33 CA         14.4155  -11.1330   13.0245 C.3       4 GLC5        0.0000 
     34 CA         15.8720  -11.6310   14.3310 C.3      12 GLL5        0.0000 
     35 CA         12.9590  -10.6350   11.7180 C.3       8 GLP5        0.0000 
     36 N          18.9735  -11.5955   11.6700 N.am      2 SEC2        0.0000 
     37 N          19.3400  -10.8920   13.2190 N.am     10 SEL2        0.0000 
     38 N          18.6070  -12.2990   10.1210 N.am      6 SEP2        0.0000 
     39 CA         19.3715   -9.1395   16.8580 C.3       4 GLC5        0.0000 
     40 CA         18.6960  -11.1300   16.3070 C.3      12 GLL5        0.0000 
     41 CA         20.0470   -7.1490   17.4090 C.3       8 GLP5        0.0000 
     42 CA         16.7615  -10.5480   19.4805 C.3       4 GLC5        0.0000 
     43 CA         18.0530  -11.7420   19.8530 C.3      12 GLL5        0.0000 
     44 CA         15.4700   -9.3540   19.1080 C.3       8 GLP5        0.0000 
     45 N          16.9105  -12.9335   22.5995 N.am      2 SEC2        0.0000 
     46 N          17.8070  -11.9970   22.1970 N.am     10 SEL2        0.0000 
     47 N          16.0140  -13.8700   23.0020 N.am      6 SEP2        0.0000 
     48 N          18.4570  -11.6165   23.4615 N.am      2 SEC2        0.0000 
     49 N          19.1070  -11.2360   24.7260 N.am      6 SEP2        0.0000 
     50 O          20.0775  -10.3160   22.4695 O.2       1 ALC1        0.0000 
     51 O          19.5610  -10.6820   21.3060 O.2       9 ALL1        0.0000 
     52 O          20.5940   -9.9500   23.6330 O.2       5 ALP1        0.0000 
     53 O          22.1900   -9.1545   19.2805 O.2       1 ALC1        0.0000 
     54 O          21.3150   -9.3660   20.4480 O.2       9 ALL1        0.0000 
     55 O          23.0650   -8.9430   18.1130 O.2       5 ALP1        0.0000 
     56 O          20.9545   -9.6580   22.0405 O.2       1 ALC1        0.0000 
     57 N          20.9310  -10.2510   17.7520 N.am      2 SEC2        0.0000 
     58 N          19.9040  -10.3480   18.9310 N.am     10 SEL2        0.0000 
     59 N          21.9580  -10.1540   16.5730 N.am      6 SEP2        0.0000 
     60 CA         17.8070   -9.6740   19.0425 C.3       4 GLC5        0.0000 
     61 CA         18.7880  -11.1630   18.8180 C.3      12 GLL5        0.0000 
     62 CA         16.8260   -8.1850   19.2670 C.3       8 GLP5        0.0000 
     63 CA         19.4175   -9.1560   18.1135 C.3       4 GLC5        0.0000 
     64 CA         16.1138   -9.4740   15.0395 C.3       4 GLC5        0.0000 
     65 CA         17.1950  -10.8850   14.3630 C.3      12 GLL5        0.0000 
     66 CA         15.6940   -7.6900   15.7320 C.3       8 GLP5        0.0000 
     67 CA         17.1099  -10.4410   12.3840 C.3       4 GLC5        0.0000 
     68 CA         16.7470   -9.3670   10.6320 C.3       8 GLP5        0.0000 
     69 CA         19.5055  -13.0248   16.9423 C.3       4 GLC5        0.0000 
     70 CA         19.0680  -12.2710   15.2780 C.3      12 GLL5        0.0000 
     71 CA         20.1290  -14.3490   18.0920 C.3       8 GLP5        0.0000 
@<TRIPOS>BOND
@<TRIPOS>SUBSTRUCTURE
     1 ALC1        7 GROUP        1 X    ALC  0     ROOT ALC X 1
     2 SEC2       10 GROUP        1 X    SEC  0     **** SEC X 2
     3 ZIC7        4 GROUP        1 X    ZIC  0     **** ZIC X 5
     4 GLC5        1 GROUP        1 X    GLC  0     **** GLC X 6
     5 ALP1        9 GROUP        1 Y    ALP  0     ROOT ALP Y 8
     6 SEP2       12 GROUP        1 Y    SEP  0     **** SEP Y 9
     7 ZIP7        6 GROUP        1 Y    ZIP  0     **** ZIP Y 12
     8 GLP5        3 GROUP        1 Y    GLP  0     **** GLP Y 13
     9 ALL1        8 GROUP        1 Z    ALL  0     ROOT ALL Z 15
    10 SEL2       11 GROUP        1 Z    SEL  0     **** SEL Z 16
    11 ZIL7        5 GROUP        1 Z    ZIL  0     **** ZIL Z 19
    12 GLL5        2 GROUP        1 Z    GLL  0     **** GLL Z 20
@<TRIPOS>SET

