#    Name: 1z5v_GSP_1_ligand
#    Modification time : Mon Apr  7 16:53:04 2014

@<TRIPOS>MOLECULE
1z5v_GSP_1_ligand
   46    48     1     0     0
SMALL
NO_CHARGES


@<TRIPOS>ATOM
      1 PG          9.5430  -13.3480   13.9420 P.3       1 GSP2466     0.0000 
      2 O3B        10.9330  -12.7580   14.5880 O.3       1 GSP2466     0.0000 
      3 S1G        10.3090  -14.8310   13.0980 S.2       1 GSP2466     0.0000 
      4 O2G         8.6870  -13.4950   15.1440 O.3       1 GSP2466     0.0000 
      5 O3G         9.0840  -12.5580   12.7610 O.3       1 GSP2466     0.0000 
      6 PB         11.1070  -11.4560   15.6080 P.3       1 GSP2466     0.0000 
      7 O1B        10.3240  -10.4540   14.9210 O.co2     1 GSP2466     0.0000 
      8 O2B        10.7700  -11.6100   17.0570 O.co2     1 GSP2466     0.0000 
      9 PA         13.8070  -12.0820   16.1140 P.3       1 GSP2466     0.0000 
     10 O1A        13.7970  -12.0310   17.6100 O.co2     1 GSP2466     0.0000 
     11 O2A        13.7040  -13.3680   15.3480 O.co2     1 GSP2466     0.0000 
     12 O3A        12.6890  -11.1290   15.5700 O.3       1 GSP2466     0.0000 
     13 O5'        15.1880  -11.3300   15.5970 O.3       1 GSP2466     0.0000 
     14 C5'        15.8720  -11.6310   14.3310 C.3       1 GSP2466     0.0000 
     15 C4'        17.1950  -10.8850   14.3630 C.3       1 GSP2466     0.0000 
     16 O4'        17.5240  -10.4880   15.7430 O.3       1 GSP2466     0.0000 
     17 C3'        18.4120  -11.7720   13.9250 C.3       1 GSP2466     0.0000 
     18 O3'        19.3400  -10.8920   13.2190 O.3       1 GSP2466     0.0000 
     19 C2'        19.0680  -12.2710   15.2780 C.3       1 GSP2466     0.0000 
     20 O2'        20.5150  -12.4370   15.1330 O.3       1 GSP2466     0.0000 
     21 C1'        18.6960  -11.1300   16.3070 C.3       1 GSP2466     0.0000 
     22 N9         18.1960  -11.5620   17.6530 N.pl3     1 GSP2466     0.0000 
     23 C8         17.1360  -12.3530   18.0650 C.2       1 GSP2466     0.0000 
     24 N7         16.9900  -12.5070   19.3500 N.2       1 GSP2466     0.0000 
     25 C5         18.0530  -11.7420   19.8530 C.2       1 GSP2466     0.0000 
     26 C6         18.4290  -11.5120   21.2450 C.2       1 GSP2466     0.0000 
     27 O6         17.8070  -11.9970   22.1970 O.2       1 GSP2466     0.0000 
     28 N1         19.5610  -10.6820   21.3060 N.am      1 GSP2466     0.0000 
     29 C2         20.2620  -10.1290   20.2290 C.2       1 GSP2466     0.0000 
     30 N2         21.3150   -9.3660   20.4480 N.pl3     1 GSP2466     0.0000 
     31 N3         19.9040  -10.3480   18.9310 N.2       1 GSP2466     0.0000 
     32 C4         18.7880  -11.1630   18.8180 C.2       1 GSP2466     0.0000 
     33 H          15.2942  -11.2831   13.4885 H         1 GSP2466     0.0000 
     34 H          16.0684  -12.6883   14.2409 H         1 GSP2466     0.0000 
     35 H          17.1713  -10.0312   13.7339 H         1 GSP2466     0.0000 
     36 H          18.0770  -12.5719   13.3824 H         1 GSP2466     0.0000 
     37 H          18.5596  -13.1468   15.5704 H         1 GSP2466     0.0000 
     38 H          19.4805  -10.4448   16.3810 H         1 GSP2466     0.0000 
     39 H          16.5236  -12.7756   17.3654 H         1 GSP2466     0.0000 
     40 H          19.9272  -10.4473   22.2899 H         1 GSP2466     0.0000 
     41 H          21.7426   -8.9634   19.6387 H         1 GSP2466     0.0000 
     42 H          21.5901   -9.2594   21.4035 H         1 GSP2466     0.0000 
     43 H           8.1886  -12.6309   15.2139 H         1 GSP2466     0.0000 
     44 H           8.4242  -11.9027   13.1287 H         1 GSP2466     0.0000 
     45 H          20.2232  -11.0357   13.6655 H         1 GSP2466     0.0000 
     46 H          20.6688  -13.4236   15.1862 H         1 GSP2466     0.0000 
@<TRIPOS>BOND
     1    2    1 1    
     2    3    1 2    
     3    4    1 1    
     4    5    1 1    
     5    6    2 1    
     6   43    4 1    
     7   44    5 1    
     8    7    6 ar   
     9    8    6 ar   
    10   12    6 1    
    11   10    9 ar   
    12   11    9 ar   
    13   12    9 1    
    14   13    9 1    
    15   14   13 1    
    16   15   14 1    
    17   33   14 1    
    18   34   14 1    
    19   16   15 1    
    20   17   15 1    
    21   35   15 1    
    22   21   16 1    
    23   18   17 1    
    24   19   17 1    
    25   36   17 1    
    26   45   18 1    
    27   20   19 1    
    28   21   19 1    
    29   37   19 1    
    30   46   20 1    
    31   22   21 1    
    32   38   21 1    
    33   23   22 1    
    34   32   22 1    
    35   24   23 2    
    36   39   23 1    
    37   25   24 1    
    38   26   25 1    
    39   32   25 2    
    40   27   26 2    
    41   28   26 am   
    42   29   28 1    
    43   40   28 1    
    44   30   29 1    
    45   31   29 2    
    46   41   30 1    
    47   42   30 1    
    48   32   31 1    
@<TRIPOS>SUBSTRUCTURE
     1 GSP2466     1 GROUP   
@<TRIPOS>SET

