#    Name: 1x7j_GEN_1_INTS_M
#    Modification time : Tue Mar 25 09:39:02 2014

@<TRIPOS>MOLECULE
1x7j_GEN_1_INTS_M
   54     0     9     0     0
SMALL
NO_CHARGES


@<TRIPOS>ATOM
      1 CA         34.2285   33.8135   37.6140 C.3       3 GLC5        0.0000 
      2 CA         33.3210   35.5550   37.7830 C.3       9 GLL5        0.0000 
      3 CA         35.1360   32.0720   37.4450 C.3       6 GLP5        0.0000 
      4 CA         34.4000   34.7425   35.6295 C.3       3 GLC5        0.0000 
      5 CA         33.6440   36.3730   36.6620 C.3       9 GLL5        0.0000 
      6 CA         35.1560   33.1120   34.5970 C.3       6 GLP5        0.0000 
      7 N          35.4335   36.9220   35.0635 N.am      2 SEC2        0.0000 
      8 N          34.9220   36.1980   36.1290 N.am      8 SEL2        0.0000 
      9 N          35.9450   37.6460   33.9980 N.am      5 SEP2        0.0000 
     10 CA         31.9685   38.0980   39.2455 C.3       3 GLC5        0.0000 
     11 CA         31.0970   36.6900   37.7710 C.3       9 GLL5        0.0000 
     12 CA         32.8400   39.5060   40.7200 C.3       6 GLP5        0.0000 
     13 CA         28.6550   37.8760   40.2140 C.3       3 GLC5        0.0000 
     14 CA         29.4790   35.9370   39.5690 C.3       9 GLL5        0.0000 
     15 CA         27.8310   39.8150   40.8590 C.3       6 GLP5        0.0000 
     16 CA         30.0180   33.4855   41.1815 C.3       3 GLC5        0.0000 
     17 CA         30.4490   35.0340   40.0410 C.3       9 GLL5        0.0000 
     18 CA         29.5870   31.9370   42.3220 C.3       6 GLP5        0.0000 
     19 CA         32.3780   36.5750   40.2415 C.3       3 GLC5        0.0000 
     20 CA         32.0060   35.7180   38.3560 C.3       9 GLL5        0.0000 
     21 CA         32.7500   37.4320   42.1270 C.3       6 GLP5        0.0000 
     22 CA         27.1575   34.6475   38.0965 C.3       3 GLC5        0.0000 
     23 CA         26.8930   36.0980   39.6630 C.3       9 GLL5        0.0000 
     24 CA         27.4220   33.1970   36.5300 C.3       6 GLP5        0.0000 
     25 CA         24.2125   37.5685   40.5840 C.3       3 GLC5        0.0000 
     26 CA         25.7190   36.0710   40.4700 C.3       9 GLL5        0.0000 
     27 CA         22.7060   39.0660   40.6980 C.3       6 GLP5        0.0000 
     28 N          23.7460   36.7685   43.3660 N.am      2 SEC2        0.0000 
     29 N          24.6180   35.8640   42.5510 N.am      8 SEL2        0.0000 
     30 N          22.8740   37.6730   44.1810 N.am      5 SEP2        0.0000 
     31 O          24.9110   35.1595   43.6960 O.2       1 ALC1        0.0000 
     32 O          24.6180   35.8640   42.5510 O.2       7 ALL1        0.0000 
     33 O          25.2040   34.4550   44.8410 O.2       4 ALP1        0.0000 
     34 CA         27.9760   33.7650   43.1420 C.3       3 GLC5        0.0000 
     35 CA         27.0460   35.6940   42.5990 C.3       9 GLL5        0.0000 
     36 CA         28.9060   31.8360   43.6850 C.3       6 GLP5        0.0000 
     37 CA         29.6030   37.4255   42.0550 C.3       3 GLC5        0.0000 
     38 CA         28.2590   35.7200   41.7980 C.3       9 GLL5        0.0000 
     39 CA         30.9470   39.1310   42.3120 C.3       6 GLP5        0.0000 
     40 CA         28.9230   33.8285   42.0600 C.3       3 GLC5        0.0000 
     41 CA         34.2602   37.3335   34.5757 C.3       3 GLC5        0.0000 
     42 CA         32.7590   37.3330   36.0770 C.3       9 GLL5        0.0000 
     43 CA         35.3190   37.8140   32.7820 C.3       6 GLP5        0.0000 
     44 CA         34.8914   37.0478   37.4619 C.3       3 GLC5        0.0000 
     45 CA         36.6620   37.4470   38.2740 C.3       6 GLP5        0.0000 
     46 CA         33.1414   38.7485   36.7134 C.3       3 GLC5        0.0000 
     47 CA         33.9510   40.3120   36.9330 C.3       6 GLP5        0.0000 
     48 CA         31.3570   36.4588   40.9660 C.3       3 GLC5        0.0000 
     49 CA         25.3830   36.3678   38.2812 C.3       3 GLC5        0.0000 
     50 CA         24.4600   36.6510   36.4960 C.3       6 GLP5        0.0000 
     51 CA         25.0817   34.4634   40.4529 C.3       3 GLC5        0.0000 
     52 CA         24.0980   32.9460   39.9440 C.3       6 GLP5        0.0000 
     53 CA         27.7167   36.3155   44.0542 C.3       3 GLC5        0.0000 
     54 CA         27.7810   36.9240   45.9100 C.3       6 GLP5        0.0000 
@<TRIPOS>BOND
@<TRIPOS>SUBSTRUCTURE
     1 ALC1       31 GROUP        1 X    ALC  0     ROOT ALC X 1
     2 SEC2        7 GROUP        1 X    SEC  0     **** SEC X 2
     3 GLC5        1 GROUP        1 X    GLC  0     **** GLC X 6
     4 ALP1       33 GROUP        1 Y    ALP  0     ROOT ALP Y 8
     5 SEP2        9 GROUP        1 Y    SEP  0     **** SEP Y 9
     6 GLP5        3 GROUP        1 Y    GLP  0     **** GLP Y 13
     7 ALL1       32 GROUP        1 Z    ALL  0     ROOT ALL Z 15
     8 SEL2        8 GROUP        1 Z    SEL  0     **** SEL Z 16
     9 GLL5        2 GROUP        1 Z    GLL  0     **** GLL Z 20
@<TRIPOS>SET

