#    Name: 1x7j_GEN_1_ligand
#    Modification time : Tue Mar 25 09:39:02 2014

@<TRIPOS>MOLECULE
1x7j_GEN_1_ligand
   30    32     1     0     0
SMALL
NO_CHARGES


@<TRIPOS>ATOM
      1 C1         33.3210   35.5550   37.7830 C.ar      1 GEN201      0.0000 
      2 C2         33.6440   36.3730   36.6620 C.ar      1 GEN201      0.0000 
      3 O2         34.9220   36.1980   36.1290 O.3       1 GEN201      0.0000 
      4 C3         32.7590   37.3330   36.0770 C.ar      1 GEN201      0.0000 
      5 C4         31.4620   37.5170   36.6180 C.ar      1 GEN201      0.0000 
      6 O4         30.5830   38.4340   36.0840 O.3       1 GEN201      0.0000 
      7 C5         31.0970   36.6900   37.7710 C.ar      1 GEN201      0.0000 
      8 C6         29.7400   36.8470   38.3760 C.2       1 GEN201      0.0000 
      9 O6         28.8970   37.6430   37.9550 O.2       1 GEN201      0.0000 
     10 C7         29.4790   35.9370   39.5690 C.2       1 GEN201      0.0000 
     11 C8         30.4490   35.0340   40.0410 C.2       1 GEN201      0.0000 
     12 O9         31.7310   34.9080   39.4430 O.3       1 GEN201      0.0000 
     13 C10        32.0060   35.7180   38.3560 C.ar      1 GEN201      0.0000 
     14 C11        28.1390   35.9190   40.3680 C.ar      1 GEN201      0.0000 
     15 C12        26.8930   36.0980   39.6630 C.ar      1 GEN201      0.0000 
     16 C13        25.7190   36.0710   40.4700 C.ar      1 GEN201      0.0000 
     17 C14        25.8250   35.8770   41.8570 C.ar      1 GEN201      0.0000 
     18 O14        24.6180   35.8640   42.5510 O.3       1 GEN201      0.0000 
     19 C15        27.0460   35.6940   42.5990 C.ar      1 GEN201      0.0000 
     20 C16        28.2590   35.7200   41.7980 C.ar      1 GEN201      0.0000 
     21 H          33.9645   34.9003   38.1594 H         1 GEN201      0.0000 
     22 H          33.0650   37.8782   35.2764 H         1 GEN201      0.0000 
     23 H          30.2242   34.4335   40.8585 H         1 GEN201      0.0000 
     24 H          26.8650   36.2294   38.6896 H         1 GEN201      0.0000 
     25 H          24.8059   36.1934   40.0319 H         1 GEN201      0.0000 
     26 H          27.0645   35.5625   43.5627 H         1 GEN201      0.0000 
     27 H          29.1523   35.6033   42.2254 H         1 GEN201      0.0000 
     28 H          35.5284   36.1472   36.9225 H         1 GEN201      0.0000 
     29 H          29.7608   38.3635   36.6488 H         1 GEN201      0.0000 
     30 H          24.7990   35.3266   43.3747 H         1 GEN201      0.0000 
@<TRIPOS>BOND
     1    2    1 ar   
     2   13    1 ar   
     3   21    1 1    
     4    3    2 1    
     5    4    2 ar   
     6   28    3 1    
     7    5    4 ar   
     8   22    4 1    
     9    6    5 1    
    10    7    5 ar   
    11   29    6 1    
    12    8    7 1    
    13   13    7 ar   
    14    9    8 2    
    15   10    8 1    
    16   11   10 2    
    17   14   10 1    
    18   12   11 1    
    19   23   11 1    
    20   13   12 1    
    21   15   14 ar   
    22   20   14 ar   
    23   16   15 ar   
    24   24   15 1    
    25   17   16 ar   
    26   25   16 1    
    27   18   17 1    
    28   19   17 ar   
    29   30   18 1    
    30   20   19 ar   
    31   26   19 1    
    32   27   20 1    
@<TRIPOS>SUBSTRUCTURE
     1 GEN201      1 GROUP   
@<TRIPOS>SET

