#    Name: 2ccu_2D9_1_INTS_M
#    Modification time : Mon Mar 24 23:28:01 2014

@<TRIPOS>MOLECULE
2ccu_2D9_1_INTS_M
   58     0     9     0     0
SMALL
NO_CHARGES


@<TRIPOS>ATOM
      1 CA         30.2580    4.7515   17.3650 C.3       3 GLC5        0.0000 
      2 CA         30.3250    3.0800   18.5890 C.3       9 GLL5        0.0000 
      3 CA         30.1910    6.4230   16.1410 C.3       6 GLP5        0.0000 
      4 CA         30.1675    3.6810   20.3500 C.3       3 GLC5        0.0000 
      5 CA         30.0100    4.2820   22.1110 C.3       6 GLP5        0.0000 
      6 CA         36.6925    7.1130   23.1505 C.3       3 GLC5        0.0000 
      7 CA         35.2220    5.6900   23.1690 C.3       9 GLL5        0.0000 
      8 CA         38.1630    8.5360   23.1320 C.3       6 GLP5        0.0000 
      9 OD1        33.0325    5.3505   24.0205 O.co2     2 ASC3        0.0000 
     10 OD1        34.4470    6.6080   24.0870 O.co2     8 ASL3        0.0000 
     11 OD1        31.6180    4.0930   23.9540 O.co2     5 ASP3        0.0000 
     12 CA         31.7980    7.5385   21.9195 C.3       3 GLC5        0.0000 
     13 CA         33.1080    7.0140   23.5630 C.3       9 GLL5        0.0000 
     14 CA         30.4880    8.0630   20.2760 C.3       6 GLP5        0.0000 
     15 CA         29.9150    7.2325   25.2550 C.3       3 GLC5        0.0000 
     16 CA         31.9840    6.9510   24.6110 C.3       9 GLL5        0.0000 
     17 CA         27.8460    7.5140   25.8990 C.3       6 GLP5        0.0000 
     18 O          29.3635   11.3070   27.6805 O.2       1 ALC1        0.0000 
     19 O          30.1700    9.7950   27.5770 O.2       7 ALL1        0.0000 
     20 O          28.5570   12.8190   27.7840 O.2       4 ALP1        0.0000 
     21 CA         30.2235   12.3550   25.8240 C.3       3 GLC5        0.0000 
     22 CA         30.8970   10.3700   25.3020 C.3       9 GLL5        0.0000 
     23 CA         29.5500   14.3400   26.3460 C.3       6 GLP5        0.0000 
     24 CA         35.0520   13.2730   23.9140 C.3       3 GLC5        0.0000 
     25 CA         33.7640   12.1180   23.1540 C.3       9 GLL5        0.0000 
     26 CA         36.3400   14.4280   24.6740 C.3       6 GLP5        0.0000 
     27 CA         34.5690   13.4360   22.1230 C.3       3 GLC5        0.0000 
     28 CA         35.3740   14.7540   21.0920 C.3       6 GLP5        0.0000 
     29 CA         30.6465   14.0915   22.5765 C.3       3 GLC5        0.0000 
     30 CA         31.0220   12.0100   22.9210 C.3       9 GLL5        0.0000 
     31 CA         30.2710   16.1730   22.2320 C.3       6 GLP5        0.0000 
     32 CA         28.9925   12.2050   25.6335 C.3       3 GLC5        0.0000 
     33 CA         29.7430   10.7670   24.6180 C.3       9 GLL5        0.0000 
     34 CA         28.2420   13.6430   26.6490 C.3       6 GLP5        0.0000 
     35 O          27.4240   11.0375   24.5645 O.2       1 ALC1        0.0000 
     36 O          28.5440   10.3480   25.0670 O.2       7 ALL1        0.0000 
     37 O          26.3040   11.7270   24.0620 O.2       4 ALP1        0.0000 
     38 CA         31.7286    3.9701   21.6916 C.3       3 GLC5        0.0000 
     39 CA         33.1200    3.2080   21.0650 C.3       9 GLL5        0.0000 
     40 CA         31.2780    5.6322   23.0990 C.3       3 GLC5        0.0000 
     41 CA         35.7858    7.2588   27.0408 C.3       3 GLC5        0.0000 
     42 CA         34.4600    6.0970   25.4990 C.3       9 GLL5        0.0000 
     43 CA         37.5230    7.9990   28.0700 C.3       6 GLP5        0.0000 
     44 CA         29.5135    8.2070   26.2410 C.3       3 GLC5        0.0000 
     45 CA         31.5040    8.2570   26.7030 C.3       9 GLL5        0.0000 
     46 CA         32.0780    9.8360   28.0510 C.3       3 GLC5        0.0000 
     47 CA         30.8580    9.5430   26.4630 C.3       9 GLL5        0.0000 
     48 CA         32.9750   10.7720   29.5190 C.3       6 GLP5        0.0000 
     49 CA         29.0830    9.0412   25.4295 C.3       3 GLC5        0.0000 
     50 CA         32.3361   12.0248   26.0719 C.3       3 GLC5        0.0000 
     51 CA         32.1800   11.6200   23.6540 C.3       9 GLL5        0.0000 
     52 CA         32.8320   12.9430   27.7900 C.3       6 GLP5        0.0000 
     53 CA         29.9758   13.0640   24.7680 C.3       3 GLC5        0.0000 
     54 CA         30.9280   10.5533   21.8786 C.3       3 GLC5        0.0000 
     55 CA         29.7810   11.5660   23.4590 C.3       9 GLL5        0.0000 
     56 CA         31.1650    9.4160   20.3840 C.3       6 GLP5        0.0000 
     57 CA         28.4420   10.0973   22.9387 C.3       3 GLC5        0.0000 
     58 CA         27.1220    9.0280   21.8390 C.3       6 GLP5        0.0000 
@<TRIPOS>BOND
@<TRIPOS>SUBSTRUCTURE
     1 ALC1       18 GROUP        1 X    ALC  0     ROOT ALC X 1
     2 ASC3        9 GROUP        1 X    ASC  0     **** ASC X 3
     3 GLC5        1 GROUP        1 X    GLC  0     **** GLC X 6
     4 ALP1       20 GROUP        1 Y    ALP  0     ROOT ALP Y 8
     5 ASP3       11 GROUP        1 Y    ASP  0     **** ASP Y 10
     6 GLP5        3 GROUP        1 Y    GLP  0     **** GLP Y 13
     7 ALL1       19 GROUP        1 Z    ALL  0     ROOT ALL Z 15
     8 ASL3       10 GROUP        1 Z    ASL  0     **** ASL Z 17
     9 GLL5        2 GROUP        1 Z    GLL  0     **** GLL Z 20
@<TRIPOS>SET

