#    Name: 2ccu_2D9_1_ligand
#    Modification time : Mon Mar 24 23:28:01 2014

@<TRIPOS>MOLECULE
2ccu_2D9_1_ligand
   55    58     1     0     0
SMALL
NO_CHARGES


@<TRIPOS>ATOM
      1 C31        30.3250    3.0800   18.5890 C.3       1 2D91224     0.0000 
      2 S28        32.1020    2.8400   18.4830 S.o2      1 2D91224     0.0000 
      3 O29        32.1810    1.3580   18.7050 O.2       1 2D91224     0.0000 
      4 O30        32.4150    3.2230   17.0480 O.2       1 2D91224     0.0000 
      5 C25        33.0550    3.7530   19.7760 C.ar      1 2D91224     0.0000 
      6 C26        33.7420    4.9720   19.5820 C.ar      1 2D91224     0.0000 
      7 C27        34.4350    5.6070   20.6510 C.ar      1 2D91224     0.0000 
      8 C24        33.1200    3.2080   21.0650 C.ar      1 2D91224     0.0000 
      9 C23        33.8070    3.8360   22.1240 C.ar      1 2D91224     0.0000 
     10 C19        34.4630    5.0560   21.9510 C.ar      1 2D91224     0.0000 
     11 C18        35.2220    5.6900   23.1690 C.3       1 2D91224     0.0000 
     12 N15        34.4470    6.6080   24.0870 N.4       1 2D91224     0.0000 
     13 C16        33.1080    7.0140   23.5630 C.3       1 2D91224     0.0000 
     14 C17        31.9840    6.9510   24.6110 C.3       1 2D91224     0.0000 
     15 C14        34.4600    6.0970   25.4990 C.3       1 2D91224     0.0000 
     16 C13        33.6370    6.9400   26.5240 C.3       1 2D91224     0.0000 
     17 N12        32.3580    7.4140   25.9510 N.3       1 2D91224     0.0000 
     18 C3         31.5040    8.2570   26.7030 C.2       1 2D91224     0.0000 
     19 C2         31.1690    7.9020   27.9240 C.2       1 2D91224     0.0000 
     20 N1         30.3760    8.8750   28.3980 N.2       1 2D91224     0.0000 
     21 N5         30.1700    9.7950   27.5770 N.pl3     1 2D91224     0.0000 
     22 C4         30.8580    9.5430   26.4630 C.2       1 2D91224     0.0000 
     23 C6         30.8970   10.3700   25.3020 C.ar      1 2D91224     0.0000 
     24 C7         32.1040   10.8160   24.8050 C.ar      1 2D91224     0.0000 
     25 C8         32.1800   11.6200   23.6540 C.ar      1 2D91224     0.0000 
     26 CL20       33.7640   12.1180   23.1540 Cl        1 2D91224     0.0000 
     27 C9         31.0220   12.0100   22.9210 C.ar      1 2D91224     0.0000 
     28 O21        31.0940   12.7880   21.7370 O.3       1 2D91224     0.0000 
     29 C10        29.7810   11.5660   23.4590 C.ar      1 2D91224     0.0000 
     30 C11        29.7430   10.7670   24.6180 C.ar      1 2D91224     0.0000 
     31 O22        28.5440   10.3480   25.0670 O.3       1 2D91224     0.0000 
     32 H          33.7443    5.4125   18.6532 H         1 2D91224     0.0000 
     33 H          34.9290    6.4941   20.4661 H         1 2D91224     0.0000 
     34 H          32.6418    2.3007   21.2527 H         1 2D91224     0.0000 
     35 H          33.8219    3.3755   23.0520 H         1 2D91224     0.0000 
     36 H          36.1079    6.2354   22.7593 H         1 2D91224     0.0000 
     37 H          35.6545    4.8480   23.7640 H         1 2D91224     0.0000 
     38 H          35.0785    7.5765   24.1187 H         1 2D91224     0.0000 
     39 H          32.8242    6.3656   22.7148 H         1 2D91224     0.0000 
     40 H          33.1552    8.0456   23.1708 H         1 2D91224     0.0000 
     41 H          31.6217    5.8993   24.6517 H         1 2D91224     0.0000 
     42 H          31.1277    7.5455   24.2207 H         1 2D91224     0.0000 
     43 H          35.5026    6.0438   25.8711 H         1 2D91224     0.0000 
     44 H          34.0687    5.0605   25.5284 H         1 2D91224     0.0000 
     45 H          34.2618    7.7850   26.8344 H         1 2D91224     0.0000 
     46 H          33.4604    6.3107   27.4035 H         1 2D91224     0.0000 
     47 H          31.4313    7.1072   28.3974 H         1 2D91224     0.0000 
     48 H          29.5990   10.5988   27.6885 H         1 2D91224     0.0000 
     49 H          32.9888   10.5566   25.2868 H         1 2D91224     0.0000 
     50 H          28.9085   11.8347   22.9923 H         1 2D91224     0.0000 
     51 H          29.9644    2.7970   19.4777 H         1 2D91224     0.0000 
     52 H          30.0715    4.0389   18.4617 H         1 2D91224     0.0000 
     53 H          29.8369    2.5530   17.8933 H         1 2D91224     0.0000 
     54 H          30.1461   13.0273   21.5267 H         1 2D91224     0.0000 
     55 H          27.8762   10.9296   24.6025 H         1 2D91224     0.0000 
@<TRIPOS>BOND
     1    2    1 1    
     2   51    1 1    
     3   52    1 1    
     4   53    1 1    
     5    3    2 2    
     6    4    2 2    
     7    5    2 1    
     8    6    5 ar   
     9    8    5 ar   
    10    7    6 ar   
    11   32    6 1    
    12   10    7 ar   
    13   33    7 1    
    14    9    8 ar   
    15   34    8 1    
    16   10    9 ar   
    17   35    9 1    
    18   11   10 1    
    19   12   11 1    
    20   36   11 1    
    21   37   11 1    
    22   13   12 1    
    23   15   12 1    
    24   38   12 1    
    25   14   13 1    
    26   39   13 1    
    27   40   13 1    
    28   17   14 1    
    29   41   14 1    
    30   42   14 1    
    31   16   15 1    
    32   43   15 1    
    33   44   15 1    
    34   17   16 1    
    35   45   16 1    
    36   46   16 1    
    37   18   17 1    
    38   19   18 1    
    39   22   18 2    
    40   20   19 2    
    41   47   19 1    
    42   21   20 1    
    43   22   21 1    
    44   48   21 1    
    45   23   22 1    
    46   24   23 ar   
    47   30   23 ar   
    48   25   24 ar   
    49   49   24 1    
    50   26   25 1    
    51   27   25 ar   
    52   28   27 1    
    53   29   27 ar   
    54   54   28 1    
    55   30   29 ar   
    56   50   29 1    
    57   31   30 1    
    58   55   31 1    
@<TRIPOS>SUBSTRUCTURE
     1 2D91224     1 GROUP   
@<TRIPOS>SET

