#    Name: 2Q5Y_1_CAVITY_N1_6.mol2
#    Modification time : Tue Mar 11 06:58:39 2014

@<TRIPOS>MOLECULE
2Q5Y_1_CAVITY_N1_6.mol2
   59     0     5     0     0
SMALL
NO_CHARGES


@<TRIPOS>ATOM
      1 CA         68.6368  101.5826   62.6007 C.3       4 GLY6        0.0000 
      2 O          68.2666  102.3072   64.5598 O.2       2 ALA2        0.0000 
      3 O          68.3547  100.9082   65.0939 O.2       2 ALA2        0.0000 
      4 CZ         69.4942  102.0683   63.7316 C.ar      3 PHE5        0.0000 
      5 N          61.7585  104.2262   70.6599 N.2       2 ALA2        0.0000 
      6 N          62.9861  103.9873   69.8317 N.2       2 ALA2        0.0000 
      7 N          67.8965  103.0318   66.5189 N.2       2 ALA2        0.0000 
      8 O          67.9846  101.6328   67.0529 O.2       2 ALA2        0.0000 
      9 N          69.1241  102.7929   65.6907 N.2       2 ALA2        0.0000 
     10 N          69.2122  101.3939   66.2247 N.2       2 ALA2        0.0000 
     11 CA         69.3002   99.9950   66.7588 C.3       4 GLY6        0.0000 
     12 N          62.5279  106.1109   71.2567 N.2       2 ALA2        0.0000 
     13 N          62.6159  104.7119   71.7908 N.2       2 ALA2        0.0000 
     14 DU         62.7040  103.3130   72.3248 H         5 CUB7        0.0000 
     15 CA         63.7555  105.8720   70.4285 C.3       4 GLY6        0.0000 
     16 DU         63.8435  104.4730   70.9626 H         5 CUB7        0.0000 
     17 DU         63.9316  103.0741   71.4966 H         5 CUB7        0.0000 
     18 N          64.9831  105.6331   69.6003 N.2       2 ALA2        0.0000 
     19 N          65.0712  104.2341   70.1344 N.2       2 ALA2        0.0000 
     20 DU         65.1592  102.8352   70.6684 H         5 CUB7        0.0000 
     21 DU         65.2473  101.4363   71.2025 H         5 CUB7        0.0000 
     22 N          66.2988  103.9952   69.3062 N.2       2 ALA2        0.0000 
     23 N          66.3868  102.5963   69.8402 N.2       2 ALA2        0.0000 
     24 CZ         67.4383  105.1553   67.9439 C.ar      3 PHE5        0.0000 
     25 N          67.5264  103.7563   68.4779 N.2       2 ALA2        0.0000 
     26 N          67.6144  102.3574   69.0120 N.2       2 ALA2        0.0000 
     27 CZ         68.6659  104.9164   67.1157 C.ar      3 PHE5        0.0000 
     28 N          68.7540  103.5174   67.6497 N.2       2 ALA2        0.0000 
     29 CA         68.8420  102.1185   68.1838 C.3       4 GLY6        0.0000 
     30 CA         68.9301  100.7196   68.7179 C.3       4 GLY6        0.0000 
     31 CA         69.9816  103.2785   66.8215 C.3       4 GLY6        0.0000 
     32 N          70.0696  101.8796   67.3556 N.2       2 ALA2        0.0000 
     33 N          63.4734  105.1976   72.9216 N.2       2 ALA2        0.0000 
     34 N          63.5615  103.7987   73.4557 N.2       2 ALA2        0.0000 
     35 OG         63.6495  102.3997   73.9897 O.2       1 SER1        0.0000 
     36 CA         64.7010  104.9587   72.0934 C.3       4 GLY6        0.0000 
     37 DU         64.7891  103.5598   72.6275 H         5 CUB7        0.0000 
     38 OG         64.8771  102.1608   73.1615 O.2       1 SER1        0.0000 
     39 CA         65.8406  106.1188   70.7312 C.3       4 GLY6        0.0000 
     40 CA         65.9286  104.7198   71.2652 C.3       4 GLY6        0.0000 
     41 DU         66.0167  103.3209   71.7993 H         5 CUB7        0.0000 
     42 N          66.1047  101.9219   72.3333 N.2       2 ALA2        0.0000 
     43 CZ         67.1562  104.4809   70.4370 C.ar      3 PHE5        0.0000 
     44 N          67.2443  103.0820   70.9711 N.2       2 ALA2        0.0000 
     45 N          67.3323  101.6830   71.5051 N.2       2 ALA2        0.0000 
     46 CZ         68.3838  104.2420   69.6088 C.ar      3 PHE5        0.0000 
     47 N          68.4719  102.8431   70.1429 N.2       2 ALA2        0.0000 
     48 CZ         69.6114  104.0031   68.7806 C.ar      3 PHE5        0.0000 
     49 O          69.6995  102.6042   69.3147 O.2       2 ALA2        0.0000 
     50 CA         65.5585  105.4444   73.2243 C.3       4 GLY6        0.0000 
     51 CZ         65.6465  104.0455   73.7583 C.ar      3 PHE5        0.0000 
     52 CZ         65.7346  102.6465   74.2924 C.ar      3 PHE5        0.0000 
     53 CA         66.7861  105.2055   72.3961 C.3       4 GLY6        0.0000 
     54 CZ         66.8741  103.8066   72.9301 C.ar      3 PHE5        0.0000 
     55 CZ         66.9622  102.4076   73.4642 C.ar      3 PHE5        0.0000 
     56 CZ         68.0137  104.9666   71.5679 C.ar      3 PHE5        0.0000 
     57 N          68.1017  103.5677   72.1019 N.2       2 ALA2        0.0000 
     58 CZ         69.2413  104.7277   70.7397 C.ar      3 PHE5        0.0000 
     59 N          69.3293  103.3288   71.2737 N.2       2 ALA2        0.0000 
@<TRIPOS>BOND
@<TRIPOS>SUBSTRUCTURE
     1 SER1       35 GROUP   
     2 ALA2        2 GROUP   
     3 PHE5        4 GROUP   
     4 GLY6        1 GROUP   
     5 CUB7       14 GROUP   
@<TRIPOS>SET

