#    Name: 2q5y_TYR_GLY_LEU_1_INTS_M
#    Modification time : Mon Mar 24 20:49:03 2014

@<TRIPOS>MOLECULE
2q5y_TYR_GLY_LEU_1_INTS_M
   44     0     9     0     0
SMALL
NO_CHARGES


@<TRIPOS>ATOM
      1 CA         70.8465  104.3255   68.4700 C.3       3 GLC5        0.0000 
      2 CA         69.2190  103.6720   69.7140 C.3       9 GLL5        0.0000 
      3 CA         72.4740  104.9790   67.2260 C.3       6 GLP5        0.0000 
      4 CA         70.2700  105.8805   71.2135 C.3       3 GLC5        0.0000 
      5 CA         68.6530  104.4610   70.8760 C.3       9 GLL5        0.0000 
      6 CA         71.8870  107.3000   71.5510 C.3       6 GLP5        0.0000 
      7 CA         69.4835  103.9370   73.4600 C.3       3 GLC5        0.0000 
      8 CA         67.4810  104.5470   72.9820 C.3       9 GLL5        0.0000 
      9 CA         71.4860  103.3270   73.9380 C.3       6 GLP5        0.0000 
     10 O          66.6530  103.4005   66.5680 O.2       1 ALC1        0.0000 
     11 O          68.1560  102.5780   66.3330 O.2       7 ALL1        0.0000 
     12 O          65.1500  104.2230   66.8030 O.2       4 ALP1        0.0000 
     13 CA         68.9215  103.8570   64.4425 C.3       3 GLC5        0.0000 
     14 CA         68.6850  101.9530   65.1380 C.3       9 GLL5        0.0000 
     15 CA         69.1580  105.7610   63.7470 C.3       6 GLP5        0.0000 
     16 N          65.6910  101.7355   65.0420 N.am      2 SEC2        0.0000 
     17 N          66.5570  101.0390   64.5860 N.am      8 SEL2        0.0000 
     18 N          64.8250  102.4320   65.4980 N.am      5 SEP2        0.0000 
     19 CA         66.2925  103.2355   62.0645 C.3       3 GLC5        0.0000 
     20 CA         66.7490  101.7700   61.8390 C.3       9 GLL5        0.0000 
     21 CA         65.8360  104.7010   62.2900 C.3       6 GLP5        0.0000 
     22 CA         69.8010  105.2980   60.2370 C.3       3 GLC5        0.0000 
     23 CA         68.6600  103.5560   60.4970 C.3       9 GLL5        0.0000 
     24 CA         70.9420  107.0400   59.9770 C.3       6 GLP5        0.0000 
     25 CA         68.9090  104.6585   62.1220 C.3       3 GLC5        0.0000 
     26 CA         68.9085  105.3558   68.8375 C.3       3 GLC5        0.0000 
     27 CA         68.1890  103.3490   68.6240 C.3       9 GLL5        0.0000 
     28 CA         69.1130  107.2010   68.5060 C.3       6 GLP5        0.0000 
     29 CA         70.2657  104.0396   71.7587 C.3       3 GLC5        0.0000 
     30 CA         71.9250  103.1820   72.5110 C.3       6 GLP5        0.0000 
     31 CA         69.3607  107.0387   72.3938 C.3       3 GLC5        0.0000 
     32 CA         68.7370  105.8480   70.9000 C.3       9 GLL5        0.0000 
     33 CA         70.2500  107.8650   73.3640 C.3       6 GLP5        0.0000 
     34 CA         66.8328  107.1222   71.9023 C.3       3 GLC5        0.0000 
     35 CA         68.2060  106.5770   71.9470 C.3       9 GLL5        0.0000 
     36 CA         65.1940  108.0320   72.3810 C.3       6 GLP5        0.0000 
     37 CA         68.8902  106.5500   73.1735 C.3       3 GLC5        0.0000 
     38 CA         67.5800  105.9230   72.9840 C.3       9 GLL5        0.0000 
     39 CA         66.3623  106.6335   72.6820 C.3       3 GLC5        0.0000 
     40 CA         70.3227  102.7181   60.5736 C.3       3 GLC5        0.0000 
     41 CA         68.7630  102.0750   60.1800 C.3       9 GLL5        0.0000 
     42 CA         71.8680  102.6680   61.1800 C.3       6 GLP5        0.0000 
     43 CA         67.1091  103.8251   60.1282 C.3       3 GLC5        0.0000 
     44 CA         65.8300  105.0180   59.8240 C.3       6 GLP5        0.0000 
@<TRIPOS>BOND
@<TRIPOS>SUBSTRUCTURE
     1 ALC1       10 GROUP        1 X    ALC  0     ROOT ALC X 1
     2 SEC2       16 GROUP        1 X    SEC  0     **** SEC X 2
     3 GLC5        1 GROUP        1 X    GLC  0     **** GLC X 6
     4 ALP1       12 GROUP        1 Y    ALP  0     ROOT ALP Y 8
     5 SEP2       18 GROUP        1 Y    SEP  0     **** SEP Y 9
     6 GLP5        3 GROUP        1 Y    GLP  0     **** GLP Y 13
     7 ALL1       11 GROUP        1 Z    ALL  0     ROOT ALL Z 15
     8 SEL2       17 GROUP        1 Z    SEL  0     **** SEL Z 16
     9 GLL5        2 GROUP        1 Z    GLL  0     **** GLL Z 20
@<TRIPOS>SET

