#    Name: 2q5y_TYR_GLY_LEU_1_ligand
#    Modification time : Mon Mar 24 20:49:03 2014

@<TRIPOS>MOLECULE
2q5y_TYR_GLY_LEU_1_ligand
   50    50     3     0     0
SMALL
NO_CHARGES


@<TRIPOS>ATOM
      1 N          67.1100  102.4890   69.1730 N.4       1 TYR866      0.0000
      2 CA         68.1890  103.3490   68.6240 C.3       1 TYR866      0.0000
      3 C          68.8800  102.6790   67.4430 C.2       1 TYR866      0.0000
      4 O          70.0360  102.2670   67.5390 O.2       1 TYR866      0.0000
      5 CB         69.2190  103.6720   69.7140 C.3       1 TYR866      0.0000
      6 CG         68.6530  104.4610   70.8760 C.ar      1 TYR866      0.0000
      7 CD1        68.0160  103.8260   71.9310 C.ar      1 TYR866      0.0000
      8 CD2        68.7370  105.8480   70.9000 C.ar      1 TYR866      0.0000
      9 CE1        67.4810  104.5470   72.9820 C.ar      1 TYR866      0.0000
     10 CE2        68.2060  106.5770   71.9470 C.ar      1 TYR866      0.0000
     11 CZ         67.5800  105.9230   72.9840 C.ar      1 TYR866      0.0000
     12 OH         67.0480  106.6460   74.0280 O.3       1 TYR866      0.0000
     13 HA         67.7659  104.2892   68.2812 H         1 TYR866      0.0000
     14 HB2        70.0478  104.2379   69.2573 H         1 TYR866      0.0000
     15 HB3        69.6436  102.7255   70.0875 H         1 TYR866      0.0000
     16 HD1        67.9404  102.7902   71.9300 H         1 TYR866      0.0000
     17 HD2        69.2068  106.3411   70.1173 H         1 TYR866      0.0000
     18 HE1        67.0123  104.0596   73.7570 H         1 TYR866      0.0000
     19 HE2        68.2794  107.6041   71.9493 H         1 TYR866      0.0000
     20 HNCA       67.4626  101.6097   69.4931 H         1 TYR866      0.0000
     21 H          66.6499  102.9204   69.9491 H         1 TYR866      0.0000
     22 H          66.4079  102.2917   68.4888 H         1 TYR866      0.0000
     23 HH         67.7397  107.3377   74.2355 H         1 TYR866      0.0000
     24 N          68.1560  102.5780   66.3330 N.am      2 GLY867      0.0000
     25 CA         68.6850  101.9530   65.1380 C.3       2 GLY867      0.0000
     26 C          67.5570  101.6210   64.1790 C.2       2 GLY867      0.0000
     27 O          66.5570  101.0390   64.5860 O.2       2 GLY867      0.0000
     28 HNCA       67.1822  102.9399   66.2688 H         2 GLY867      0.0000
     29 HA2        69.2152  101.0247   65.3805 H         2 GLY867      0.0000
     30 HA3        69.3892  102.6178   64.6243 H         2 GLY867      0.0000
     31 N          67.7340  101.9810   62.9080 N.am      3 LEU868      0.0000
     32 CA         66.7490  101.7700   61.8390 C.3       3 LEU868      0.0000
     33 C          65.5880  100.8070   62.1050 C.2       3 LEU868      0.0000
     34 O          65.4150   99.8700   61.2960 O.2       3 LEU868      0.0000
     35 CB         67.4700  101.3420   60.5560 C.3       3 LEU868      0.0000
     36 CG         68.7630  102.0750   60.1800 C.3       3 LEU868      0.0000
     37 CD1        69.0270  101.8860   58.6950 C.3       3 LEU868      0.0000
     38 CD2        68.6600  103.5560   60.4970 C.3       3 LEU868      0.0000
     39 HNCA       68.6265  102.4548   62.5928 H         3 LEU868      0.0000
     40 HA         66.2864  102.7632   61.5800 H         3 LEU868      0.0000
     41 H          65.0546  101.0347   62.9438 H         3 LEU868      0.0000
     42 HB2        66.7526  101.4318   59.7014 H         3 LEU868      0.0000
     43 HB3        67.6928  100.2472   60.6249 H         3 LEU868      0.0000
     44 HG         69.5770  101.6466   60.7342 H         3 LEU868      0.0000
     45 HD11       69.8658  102.3469   58.4053 H         3 LEU868      0.0000
     46 HD12       69.1255  100.9202   58.4553 H         3 LEU868      0.0000
     47 HD13       68.2832  102.2524   58.1360 H         3 LEU868      0.0000
     48 HD21       69.4987  104.0459   60.2592 H         3 LEU868      0.0000
     49 HD22       67.9133  103.9922   59.9948 H         3 LEU868      0.0000
     50 HD23       68.4923  103.7168   61.4696 H         3 LEU868      0.0000
@<TRIPOS>BOND
     1    2    1 1
     2   20    1 1
     3   21    1 1
     4   22    1 1
     5    3    2 1
     6    5    2 1
     7   13    2 1
     8    4    3 2
     9    6    5 1
    10   14    5 1
    11   15    5 1
    12    7    6 ar
    13    8    6 ar
    14    9    7 ar
    15   16    7 1
    16   10    8 ar
    17   17    8 1
    18   11    9 ar
    19   18    9 1
    20   11   10 ar
    21   19   10 1
    22   12   11 1
    23   23   12 1
    24   25   24 1
    25   28   24 1
    26   26   25 1
    27   29   25 1
    28   30   25 1
    29   27   26 2
    30   32   31 1
    31   39   31 1
    32   33   32 1
    33   35   32 1
    34   40   32 1
    35   34   33 2
    36   41   33 1
    37   36   35 1
    38   42   35 1
    39   43   35 1
    40   37   36 1
    41   38   36 1
    42   44   36 1
    43   45   37 1
    44   46   37 1
    45   47   37 1
    46   48   38 1
    47   49   38 1
    48   50   38 1
    49   24    3 am
    50   31   26 am
@<TRIPOS>SUBSTRUCTURE
     1 TYR866      1 RESIDUE
     2 GLY867     24 RESIDUE
     3 LEU868     31 RESIDUE
@<TRIPOS>SET

