#    Name: 3fml_FML_1_INTS_M
#    Modification time : Tue Mar 25 06:05:38 2014

@<TRIPOS>MOLECULE
3fml_FML_1_INTS_M
   66     0     9     0     0
SMALL
NO_CHARGES


@<TRIPOS>ATOM
      1 CA         21.3800   11.1725   34.5465 C.3       3 GLC5        0.0000 
      2 CA         22.5210   11.2450   32.6500 C.3       9 GLL5        0.0000 
      3 CA         20.2390   11.1000   36.4430 C.3       6 GLP5        0.0000 
      4 CA         20.2350   11.4295   34.3555 C.3       3 GLC5        0.0000 
      5 CA         20.2310   11.7590   32.2680 C.3       9 GLL5        0.0000 
      6 CA         19.8150    9.8445   33.2045 C.3       3 GLC5        0.0000 
      7 CA         19.3990    7.9300   34.1410 C.3       6 GLP5        0.0000 
      8 CA         19.1375    9.1010   30.9840 C.3       3 GLC5        0.0000 
      9 CA         20.9700    9.6320   31.5740 C.3       9 GLL5        0.0000 
     10 CA         17.3050    8.5700   30.3940 C.3       6 GLP5        0.0000 
     11 CA         24.2860    9.3295   36.1285 C.3       3 GLC5        0.0000 
     12 CA         25.2300    9.2230   34.3160 C.3       9 GLL5        0.0000 
     13 CA         23.3420    9.4360   37.9410 C.3       6 GLP5        0.0000 
     14 CA         24.0350    7.4185   34.4840 C.3       3 GLC5        0.0000 
     15 CA         22.8400    5.6140   34.6520 C.3       6 GLP5        0.0000 
     16 CA         12.6235   10.5795   30.4420 C.3       3 GLC5        0.0000 
     17 CA         14.1690   10.9160   30.9800 C.3       9 GLL5        0.0000 
     18 CA         11.0780   10.2430   29.9040 C.3       6 GLP5        0.0000 
     19 CA         13.6530    9.3855   32.1750 C.3       3 GLC5        0.0000 
     20 CA         13.1370    7.8550   33.3700 C.3       6 GLP5        0.0000 
     21 CA         15.1050    9.4535   30.3640 C.3       3 GLC5        0.0000 
     22 CA         16.0410    7.9910   29.7480 C.3       6 GLP5        0.0000 
     23 CA         14.5590    9.3770   32.9315 C.3       3 GLC5        0.0000 
     24 CA         15.9810   10.8990   32.4930 C.3       9 GLL5        0.0000 
     25 CA         19.0385   11.0000   35.2060 C.3       3 GLC5        0.0000 
     26 CA         17.8380   10.9000   33.9690 C.3       9 GLL5        0.0000 
     27 CA         16.8195    9.8435   35.5020 C.3       3 GLC5        0.0000 
     28 CA         15.8010    8.7870   37.0350 C.3       6 GLP5        0.0000 
     29 O          20.4160    7.2050   30.7515 O.2       1 ALC1        0.0000 
     30 O          21.0550    8.3810   31.0740 O.2       7 ALL1        0.0000 
     31 O          19.7770    6.0290   30.4290 O.2       4 ALP1        0.0000 
     32 N          22.6725    6.6315   30.8690 N.am      2 SEC2        0.0000 
     33 N          22.3730    7.8970   31.2100 N.am      8 SEL2        0.0000 
     34 N          22.9720    5.3660   30.5280 N.am      5 SEP2        0.0000 
     35 O          24.9650    7.3170   31.7010 O.2       1 ALC1        0.0000 
     36 O          24.4010    8.6990   32.0710 O.2       7 ALL1        0.0000 
     37 O          25.5290    5.9350   31.3310 O.2       4 ALP1        0.0000 
     38 CA         25.0850    7.8935   29.0715 C.3       3 GLC5        0.0000 
     39 CA         26.1780    9.3500   29.5730 C.3       9 GLL5        0.0000 
     40 CA         23.9920    6.4370   28.5700 C.3       6 GLP5        0.0000 
     41 CA         28.0225    8.2085   29.3780 C.3       3 GLC5        0.0000 
     42 CA         29.8670    7.0670   29.1830 C.3       6 GLP5        0.0000 
     43 CA         25.6580    8.9570   27.8710 C.3       3 GLC5        0.0000 
     44 CA         25.1380    8.5640   26.1690 C.3       6 GLP5        0.0000 
     45 CA         24.7890   10.4385   28.5080 C.3       3 GLC5        0.0000 
     46 CA         23.4000   11.5270   27.4430 C.3       6 GLP5        0.0000 
     47 CA         20.5198    8.8710   32.9823 C.3       3 GLC5        0.0000 
     48 CA         22.3110    9.9920   32.0730 C.3       9 GLL5        0.0000 
     49 CA         17.0847   13.7815   32.7285 C.3       3 GLC5        0.0000 
     50 CA         17.9340   12.2410   32.0240 C.3       9 GLL5        0.0000 
     51 CA         16.5280   15.0920   34.0220 C.3       6 GLP5        0.0000 
     52 CA         17.4733   10.5205   30.9145 C.3       3 GLC5        0.0000 
     53 CA         16.5190   10.1883   30.6495 C.3       3 GLC5        0.0000 
     54 CA         16.0730   12.2570   30.4930 C.3       9 GLL5        0.0000 
     55 CA         14.1700   12.8332   29.7854 C.3       3 GLC5        0.0000 
     56 CA         15.3930   11.3560   31.3170 C.3       9 GLL5        0.0000 
     57 CA         12.9130   13.9700   28.7500 C.3       6 GLP5        0.0000 
     58 CA         17.1185   11.6979   29.2383 C.3       3 GLC5        0.0000 
     59 CA         17.6960   11.1420   27.6010 C.3       6 GLP5        0.0000 
     60 CA         13.8565   11.7197   32.4649 C.3       3 GLC5        0.0000 
     61 CA         12.3320   12.4220   33.1090 C.3       6 GLP5        0.0000 
     62 CA         18.4735    9.5245   33.7720 C.3       3 GLC5        0.0000 
     63 CA         17.2580   11.3380   32.8370 C.3       9 GLL5        0.0000 
     64 CA         16.6269   12.1041   34.4045 C.3       3 GLC5        0.0000 
     65 CA         16.0250   13.1990   35.4920 C.3       6 GLP5        0.0000 
     66 CA         17.2669    9.7896   31.8555 C.3       3 GLC5        0.0000 
@<TRIPOS>BOND
@<TRIPOS>SUBSTRUCTURE
     1 ALC1       29 GROUP        1 X    ALC  0     ROOT ALC X 1
     2 SEC2       32 GROUP        1 X    SEC  0     **** SEC X 2
     3 GLC5        1 GROUP        1 X    GLC  0     **** GLC X 6
     4 ALP1       31 GROUP        1 Y    ALP  0     ROOT ALP Y 8
     5 SEP2       34 GROUP        1 Y    SEP  0     **** SEP Y 9
     6 GLP5        3 GROUP        1 Y    GLP  0     **** GLP Y 13
     7 ALL1       30 GROUP        1 Z    ALL  0     ROOT ALL Z 15
     8 SEL2       33 GROUP        1 Z    SEL  0     **** SEL Z 16
     9 GLL5        2 GROUP        1 Z    GLL  0     **** GLL Z 20
@<TRIPOS>SET

