#    Name: 3fml_FML_1_ligand
#    Modification time : Tue Mar 25 06:05:38 2014

@<TRIPOS>MOLECULE
3fml_FML_1_ligand
   41    43     1     0     0
SMALL
NO_CHARGES


@<TRIPOS>ATOM
      1 C1         22.5210   11.2450   32.6500 C.ar      1 FML361      0.0000 
      2 N2         21.4720   12.0900   32.7320 N.ar      1 FML361      0.0000 
      3 C3         20.2310   11.7590   32.2680 C.ar      1 FML361      0.0000 
      4 C5         22.3110    9.9920   32.0730 C.ar      1 FML361      0.0000 
      5 C6         20.9700    9.6320   31.5740 C.ar      1 FML361      0.0000 
      6 C9         23.0780    8.8700   31.8090 C.2       1 FML361      0.0000 
      7 C11        17.9340   12.2410   32.0240 C.ar      1 FML361      0.0000 
      8 C13        25.2100    9.6320   32.8450 C.3       1 FML361      0.0000 
      9 C14        26.6270    9.7000   32.2720 C.3       1 FML361      0.0000 
     10 C15        25.2300    9.2230   34.3160 C.3       1 FML361      0.0000 
     11 F26        14.1690   10.9160   30.9800 F         1 FML361      0.0000 
     12 C22        15.3930   11.3560   31.3170 C.ar      1 FML361      0.0000 
     13 C21        16.0730   12.2570   30.4930 C.ar      1 FML361      0.0000 
     14 C20        17.3490   12.7010   30.8460 C.ar      1 FML361      0.0000 
     15 C23        15.9810   10.8990   32.4930 C.ar      1 FML361      0.0000 
     16 C24        17.2580   11.3380   32.8370 C.ar      1 FML361      0.0000 
     17 F25        17.8380   10.9000   33.9690 F         1 FML361      0.0000 
     18 O10        19.1940   12.6550   32.3820 O.3       1 FML361      0.0000 
     19 N4         19.9790   10.5460   31.6980 N.ar      1 FML361      0.0000 
     20 N7         21.0550    8.3810   31.0740 N.pl3     1 FML361      0.0000 
     21 N8         22.3730    7.8970   31.2100 N.2       1 FML361      0.0000 
     22 N12        24.4010    8.6990   32.0710 N.pl3     1 FML361      0.0000 
     23 S16        26.6630   10.4120   30.7610 S.o2      1 FML361      0.0000 
     24 O17        25.8300   11.5910   30.7320 O.2       1 FML361      0.0000 
     25 O18        28.0350   10.7700   30.5050 O.2       1 FML361      0.0000 
     26 C19        26.1780    9.3500   29.5730 C.3       1 FML361      0.0000 
     27 H          23.4496   11.4949   32.9938 H         1 FML361      0.0000 
     28 H          24.7793   10.6318   32.7823 H         1 FML361      0.0000 
     29 H          27.0460    8.7126   32.1415 H         1 FML361      0.0000 
     30 H          27.2745   10.3001   32.8950 H         1 FML361      0.0000 
     31 H          15.6338   12.5922   29.6280 H         1 FML361      0.0000 
     32 H          17.8495   13.3592   30.2432 H         1 FML361      0.0000 
     33 H          15.4796   10.2453   33.1011 H         1 FML361      0.0000 
     34 H          20.3427    7.8669   30.6770 H         1 FML361      0.0000 
     35 H          24.9097    7.8508   31.7089 H         1 FML361      0.0000 
     36 H          25.6470    8.3234   34.4457 H         1 FML361      0.0000 
     37 H          25.7492    9.8700   34.8744 H         1 FML361      0.0000 
     38 H          24.3083    9.1771   34.7013 H         1 FML361      0.0000 
     39 H          26.1938    9.7735   28.6672 H         1 FML361      0.0000 
     40 H          26.7696    8.5449   29.5305 H         1 FML361      0.0000 
     41 H          25.2462    9.0212   29.7266 H         1 FML361      0.0000 
@<TRIPOS>BOND
     1    2    1 ar   
     2    4    1 ar   
     3   27    1 1    
     4    3    2 ar   
     5   18    3 1    
     6   19    3 ar   
     7    5    4 ar   
     8    6    4 1    
     9   19    5 ar   
    10   20    5 1    
    11   21    6 2    
    12   22    6 1    
    13   14    7 ar   
    14   16    7 ar   
    15   18    7 1    
    16    9    8 1    
    17   10    8 1    
    18   22    8 1    
    19   28    8 1    
    20   23    9 1    
    21   29    9 1    
    22   30    9 1    
    23   36   10 1    
    24   37   10 1    
    25   38   10 1    
    26   12   11 1    
    27   13   12 ar   
    28   15   12 ar   
    29   14   13 ar   
    30   31   13 1    
    31   32   14 1    
    32   16   15 ar   
    33   33   15 1    
    34   17   16 1    
    35   21   20 1    
    36   34   20 1    
    37   35   22 1    
    38   24   23 2    
    39   25   23 2    
    40   26   23 1    
    41   39   26 1    
    42   40   26 1    
    43   41   26 1    
@<TRIPOS>SUBSTRUCTURE
     1 FML361      1 GROUP   
@<TRIPOS>SET

