#    Name: 4mot_2B7_1_INTS_M
#    Modification time : Tue Mar 25 12:17:13 2014

@<TRIPOS>MOLECULE
4mot_2B7_1_INTS_M
   59     0     9     0     0
SMALL
NO_CHARGES


@<TRIPOS>ATOM
      1 CA         18.2460   25.6675    8.7575 C.3       3 GLC5        0.0000 
      2 CA         17.3410   24.7710    7.5040 C.3       9 GLL5        0.0000 
      3 CA         19.1510   26.5640   10.0110 C.3       6 GLP5        0.0000 
      4 CA         18.6700   27.4130    6.6850 C.3       3 GLC5        0.0000 
      5 CA         18.0980   25.9330    5.4100 C.3       9 GLL5        0.0000 
      6 CA         19.2420   28.8930    7.9600 C.3       6 GLP5        0.0000 
      7 CA         19.7070   25.9105    6.5790 C.3       3 GLC5        0.0000 
      8 CA         21.3160   25.8880    7.7480 C.3       6 GLP5        0.0000 
      9 CA         14.4055   29.3155    9.6345 C.3       3 GLC5        0.0000 
     10 CA         12.9760   29.4440    8.0510 C.3       9 GLL5        0.0000 
     11 CA         15.8350   29.1870   11.2180 C.3       6 GLP5        0.0000 
     12 CA         18.5965   30.3675    1.2490 C.3       3 GLC5        0.0000 
     13 CA         19.1940   32.3240    1.5770 C.3       9 GLL5        0.0000 
     14 CA         17.9990   28.4110    0.9210 C.3       6 GLP5        0.0000 
     15 CA         19.2025   36.7095    1.1440 C.3       3 GLC5        0.0000 
     16 CA         19.2530   34.7780    1.8210 C.3       9 GLL5        0.0000 
     17 CA         19.1520   38.6410    0.4670 C.3       6 GLP5        0.0000 
     18 CA         17.2685   35.4040    1.4355 C.3       3 GLC5        0.0000 
     19 CA         15.2840   36.0300    1.0500 C.3       6 GLP5        0.0000 
     20 CA         20.2000   36.2135    2.9705 C.3       3 GLC5        0.0000 
     21 CA         21.1470   37.6490    4.1200 C.3       6 GLP5        0.0000 
     22 CA         17.6025   28.0450    7.6185 C.3       3 GLC5        0.0000 
     23 CA         15.9630   27.1970    7.2770 C.3       9 GLL5        0.0000 
     24 CA         15.8990   28.1920    9.2475 C.3       3 GLC5        0.0000 
     25 CA         17.5570   26.8805    8.6440 C.3       3 GLC5        0.0000 
     26 N          14.5080   32.7995    5.4295 N.am      2 SEC2        0.0000 
     27 N          14.6140   31.3610    5.3540 N.am      8 SEL2        0.0000 
     28 N          14.4020   34.2380    5.5050 N.am      5 SEP2        0.0000 
     29 O          15.9750   32.9600    3.0430 O.2       1 ALC1        0.0000 
     30 O          16.2370   31.8000    3.7270 O.2       7 ALL1        0.0000 
     31 O          15.7130   34.1200    2.3590 O.2       4 ALP1        0.0000 
     32 O          16.7680   33.2410    2.2545 O.2       1 ALC1        0.0000 
     33 O          17.8230   32.3620    2.1500 O.2       7 ALL1        0.0000 
     34 CA         10.7845   32.0600    9.1150 C.3       3 GLC5        0.0000 
     35 CA         11.5360   30.5090    9.7910 C.3       9 GLL5        0.0000 
     36 CA         10.0330   33.6110    8.4390 C.3       6 GLP5        0.0000 
     37 CA         12.7257   31.3257    5.0178 C.3       3 GLC5        0.0000 
     38 CA         13.1740   30.4420    7.1660 C.3       9 GLL5        0.0000 
     39 CA         11.7230   32.2230    3.3130 C.3       6 GLP5        0.0000 
     40 CA         15.0275   30.9320    8.3184 C.3       3 GLC5        0.0000 
     41 CA         14.2830   30.4150    6.2790 C.3       9 GLL5        0.0000 
     42 CA         16.3760   31.6850    9.6930 C.3       6 GLP5        0.0000 
     43 CA         16.9793   30.3818    6.8775 C.3       3 GLC5        0.0000 
     44 CA         15.1430   29.3640    6.3530 C.3       9 GLL5        0.0000 
     45 CA         18.1710   31.3260    7.9750 C.3       6 GLP5        0.0000 
     46 CA         20.9580   32.4527    0.5105 C.3       3 GLC5        0.0000 
     47 CA         22.3970   31.9240   -0.4960 C.3       6 GLP5        0.0000 
     48 CA         19.7903   34.6487   -0.2135 C.3       3 GLC5        0.0000 
     49 CA         19.8440   33.6390    1.4570 C.3       9 GLL5        0.0000 
     50 CA         20.0320   35.0890   -2.0660 C.3       6 GLP5        0.0000 
     51 CA         17.8910   33.5399    0.2430 C.3       3 GLC5        0.0000 
     52 CA         16.3960   33.2000   -1.1830 C.3       6 GLP5        0.0000 
     53 CA         19.2615   33.9859    3.6280 C.3       3 GLC5        0.0000 
     54 CA         19.1370   34.0920    5.5870 C.3       6 GLP5        0.0000 
     55 CA         21.0205   33.5454    2.7705 C.3       3 GLC5        0.0000 
     56 CA         22.6550   33.2110    3.8720 C.3       6 GLP5        0.0000 
     57 CA          9.0112   30.4843    9.1810 C.3       3 GLC5        0.0000 
     58 CA          9.9500   28.3670    9.9040 C.3       9 GLL5        0.0000 
     59 CA          8.1640   32.0450    8.0660 C.3       6 GLP5        0.0000 
@<TRIPOS>BOND
@<TRIPOS>SUBSTRUCTURE
     1 ALC1       29 GROUP        1 X    ALC  0     ROOT ALC X 1
     2 SEC2       26 GROUP        1 X    SEC  0     **** SEC X 2
     3 GLC5        1 GROUP        1 X    GLC  0     **** GLC X 6
     4 ALP1       31 GROUP        1 Y    ALP  0     ROOT ALP Y 8
     5 SEP2       28 GROUP        1 Y    SEP  0     **** SEP Y 9
     6 GLP5        3 GROUP        1 Y    GLP  0     **** GLP Y 13
     7 ALL1       30 GROUP        1 Z    ALL  0     ROOT ALL Z 15
     8 SEL2       27 GROUP        1 Z    SEL  0     **** SEL Z 16
     9 GLL5        2 GROUP        1 Z    GLL  0     **** GLL Z 20
@<TRIPOS>SET

