#    Name: 4mot_2B7_1_ligand
#    Modification time : Tue Mar 25 12:17:13 2014

@<TRIPOS>MOLECULE
4mot_2B7_1_ligand
   49    51     1     0     0
SMALL
NO_CHARGES


@<TRIPOS>ATOM
      1 C1         17.3410   24.7710    7.5040 C.3       1 2B7301      0.0000 
      2 C2         16.9490   25.2050    6.0970 C.3       1 2B7301      0.0000 
      3 C3         18.0980   25.9330    5.4100 C.3       1 2B7301      0.0000 
      4 N6         15.0000   28.2980    7.2210 N.am      1 2B7301      0.0000 
      5 C7         13.9380   28.2930    8.0940 C.2       1 2B7301      0.0000 
      6 C9         12.9760   29.4440    8.0510 C.2       1 2B7301      0.0000 
      7 C10        13.1740   30.4420    7.1660 C.2       1 2B7301      0.0000 
      8 C11        14.2830   30.4150    6.2790 C.2       1 2B7301      0.0000 
      9 C12        15.1430   29.3640    6.3530 C.2       1 2B7301      0.0000 
     10 C14        15.7120   31.0180    4.7270 C.2       1 2B7301      0.0000 
     11 C20        19.1940   32.3240    1.5770 C.3       1 2B7301      0.0000 
     12 C21        19.8440   33.6390    1.4570 C.2       1 2B7301      0.0000 
     13 C22        19.2530   34.7780    1.8210 C.2       1 2B7301      0.0000 
     14 C24        11.0080   28.3350    9.0150 C.ar      1 2B7301      0.0000 
     15 C4         15.7450   26.1430    6.2170 C.3       1 2B7301      0.0000 
     16 C5         15.9630   27.1970    7.2770 C.3       1 2B7301      0.0000 
     17 O8         13.7930   27.3560    8.8840 O.2       1 2B7301      0.0000 
     18 S13        16.4320   29.5110    5.2070 S.3       1 2B7301      0.0000 
     19 N15        14.6140   31.3610    5.3540 N.2       1 2B7301      0.0000 
     20 N16        16.2370   31.8000    3.7270 N.am      1 2B7301      0.0000 
     21 C17        17.4640   31.4930    3.1430 C.2       1 2B7301      0.0000 
     22 O18        18.1330   30.5290    3.5110 O.2       1 2B7301      0.0000 
     23 N19        17.8230   32.3620    2.1500 N.am      1 2B7301      0.0000 
     24 C23        11.8230   29.4480    8.9690 C.ar      1 2B7301      0.0000 
     25 C25         9.9500   28.3670    9.9040 C.ar      1 2B7301      0.0000 
     26 C26         9.7670   29.4800   10.6880 C.ar      1 2B7301      0.0000 
     27 N27        10.5230   30.5890   10.6770 N.ar      1 2B7301      0.0000 
     28 C28        11.5360   30.5090    9.7910 C.ar      1 2B7301      0.0000 
     29 H          16.6654   24.3514    5.5277 H         1 2B7301      0.0000 
     30 H          12.5290   31.2502    7.1077 H         1 2B7301      0.0000 
     31 H          19.8280   31.6516    2.2020 H         1 2B7301      0.0000 
     32 H          19.1528   31.8368    0.5742 H         1 2B7301      0.0000 
     33 H          20.8138   33.6191    1.0616 H         1 2B7301      0.0000 
     34 H          11.1765   27.5315    8.4251 H         1 2B7301      0.0000 
     35 H          14.8593   25.5506    6.4643 H         1 2B7301      0.0000 
     36 H          15.5747   26.6243    5.2496 H         1 2B7301      0.0000 
     37 H          15.9237   26.7046    8.2716 H         1 2B7301      0.0000 
     38 H          16.9973   27.5877    7.1727 H         1 2B7301      0.0000 
     39 H          15.7174   32.6353    3.3951 H         1 2B7301      0.0000 
     40 H          17.1848   33.0589    1.7653 H         1 2B7301      0.0000 
     41 H           9.3107   27.5664    9.9746 H         1 2B7301      0.0000 
     42 H           8.9318   29.4478   11.3749 H         1 2B7301      0.0000 
     43 H          12.1966   31.3656    9.7129 H         1 2B7301      0.0000 
     44 H          18.1281   24.1542    7.4966 H         1 2B7301      0.0000 
     45 H          17.5859   25.5518    8.0788 H         1 2B7301      0.0000 
     46 H          16.5957   24.2897    7.9654 H         1 2B7301      0.0000 
     47 H          18.9105   25.3552    5.3329 H         1 2B7301      0.0000 
     48 H          17.8543   26.2211    4.4839 H         1 2B7301      0.0000 
     49 H          18.3693   26.7549    5.9109 H         1 2B7301      0.0000 
@<TRIPOS>BOND
     1    2    1 1    
     2   44    1 1    
     3   45    1 1    
     4   46    1 1    
     5    3    2 1    
     6   15    2 1    
     7   29    2 1    
     8   47    3 1    
     9   48    3 1    
    10   49    3 1    
    11    5    4 am   
    12    9    4 1    
    13   16    4 1    
    14    6    5 1    
    15   17    5 2    
    16    7    6 2    
    17   24    6 1    
    18    8    7 1    
    19   30    7 1    
    20    9    8 2    
    21   19    8 1    
    22   18    9 1    
    23   18   10 1    
    24   19   10 2    
    25   20   10 1    
    26   12   11 1    
    27   23   11 1    
    28   31   11 1    
    29   32   11 1    
    30   13   12 2    
    31   33   12 1    
    32   24   14 ar   
    33   25   14 ar   
    34   34   14 1    
    35   16   15 1    
    36   35   15 1    
    37   36   15 1    
    38   37   16 1    
    39   38   16 1    
    40   21   20 am   
    41   39   20 1    
    42   22   21 2    
    43   23   21 am   
    44   40   23 1    
    45   28   24 ar   
    46   26   25 ar   
    47   41   25 1    
    48   27   26 ar   
    49   42   26 1    
    50   28   27 ar   
    51   43   28 1    
@<TRIPOS>SUBSTRUCTURE
     1 2B7301      1 GROUP   
@<TRIPOS>SET

