#    Name: 3fnh_JPJ_1_INTS_M
#    Modification time : Tue Mar 25 06:10:14 2014

@<TRIPOS>MOLECULE
3fnh_JPJ_1_INTS_M
   65     0     9     0     0
SMALL
NO_CHARGES


@<TRIPOS>ATOM
      1 CA        -22.9090  -50.8640   -8.3410 C.3       3 GLC5        0.0000 
      2 CA        -23.1450  -50.1690  -10.1830 C.3       9 GLL5        0.0000 
      3 CA        -22.6730  -51.5590   -6.4990 C.3       6 GLP5        0.0000 
      4 CA        -21.7155  -55.5135  -11.5305 C.3       3 GLC5        0.0000 
      5 CA        -23.2680  -54.7950  -12.5390 C.3       9 GLL5        0.0000 
      6 CA        -20.1630  -56.2320  -10.5220 C.3       6 GLP5        0.0000 
      7 CA        -23.8725  -56.2130  -11.3285 C.3       3 GLC5        0.0000 
      8 CA        -24.4770  -57.6310  -10.1180 C.3       6 GLP5        0.0000 
      9 CA        -26.5270  -54.4595  -13.1740 C.3       3 GLC5        0.0000 
     10 CA        -25.0960  -53.0900  -12.7650 C.3       9 GLL5        0.0000 
     11 CA        -27.9580  -55.8290  -13.5830 C.3       6 GLP5        0.0000 
     12 CA        -26.1300  -52.4525  -14.5055 C.3       3 GLC5        0.0000 
     13 CA        -25.6850  -51.8230  -12.5060 C.3       9 GLL5        0.0000 
     14 CA        -26.5750  -53.0820  -16.5050 C.3       6 GLP5        0.0000 
     15 N         -27.0710  -49.0090   -9.2355 N.am      2 SEC2        0.0000 
     16 N         -28.0090  -49.1750  -10.1340 N.am      8 SEL2        0.0000 
     17 N         -26.1330  -48.8430   -8.3370 N.am      5 SEP2        0.0000 
     18 O         -29.0540  -49.6945   -9.7120 O.2       1 ALC1        0.0000 
     19 O         -28.0090  -49.1750  -10.1340 O.2       7 ALL1        0.0000 
     20 O         -30.0990  -50.2140   -9.2900 O.2       4 ALP1        0.0000 
     21 CA        -30.1835  -47.6330  -10.5905 C.3       3 GLC5        0.0000 
     22 CA        -28.7250  -48.1240  -12.1130 C.3       9 GLL5        0.0000 
     23 CA        -31.6420  -47.1420   -9.0680 C.3       6 GLP5        0.0000 
     24 CA        -31.2295  -46.1850  -13.1940 C.3       3 GLC5        0.0000 
     25 CA        -29.5070  -47.0040  -14.2170 C.3       9 GLL5        0.0000 
     26 CA        -32.9520  -45.3660  -12.1710 C.3       6 GLP5        0.0000 
     27 CA        -30.3220  -45.3665  -15.1655 C.3       3 GLC5        0.0000 
     28 CA        -31.1370  -43.7290  -16.1140 C.3       6 GLP5        0.0000 
     29 CA        -28.4490  -46.0650  -12.9195 C.3       3 GLC5        0.0000 
     30 CA        -27.3910  -45.1260  -11.6220 C.3       6 GLP5        0.0000 
     31 CA        -32.2305  -47.0940  -13.3860 C.3       3 GLC5        0.0000 
     32 CA        -30.7510  -47.8440  -14.0090 C.3       9 GLL5        0.0000 
     33 CA        -33.7100  -46.3440  -12.7630 C.3       6 GLP5        0.0000 
     34 CA        -30.6120  -49.4765  -12.7405 C.3       3 GLC5        0.0000 
     35 CA        -30.4730  -51.1090  -11.4720 C.3       6 GLP5        0.0000 
     36 CA        -32.7735  -46.3565  -19.0620 C.3       3 GLC5        0.0000 
     37 CA        -32.9860  -47.2860  -17.0530 C.3       9 GLL5        0.0000 
     38 CA        -32.5610  -45.4270  -21.0710 C.3       6 GLP5        0.0000 
     39 CA        -25.4760  -51.6898   -9.7112 C.3       3 GLC5        0.0000 
     40 CA        -23.7610  -51.2400  -11.0530 C.3       9 GLL5        0.0000 
     41 CA        -26.5720  -52.3020   -8.0710 C.3       6 GLP5        0.0000 
     42 CA        -23.0115  -51.2850  -12.7735 C.3       3 GLC5        0.0000 
     43 CA        -23.1730  -52.5050  -11.3200 C.3       9 GLL5        0.0000 
     44 CA        -22.5190  -49.5950  -13.7900 C.3       6 GLP5        0.0000 
     45 CA        -23.0660  -53.6714  -10.1676 C.3       3 GLC5        0.0000 
     46 CA        -22.4810  -54.6840   -8.6450 C.3       6 GLP5        0.0000 
     47 CA        -23.9547  -51.0258  -13.2127 C.3       3 GLC5        0.0000 
     48 CA        -24.9284  -53.9005  -14.3629 C.3       3 GLC5        0.0000 
     49 CA        -25.5330  -54.1960  -16.1600 C.3       6 GLP5        0.0000 
     50 CA        -23.3725  -50.2024  -12.4620 C.3       3 GLC5        0.0000 
     51 CA        -24.9990  -50.9150  -11.6500 C.3       9 GLL5        0.0000 
     52 CA        -24.7460  -49.3109   -9.9260 C.3       3 GLC5        0.0000 
     53 CA        -25.2660  -47.8120   -8.7180 C.3       6 GLP5        0.0000 
     54 CA        -24.4477  -49.2152  -13.2247 C.3       3 GLC5        0.0000 
     55 CA        -26.5020  -49.0370  -12.0130 C.3       9 GLL5        0.0000 
     56 CA        -26.1923  -48.3618  -10.2138 C.3       3 GLC5        0.0000 
     57 CA        -25.9560  -48.4535  -15.4550 C.3       3 GLC5        0.0000 
     58 CA        -26.2510  -48.6340  -13.3060 C.3       9 GLL5        0.0000 
     59 CA        -25.1720  -48.6010  -17.2480 C.3       6 GLP5        0.0000 
     60 CA        -34.8180  -48.5703  -17.1175 C.3       3 GLC5        0.0000 
     61 CA        -32.8080  -48.5230  -17.6830 C.3       9 GLL5        0.0000 
     62 CA        -36.7390  -49.2360  -16.8670 C.3       6 GLP5        0.0000 
     63 CA        -31.7812  -45.5854  -16.2146 C.3       3 GLC5        0.0000 
     64 CA        -32.7497  -49.1741  -18.7490 C.3       3 GLC5        0.0000 
     65 CA        -32.8120  -50.1890  -20.2700 C.3       6 GLP5        0.0000 
@<TRIPOS>BOND
@<TRIPOS>SUBSTRUCTURE
     1 ALC1       18 GROUP        1 X    ALC  0     ROOT ALC X 1
     2 SEC2       15 GROUP        1 X    SEC  0     **** SEC X 2
     3 GLC5        1 GROUP        1 X    GLC  0     **** GLC X 6
     4 ALP1       20 GROUP        1 Y    ALP  0     ROOT ALP Y 8
     5 SEP2       17 GROUP        1 Y    SEP  0     **** SEP Y 9
     6 GLP5        3 GROUP        1 Y    GLP  0     **** GLP Y 13
     7 ALL1       19 GROUP        1 Z    ALL  0     ROOT ALL Z 15
     8 SEL2       16 GROUP        1 Z    SEL  0     **** SEL Z 16
     9 GLL5        2 GROUP        1 Z    GLL  0     **** GLL Z 20
@<TRIPOS>SET

