#    Name: 3fnh_JPJ_1_ligand
#    Modification time : Tue Mar 25 06:10:14 2014

@<TRIPOS>MOLECULE
3fnh_JPJ_1_ligand
   40    42     1     0     0
SMALL
NO_CHARGES


@<TRIPOS>ATOM
      1 CL20      -23.1450  -50.1690  -10.1830 Cl        1 JPJ400      0.0000 
      2 C15       -23.7610  -51.2400  -11.0530 C.ar      1 JPJ400      0.0000 
      3 C16       -23.1730  -52.5050  -11.3200 C.ar      1 JPJ400      0.0000 
      4 C17       -23.8350  -53.4450  -12.1940 C.ar      1 JPJ400      0.0000 
      5 CL21      -23.2680  -54.7950  -12.5390 Cl        1 JPJ400      0.0000 
      6 C22       -25.0960  -53.0900  -12.7650 C.ar      1 JPJ400      0.0000 
      7 C19       -25.6850  -51.8230  -12.5060 C.ar      1 JPJ400      0.0000 
      8 C14       -24.9990  -50.9150  -11.6500 C.ar      1 JPJ400      0.0000 
      9 O13       -25.4920  -49.6700  -11.3430 O.3       1 JPJ400      0.0000 
     10 C2        -26.5020  -49.0370  -12.0130 C.ar      1 JPJ400      0.0000 
     11 C1        -27.7350  -48.7860  -11.4060 C.ar      1 JPJ400      0.0000 
     12 O22       -28.0090  -49.1750  -10.1340 O.3       1 JPJ400      0.0000 
     13 C3        -26.2510  -48.6340  -13.3060 C.ar      1 JPJ400      0.0000 
     14 C4        -27.2290  -47.9780  -14.0180 C.ar      1 JPJ400      0.0000 
     15 C5        -28.4560  -47.7170  -13.4180 C.ar      1 JPJ400      0.0000 
     16 C6        -28.7250  -48.1240  -12.1130 C.ar      1 JPJ400      0.0000 
     17 C7        -29.5070  -47.0040  -14.2170 C.3       1 JPJ400      0.0000 
     18 C18       -30.7510  -47.8440  -14.0090 C.3       1 JPJ400      0.0000 
     19 C28       -31.4470  -48.0980  -15.3080 C.ar      1 JPJ400      0.0000 
     20 C27       -31.2750  -49.3460  -15.9200 C.ar      1 JPJ400      0.0000 
     21 C26       -31.9700  -49.5420  -17.1230 C.ar      1 JPJ400      0.0000 
     22 C25       -32.8080  -48.5230  -17.6830 C.ar      1 JPJ400      0.0000 
     23 C24       -32.9860  -47.2860  -17.0530 C.ar      1 JPJ400      0.0000 
     24 C23       -32.2830  -47.0970  -15.8470 C.ar      1 JPJ400      0.0000 
     25 H         -22.2835  -52.7595  -10.8996 H         1 JPJ400      0.0000 
     26 H         -25.5793  -53.7606  -13.3689 H         1 JPJ400      0.0000 
     27 H         -26.5690  -51.5712  -12.9185 H         1 JPJ400      0.0000 
     28 H         -25.3343  -48.8232  -13.7380 H         1 JPJ400      0.0000 
     29 H         -27.0601  -47.6803  -14.9870 H         1 JPJ400      0.0000 
     30 H         -29.6336  -47.9365  -11.6903 H         1 JPJ400      0.0000 
     31 H         -29.2461  -46.9982  -15.2494 H         1 JPJ400      0.0000 
     32 H         -29.6657  -46.0251  -13.8291 H         1 JPJ400      0.0000 
     33 H         -31.4242  -47.3208  -13.3234 H         1 JPJ400      0.0000 
     34 H         -30.4666  -48.7947  -13.5483 H         1 JPJ400      0.0000 
     35 H         -30.6941  -50.0532  -15.5257 H         1 JPJ400      0.0000 
     36 H         -31.8841  -50.4377  -17.6269 H         1 JPJ400      0.0000 
     37 H         -33.2872  -48.7208  -18.5761 H         1 JPJ400      0.0000 
     38 H         -33.5751  -46.5770  -17.4321 H         1 JPJ400      0.0000 
     39 H         -32.3817  -46.1994  -15.3414 H         1 JPJ400      0.0000 
     40 H         -28.9565  -49.4938  -10.1594 H         1 JPJ400      0.0000 
@<TRIPOS>BOND
     1    2    1 1    
     2    3    2 ar   
     3    8    2 ar   
     4    4    3 ar   
     5   25    3 1    
     6    5    4 1    
     7    6    4 ar   
     8    7    6 ar   
     9   26    6 1    
    10    8    7 ar   
    11   27    7 1    
    12    9    8 1    
    13   10    9 1    
    14   11   10 ar   
    15   13   10 ar   
    16   12   11 1    
    17   16   11 ar   
    18   40   12 1    
    19   14   13 ar   
    20   28   13 1    
    21   15   14 ar   
    22   29   14 1    
    23   16   15 ar   
    24   17   15 1    
    25   30   16 1    
    26   18   17 1    
    27   31   17 1    
    28   32   17 1    
    29   19   18 1    
    30   33   18 1    
    31   34   18 1    
    32   20   19 ar   
    33   24   19 ar   
    34   21   20 ar   
    35   35   20 1    
    36   22   21 ar   
    37   36   21 1    
    38   23   22 ar   
    39   37   22 1    
    40   24   23 ar   
    41   38   23 1    
    42   39   24 1    
@<TRIPOS>SUBSTRUCTURE
     1 JPJ400      1 GROUP   
@<TRIPOS>SET

