#    Name: 1tkx_GWB_1_INTS_M
#    Modification time : Tue Mar 25 05:27:41 2014

@<TRIPOS>MOLECULE
1tkx_GWB_1_INTS_M
   68     0     6     0     0
SMALL
NO_CHARGES


@<TRIPOS>ATOM
      1 CA          0.5025  -35.7800   27.4180 C.3       2 GLC5        0.0000 
      2 CA          0.7730  -34.6330   26.1380 C.3       6 GLL5        0.0000 
      3 CA          0.2320  -36.9270   28.6980 C.3       4 GLP5        0.0000 
      4 CA          1.8430  -32.9270   24.6325 C.3       2 GLC5        0.0000 
      5 CA          1.2680  -33.7150   26.6210 C.3       6 GLL5        0.0000 
      6 CA          2.4180  -32.1390   22.6440 C.3       4 GLP5        0.0000 
      7 CA          3.0150  -33.5620   27.8950 C.3       2 GLC5        0.0000 
      8 CA          1.9960  -32.3710   27.3240 C.3       6 GLL5        0.0000 
      9 CA          4.0340  -34.7530   28.4660 C.3       4 GLP5        0.0000 
     10 CA          3.8615  -31.2605   25.5810 C.3       2 GLC5        0.0000 
     11 CA          2.0490  -31.3850   26.2340 C.3       6 GLL5        0.0000 
     12 CA          5.6740  -31.1360   24.9280 C.3       4 GLP5        0.0000 
     13 CA          2.2335  -31.7620   24.4390 C.3       2 GLC5        0.0000 
     14 CA          3.4050  -32.5320   27.6045 C.3       2 GLC5        0.0000 
     15 CA          4.7610  -33.6790   28.9750 C.3       4 GLP5        0.0000 
     16 CA          0.5265  -31.3005   25.1370 C.3       2 GLC5        0.0000 
     17 CA          0.9700  -31.3220   27.2890 C.3       6 GLL5        0.0000 
     18 CA          0.0830  -31.2790   22.9850 C.3       4 GLP5        0.0000 
     19 CA          1.3050  -30.0735   28.4020 C.3       2 GLC5        0.0000 
     20 CA          1.6400  -28.8250   29.5150 C.3       4 GLP5        0.0000 
     21 O          -1.2005  -35.1135   20.1630 O.2       1 ALC1        0.0000 
     22 O          -0.7720  -35.3280   21.4040 O.2       5 ALL1        0.0000 
     23 O          -1.6290  -34.8990   18.9220 O.2       3 ALP1        0.0000 
     24 CA          1.5460  -34.1810   22.9365 C.3       2 GLC5        0.0000 
     25 CA          0.6740  -36.2230   23.2290 C.3       6 GLL5        0.0000 
     26 CA         -0.4350  -33.4500   21.5535 C.3       2 GLC5        0.0000 
     27 CA         -1.6080  -34.7560   22.3360 C.3       6 GLL5        0.0000 
     28 CA          0.7380  -32.1440   20.7710 C.3       4 GLP5        0.0000 
     29 CA         -2.3115  -36.4605   21.3120 C.3       2 GLC5        0.0000 
     30 CA         -3.0150  -38.1650   20.2880 C.3       4 GLP5        0.0000 
     31 CA         -5.5360  -33.7500   22.2495 C.3       2 GLC5        0.0000 
     32 CA         -3.5390  -33.3250   22.8610 C.3       6 GLL5        0.0000 
     33 CA         -7.5330  -34.1750   21.6380 C.3       4 GLP5        0.0000 
     34 CA         -4.9735  -33.2355   26.8085 C.3       2 GLC5        0.0000 
     35 CA         -4.0710  -32.8640   25.1850 C.3       6 GLL5        0.0000 
     36 CA         -5.8760  -33.6070   28.4320 C.3       4 GLP5        0.0000 
     37 CA          2.8335  -34.3145   22.8425 C.3       2 GLC5        0.0000 
     38 CA          3.2490  -36.4900   23.0410 C.3       6 GLL5        0.0000 
     39 CA          5.1225  -36.1460   22.9825 C.3       2 GLC5        0.0000 
     40 CA          6.9960  -35.8020   22.9240 C.3       4 GLP5        0.0000 
     41 CA          2.4515  -39.9965   25.1045 C.3       2 GLC5        0.0000 
     42 CA          1.8240  -38.4430   23.8350 C.3       6 GLL5        0.0000 
     43 CA          3.0790  -41.5500   26.3740 C.3       4 GLP5        0.0000 
     44 CA          2.5272  -34.4635   27.4228 C.3       2 GLC5        0.0000 
     45 CA          0.3375  -33.9505   28.2572 C.3       2 GLC5        0.0000 
     46 CA         -0.9570  -34.8580   29.5420 C.3       4 GLP5        0.0000 
     47 CA          2.4733  -30.3595   27.8520 C.3       2 GLC5        0.0000 
     48 CA          2.9240  -28.8410   28.9250 C.3       4 GLP5        0.0000 
     49 CA         -0.2283  -30.4418   26.2843 C.3       2 GLC5        0.0000 
     50 CA         -1.9660  -29.5300   25.8070 C.3       4 GLP5        0.0000 
     51 CA         -3.2252  -36.0330   23.3810 C.3       2 GLC5        0.0000 
     52 CA         -1.3290  -34.9200   23.7460 C.3       6 GLL5        0.0000 
     53 CA         -4.9820  -37.2280   23.7210 C.3       4 GLP5        0.0000 
     54 CA         -0.8370  -32.9395   23.6005 C.3       2 GLC5        0.0000 
     55 CA         -4.0625  -31.4205   25.1550 C.3       2 GLC5        0.0000 
     56 CA         -3.2750  -33.4880   24.2510 C.3       6 GLL5        0.0000 
     57 CA         -4.4520  -29.6650   25.5920 C.3       4 GLP5        0.0000 
     58 CA         -4.0528  -35.4357   23.0520 C.3       2 GLC5        0.0000 
     59 CA         -1.4872  -32.4816   22.8578 C.3       2 GLC5        0.0000 
     60 CA         -2.7080  -33.9620   21.9050 C.3       6 GLL5        0.0000 
     61 CA         -3.8702  -35.1525   25.4744 C.3       2 GLC5        0.0000 
     62 CA         -2.1850  -34.2800   24.6860 C.3       6 GLL5        0.0000 
     63 CA         -4.3400  -36.9310   26.1220 C.3       4 GLP5        0.0000 
     64 CA          2.8758  -37.3735   25.6283 C.3       2 GLC5        0.0000 
     65 CA          3.8610  -37.0660   27.4650 C.3       4 GLP5        0.0000 
     66 CA          2.9038  -39.0964   22.7644 C.3       2 GLC5        0.0000 
     67 CA          1.9570  -36.9190   23.7480 C.3       6 GLL5        0.0000 
     68 CA          3.5940  -40.6190   21.9140 C.3       4 GLP5        0.0000 
@<TRIPOS>BOND
@<TRIPOS>SUBSTRUCTURE
     1 ALC1       21 GROUP        1 X    ALC  0     ROOT ALC X 1
     2 GLC5        1 GROUP        1 X    GLC  0     **** GLC X 6
     3 ALP1       23 GROUP        1 Y    ALP  0     ROOT ALP Y 8
     4 GLP5        3 GROUP        1 Y    GLP  0     **** GLP Y 13
     5 ALL1       22 GROUP        1 Z    ALL  0     ROOT ALL Z 15
     6 GLL5        2 GROUP        1 Z    GLL  0     **** GLL Z 20
@<TRIPOS>SET

