#    Name: 1tkx_GWB_1_ligand
#    Modification time : Tue Mar 25 05:27:41 2014

@<TRIPOS>MOLECULE
1tkx_GWB_1_ligand
   37    39     1     0     0
SMALL
NO_CHARGES


@<TRIPOS>ATOM
      1 CA          0.7730  -34.6330   26.1380 C.1       1 GWB999      0.0000 
      2 CB          1.2680  -33.7150   26.6210 C.1       1 GWB999      0.0000 
      3 CC          1.9960  -32.3710   27.3240 C.3       1 GWB999      0.0000 
      4 CD          2.0490  -31.3850   26.2340 C.3       1 GWB999      0.0000 
      5 CE          0.9700  -31.3220   27.2890 C.3       1 GWB999      0.0000 
      6 N1         -0.7720  -35.3280   21.4040 N.am      1 GWB999      0.0000 
      7 C6          0.3650  -36.0650   21.7680 C.2       1 GWB999      0.0000 
      8 O2          1.0670  -36.5610   20.8800 O.2       1 GWB999      0.0000 
      9 C5          0.6740  -36.2230   23.2290 C.2       1 GWB999      0.0000 
     10 C4         -0.1910  -35.6460   24.1620 C.2       1 GWB999      0.0000 
     11 O4          0.1220  -35.7660   25.5290 O.3       1 GWB999      0.0000 
     12 C2         -1.6080  -34.7560   22.3360 C.ar      1 GWB999      0.0000 
     13 C3         -1.3290  -34.9200   23.7460 C.ar      1 GWB999      0.0000 
     14 C7         -2.1850  -34.2800   24.6860 C.ar      1 GWB999      0.0000 
     15 C8         -3.2750  -33.4880   24.2510 C.ar      1 GWB999      0.0000 
     16 C9         -3.5390  -33.3250   22.8610 C.ar      1 GWB999      0.0000 
     17 C10        -2.7080  -33.9620   21.9050 C.ar      1 GWB999      0.0000 
     18 F          -4.0710  -32.8640   25.1850 F         1 GWB999      0.0000 
     19 C11         1.9570  -36.9190   23.7480 C.3       1 GWB999      0.0000 
     20 C12         3.2490  -36.4900   23.0410 C.3       1 GWB999      0.0000 
     21 C13         1.8240  -38.4430   23.8350 C.3       1 GWB999      0.0000 
     22 H           2.5666  -32.3797   27.9002 H         1 GWB999      0.0000 
     23 H           1.6651  -31.7639   25.4503 H         1 GWB999      0.0000 
     24 H           2.6974  -30.7211   26.4437 H         1 GWB999      0.0000 
     25 H           1.2042  -30.6316   27.9013 H         1 GWB999      0.0000 
     26 H           0.1719  -31.6744   26.9078 H         1 GWB999      0.0000 
     27 H          -0.9820  -35.2157   20.3865 H         1 GWB999      0.0000 
     28 H          -2.0077  -34.3957   25.6880 H         1 GWB999      0.0000 
     29 H          -4.3229  -32.7522   22.5575 H         1 GWB999      0.0000 
     30 H          -2.8958  -33.8531   20.9105 H         1 GWB999      0.0000 
     31 H           2.0724  -36.5686   24.8300 H         1 GWB999      0.0000 
     32 H           4.0493  -36.9615   23.4115 H         1 GWB999      0.0000 
     33 H           3.2196  -36.6881   22.0613 H         1 GWB999      0.0000 
     34 H           3.4166  -35.5088   23.1368 H         1 GWB999      0.0000 
     35 H           2.6640  -38.8707   24.1689 H         1 GWB999      0.0000 
     36 H           1.0891  -38.7169   24.4554 H         1 GWB999      0.0000 
     37 H           1.6222  -38.8497   22.9440 H         1 GWB999      0.0000 
@<TRIPOS>BOND
     1    2    1 3    
     2   11    1 1    
     3    3    2 1    
     4    4    3 1    
     5    5    3 1    
     6   22    3 1    
     7    5    4 1    
     8   23    4 1    
     9   24    4 1    
    10   25    5 1    
    11   26    5 1    
    12    7    6 am   
    13   12    6 1    
    14   27    6 1    
    15    8    7 2    
    16    9    7 1    
    17   10    9 2    
    18   19    9 1    
    19   11   10 1    
    20   13   10 1    
    21   13   12 ar   
    22   17   12 ar   
    23   14   13 ar   
    24   15   14 ar   
    25   28   14 1    
    26   16   15 ar   
    27   18   15 1    
    28   17   16 ar   
    29   29   16 1    
    30   30   17 1    
    31   20   19 1    
    32   21   19 1    
    33   31   19 1    
    34   32   20 1    
    35   33   20 1    
    36   34   20 1    
    37   35   21 1    
    38   36   21 1    
    39   37   21 1    
@<TRIPOS>SUBSTRUCTURE
     1 GWB999      1 GROUP   
@<TRIPOS>SET

