#    Name: 1ncq_W11_1_INTS_M
#    Modification time : Mon Mar 24 18:01:03 2014

@<TRIPOS>MOLECULE
1ncq_W11_1_INTS_M
   69     0     3     0     0
SMALL
NO_CHARGES


@<TRIPOS>ATOM
      1 CA         31.5720   11.6410  124.6950 C.3       1 GLC5        0.0000 
      2 CA         29.6440   11.1350  125.1350 C.3       3 GLL5        0.0000 
      3 CA         33.5000   12.1470  124.2550 C.3       2 GLP5        0.0000 
      4 CA         28.4365   10.5980  123.4990 C.3       1 GLC5        0.0000 
      5 CA         27.2290   10.0610  121.8630 C.3       2 GLP5        0.0000 
      6 CA         30.3995    6.9600  125.1145 C.3       1 GLC5        0.0000 
      7 CA         31.6880    8.1650  124.0940 C.3       3 GLL5        0.0000 
      8 CA         29.1110    5.7550  126.1350 C.3       2 GLP5        0.0000 
      9 CA         31.3495    5.4640  122.5740 C.3       1 GLC5        0.0000 
     10 CA         32.3750    7.0780  123.3230 C.3       3 GLL5        0.0000 
     11 CA         30.3240    3.8500  121.8250 C.3       2 GLP5        0.0000 
     12 CA         30.7100    7.5725  122.2235 C.3       1 GLC5        0.0000 
     13 CA         29.0450    8.0670  121.1240 C.3       2 GLP5        0.0000 
     14 CA         33.9440    6.3020  126.0425 C.3       1 GLC5        0.0000 
     15 CA         33.2200    6.2880  124.2830 C.3       3 GLL5        0.0000 
     16 CA         34.6680    6.3160  127.8020 C.3       2 GLP5        0.0000 
     17 CA         32.0765    4.5420  122.6545 C.3       1 GLC5        0.0000 
     18 CA         33.8290    5.2340  123.4840 C.3       3 GLL5        0.0000 
     19 CA         37.8860    5.9585  126.6635 C.3       1 GLC5        0.0000 
     20 CA         36.7750    5.0020  125.0570 C.3       3 GLL5        0.0000 
     21 CA         38.9970    6.9150  128.2700 C.3       2 GLP5        0.0000 
     22 CA         36.1735    4.1770  126.5550 C.3       1 GLC5        0.0000 
     23 CA         35.5720    3.3520  128.0530 C.3       2 GLP5        0.0000 
     24 CA         36.9395    6.2705  123.9715 C.3       1 GLC5        0.0000 
     25 CA         37.1040    7.5390  122.8860 C.3       2 GLP5        0.0000 
     26 CA         33.6660    0.1225  123.9900 C.3       1 GLC5        0.0000 
     27 CA         33.4520    1.4170  122.9140 C.3       3 GLL5        0.0000 
     28 CA         33.8800   -1.1720  125.0660 C.3       2 GLP5        0.0000 
     29 CA         33.9620    2.1765  121.2735 C.3       1 GLC5        0.0000 
     30 CA         34.4720    2.9360  119.6330 C.3       2 GLP5        0.0000 
     31 CA         32.0645    1.6890  121.5795 C.3       1 GLC5        0.0000 
     32 CA         30.6770    1.9610  120.2450 C.3       2 GLP5        0.0000 
     33 CA         33.3230    0.4425  121.2860 C.3       1 GLC5        0.0000 
     34 CA         33.1940   -0.5320  119.6580 C.3       2 GLP5        0.0000 
     35 CA         43.0230    2.4385  124.8970 C.3       1 GLC5        0.0000 
     36 CA         41.7240    0.6950  124.6350 C.3       3 GLL5        0.0000 
     37 CA         44.3220    4.1820  125.1590 C.3       2 GLP5        0.0000 
     38 CA         43.2685    0.5790  125.8260 C.3       1 GLC5        0.0000 
     39 CA         44.8130    0.4630  127.0170 C.3       2 GLP5        0.0000 
     40 CA         41.3310    1.8605  125.9825 C.3       1 GLC5        0.0000 
     41 CA         40.9380    3.0260  127.3300 C.3       2 GLP5        0.0000 
     42 CA         43.2760   -0.5380  125.7260 C.3       1 GLC5        0.0000 
     43 CA         41.7390   -1.5390  124.4350 C.3       3 GLL5        0.0000 
     44 CA         41.7380   -2.2985  126.1270 C.3       1 GLC5        0.0000 
     45 CA         41.7370   -3.0580  127.8190 C.3       2 GLP5        0.0000 
     46 CA         39.6670   -1.6105  125.0950 C.3       1 GLC5        0.0000 
     47 CA         37.5950   -1.6820  125.7550 C.3       2 GLP5        0.0000 
     48 CA         32.3905   10.4210  124.0865 C.3       1 GLC5        0.0000 
     49 CA         35.3143    6.6500  123.3847 C.3       1 GLC5        0.0000 
     50 CA         35.6705    3.4268  126.1242 C.3       1 GLC5        0.0000 
     51 CA         36.4790    3.6900  124.3490 C.3       3 GLL5        0.0000 
     52 CA         34.7067    2.7965  121.6605 C.3       1 GLC5        0.0000 
     53 CA         35.0590    3.3130  124.0420 C.3       3 GLL5        0.0000 
     54 CA         38.4480    3.8758  125.4707 C.3       1 GLC5        0.0000 
     55 CA         37.5930    2.8730  124.0220 C.3       3 GLL5        0.0000 
     56 CA         39.7860    4.1420  126.5790 C.3       2 GLP5        0.0000 
     57 CA         37.1172   -0.1480  124.4650 C.3       1 GLC5        0.0000 
     58 CA         37.3090    1.6230  123.3570 C.3       3 GLL5        0.0000 
     59 CA         36.8213    2.4928  121.6011 C.3       1 GLC5        0.0000 
     60 CA         35.9700    1.1490  122.9930 C.3       3 GLL5        0.0000 
     61 CA         36.9320    3.2870  119.8610 C.3       2 GLP5        0.0000 
     62 CA         41.8431    1.6749  122.7600 C.3       1 GLC5        0.0000 
     63 CA         42.7270   -0.2590  122.9100 C.3       3 GLL5        0.0000 
     64 CA         41.4640    3.3990  121.9640 C.3       2 GLP5        0.0000 
     65 CA         42.4325   -2.5179  123.9751 C.3       1 GLC5        0.0000 
     66 CA         41.7110   -0.3740  123.7690 C.3       3 GLL5        0.0000 
     67 CA         42.8860   -4.1080  124.0630 C.3       2 GLP5        0.0000 
     68 CA         43.6808   -0.4941  123.4942 C.3       1 GLC5        0.0000 
     69 CA         45.3810   -0.1940  122.9930 C.3       2 GLP5        0.0000 
@<TRIPOS>BOND
@<TRIPOS>SUBSTRUCTURE
     1 GLC5        1 GROUP        1 X    GLC  0     ROOT GLC X 6
     2 GLP5        3 GROUP        1 Y    GLP  0     ROOT GLP Y 13
     3 GLL5        2 GROUP        1 Z    GLL  0     ROOT GLL Z 20
@<TRIPOS>SET

