#    Name: 1ncq_W11_1_ligand
#    Modification time : Mon Mar 24 18:01:04 2014

@<TRIPOS>MOLECULE
1ncq_W11_1_ligand
   45    47     1     0     0
SMALL
NO_CHARGES


@<TRIPOS>ATOM
      1 O1         31.8520    8.1720  125.5070 O.3       1 W117001     0.0000 
      2 N2         31.0540    9.3540  126.0070 N.2       1 W117001     0.0000 
      3 C3         30.5070    9.9220  124.9160 C.2       1 W117001     0.0000 
      4 CM3        29.6440   11.1350  125.1350 C.3       1 W117001     0.0000 
      5 C4         30.8740    9.2250  123.7420 C.2       1 W117001     0.0000 
      6 C5         31.6880    8.1650  124.0940 C.2       1 W117001     0.0000 
      7 C1C        32.3750    7.0780  123.3230 C.3       1 W117001     0.0000 
      8 C2C        33.2200    6.2880  124.2830 C.3       1 W117001     0.0000 
      9 C3C        33.8290    5.2340  123.4840 C.3       1 W117001     0.0000 
     10 O1B        34.0360    4.2090  124.4280 O.3       1 W117001     0.0000 
     11 C1B        35.0590    3.3130  124.0420 C.ar      1 W117001     0.0000 
     12 C2B        36.4790    3.6900  124.3490 C.ar      1 W117001     0.0000 
     13 CM2        36.7750    5.0020  125.0570 C.3       1 W117001     0.0000 
     14 C3B        37.5930    2.8730  124.0220 C.ar      1 W117001     0.0000 
     15 C4B        37.3090    1.6230  123.3570 C.ar      1 W117001     0.0000 
     16 C5B        35.9700    1.1490  122.9930 C.ar      1 W117001     0.0000 
     17 C6B        34.8240    2.0010  123.3340 C.ar      1 W117001     0.0000 
     18 CM6        33.4520    1.4170  122.9140 C.3       1 W117001     0.0000 
     19 C2A        38.3960    0.7360  123.0710 C.2       1 W117001     0.0000 
     20 N1A        38.4090   -0.3530  122.1600 N.2       1 W117001     0.0000 
     21 N3A        39.5770    0.8960  123.7850 N.2       1 W117001     0.0000 
     22 C3A        40.3700   -0.1540  123.2880 C.2       1 W117001     0.0000 
     23 CM4        41.7110   -0.3740  123.7690 C.3       1 W117001     0.0000 
     24 O1A        39.8500   -1.0050  122.3140 O.3       1 W117001     0.0000 
     25 F1         41.7240    0.6950  124.6350 F         1 W117001     0.0000 
     26 F2         42.7270   -0.2590  122.9100 F         1 W117001     0.0000 
     27 F3         41.7390   -1.5390  124.4350 F         1 W117001     0.0000 
     28 H          30.5977    9.4604  122.8659 H         1 W117001     0.0000 
     29 H          33.0043    7.5129  122.5562 H         1 W117001     0.0000 
     30 H          31.6376    6.4287  122.8669 H         1 W117001     0.0000 
     31 H          32.5898    5.8762  125.0540 H         1 W117001     0.0000 
     32 H          33.9693    6.9339  124.7101 H         1 W117001     0.0000 
     33 H          34.7578    5.5842  123.0621 H         1 W117001     0.0000 
     34 H          33.1513    4.9286  122.7025 H         1 W117001     0.0000 
     35 H          38.5244    3.1372  124.2347 H         1 W117001     0.0000 
     36 H          35.8423    0.2848  122.5334 H         1 W117001     0.0000 
     37 H          30.1528   11.8797  125.5670 H         1 W117001     0.0000 
     38 H          29.2778   11.4904  124.2750 H         1 W117001     0.0000 
     39 H          28.8624   10.9331  125.7252 H         1 W117001     0.0000 
     40 H          37.7557    5.1327  125.2021 H         1 W117001     0.0000 
     41 H          36.4489    5.7887  124.5328 H         1 W117001     0.0000 
     42 H          36.3373    5.0464  125.9550 H         1 W117001     0.0000 
     43 H          33.5488    0.5319  122.4588 H         1 W117001     0.0000 
     44 H          32.8510    1.2777  123.7010 H         1 W117001     0.0000 
     45 H          32.9694    2.0214  122.2801 H         1 W117001     0.0000 
@<TRIPOS>BOND
     1    2    1 1    
     2    6    1 1    
     3    3    2 2    
     4    4    3 1    
     5    5    3 1    
     6   37    4 1    
     7   38    4 1    
     8   39    4 1    
     9    6    5 2    
    10   28    5 1    
    11    7    6 1    
    12    8    7 1    
    13   29    7 1    
    14   30    7 1    
    15    9    8 1    
    16   31    8 1    
    17   32    8 1    
    18   10    9 1    
    19   33    9 1    
    20   34    9 1    
    21   11   10 1    
    22   12   11 ar   
    23   17   11 ar   
    24   13   12 1    
    25   14   12 ar   
    26   40   13 1    
    27   41   13 1    
    28   42   13 1    
    29   15   14 ar   
    30   35   14 1    
    31   16   15 ar   
    32   19   15 1    
    33   17   16 ar   
    34   36   16 1    
    35   18   17 1    
    36   43   18 1    
    37   44   18 1    
    38   45   18 1    
    39   20   19 2    
    40   21   19 1    
    41   24   20 1    
    42   22   21 2    
    43   23   22 1    
    44   24   22 1    
    45   25   23 1    
    46   26   23 1    
    47   27   23 1    
@<TRIPOS>SUBSTRUCTURE
     1 W117001     1 GROUP   
@<TRIPOS>SET

