#    Name: 2bab_FAD_1_INTS_M
#    Modification time : Mon Mar 24 20:27:00 2014

@<TRIPOS>MOLECULE
2bab_FAD_1_INTS_M
  121     0    12     0     0
SMALL
NO_CHARGES


@<TRIPOS>ATOM
      1 N           0.5970  -28.4650   26.4750 N.am      2 SEC2        0.0000 
      2 N          -0.0420  -27.3740   25.8180 N.am     10 SEL2        0.0000 
      3 N           1.2360  -29.5560   27.1320 N.am      6 SEP2        0.0000 
      4 NZ          1.8870  -26.7990   23.4780 N.4       3 LYC4        0.0000 
      5 NZ          0.7760  -27.6280   23.4220 N.4      11 LYL4        0.0000 
      6 NZ          2.9980  -25.9700   23.5340 N.4       7 LYP4        0.0000 
      7 N           1.8870  -26.7990   23.4780 N.am      2 SEC2        0.0000 
      8 N           0.7760  -27.6280   23.4220 N.am     10 SEL2        0.0000 
      9 N           2.9980  -25.9700   23.5340 N.am      6 SEP2        0.0000 
     10 CA         -4.8040  -29.5210   21.9670 C.3       4 GLC5        0.0000 
     11 CA         -2.8920  -29.6350   22.6120 C.3      12 GLL5        0.0000 
     12 CA         -6.7160  -29.4070   21.3220 C.3       8 GLP5        0.0000 
     13 CA         -1.5110  -30.8330   24.8045 C.3       4 GLC5        0.0000 
     14 CA         -2.2110  -30.9150   23.0460 C.3      12 GLL5        0.0000 
     15 CA         -0.8110  -30.7510   26.5630 C.3       8 GLP5        0.0000 
     16 O          -4.1705  -32.1315   23.4460 O.2       1 ALC1        0.0000 
     17 O          -3.0620  -31.6360   23.9130 O.2       9 ALL1        0.0000 
     18 O          -5.2790  -32.6270   22.9790 O.2       5 ALP1        0.0000 
     19 O          -2.8925  -33.6785   22.3535 O.2       1 ALC1        0.0000 
     20 O          -1.8960  -33.0190   21.9120 O.2       9 ALL1        0.0000 
     21 O          -3.8890  -34.3380   22.7950 O.2       5 ALP1        0.0000 
     22 CA         -4.9570  -30.2935   21.1225 C.3       4 GLC5        0.0000 
     23 CA         -3.1980  -31.1800   20.9230 C.3      12 GLL5        0.0000 
     24 CA         -3.8445  -29.7515   19.6790 C.3       4 GLC5        0.0000 
     25 CA         -4.4910  -28.3230   18.4350 C.3       8 GLP5        0.0000 
     26 CA         -6.0910  -30.6935   16.4775 C.3       4 GLC5        0.0000 
     27 CA         -4.3450  -32.0350   16.2480 C.3      12 GLL5        0.0000 
     28 CA         -7.8370  -29.3520   16.7070 C.3       8 GLP5        0.0000 
     29 CA         -3.3435  -33.7725   16.3915 C.3       4 GLC5        0.0000 
     30 CA         -2.3420  -35.5100   16.5350 C.3       8 GLP5        0.0000 
     31 CA         -6.9745  -30.9380   17.2625 C.3       4 GLC5        0.0000 
     32 CA         -6.1120  -32.5240   17.8180 C.3      12 GLL5        0.0000 
     33 CA         -6.8765  -33.3380   19.5975 C.3       4 GLC5        0.0000 
     34 CA         -7.6410  -34.1520   21.3770 C.3       8 GLP5        0.0000 
     35 CA         -5.0895  -33.9675   18.1210 C.3       4 GLC5        0.0000 
     36 CA         -4.0670  -35.4110   18.4240 C.3       8 GLP5        0.0000 
     37 CA         -7.6375  -32.4900   16.3435 C.3       4 GLC5        0.0000 
     38 CA         -9.1630  -32.4560   14.8690 C.3       8 GLP5        0.0000 
     39 N          -5.5920  -33.6175   19.4615 N.am      2 SEC2        0.0000 
     40 N          -5.3080  -32.1380   18.8770 N.am     10 SEL2        0.0000 
     41 N          -5.8760  -35.0970   20.0460 N.am      6 SEP2        0.0000 
     42 CA         -5.3760  -30.5580   19.9745 C.3       4 GLC5        0.0000 
     43 CA         -4.0360  -31.7090   18.6270 C.3      12 GLL5        0.0000 
     44 N           2.7030  -21.8980   30.8345 N.am      2 SEC2        0.0000 
     45 N           4.2080  -22.6450   31.2500 N.am     10 SEL2        0.0000 
     46 N           1.1980  -21.1510   30.4190 N.am      6 SEP2        0.0000 
     47 N           3.2100  -19.9875   33.1995 N.am      2 SEC2        0.0000 
     48 N           3.1140  -21.2510   32.6280 N.am     10 SEL2        0.0000 
     49 N           3.3060  -18.7240   33.7710 N.am      6 SEP2        0.0000 
     50 N           2.1560  -21.2010   31.5235 N.am      2 SEC2        0.0000 
     51 O           4.5435  -22.1550   34.8300 O.2       1 ALC1        0.0000 
     52 O           4.9250  -22.3160   33.4970 O.2       9 ALL1        0.0000 
     53 O           4.1620  -21.9940   36.1630 O.2       5 ALP1        0.0000 
     54 N           6.3620  -24.9245   34.6590 N.am      2 SEC2        0.0000 
     55 N           6.7710  -23.3900   34.2940 N.am     10 SEL2        0.0000 
     56 N           5.9530  -26.4590   35.0240 N.am      6 SEP2        0.0000 
     57 N           6.1840  -23.8755   35.5970 N.am      2 SEC2        0.0000 
     58 N           5.5970  -24.3610   36.9000 N.am      6 SEP2        0.0000 
     59 CA         10.7285  -26.7515   28.7220 C.3       4 GLC5        0.0000 
     60 CA          9.4870  -28.1320   29.2910 C.3      12 GLL5        0.0000 
     61 CA         11.9700  -25.3710   28.1530 C.3       8 GLP5        0.0000 
     62 CA         10.7760  -29.2750   29.0185 C.3       4 GLC5        0.0000 
     63 CA         12.0650  -30.4180   28.7460 C.3       8 GLP5        0.0000 
     64 CA         11.0540  -28.2790   30.5920 C.3       4 GLC5        0.0000 
     65 CA         12.6210  -28.4260   31.8930 C.3       8 GLP5        0.0000 
     66 CA          9.4075  -29.2890   27.6865 C.3       4 GLC5        0.0000 
     67 CA          9.3280  -30.4460   26.0820 C.3       8 GLP5        0.0000 
     68 CA          5.9835  -27.5645   26.1270 C.3       4 GLC5        0.0000 
     69 CA          7.4180  -27.8810   27.2650 C.3      12 GLL5        0.0000 
     70 CA          4.5490  -27.2480   24.9890 C.3       8 GLP5        0.0000 
     71 CA          7.9170  -29.0490   26.1760 C.3       4 GLC5        0.0000 
     72 CA          8.4160  -30.2170   25.0870 C.3       8 GLP5        0.0000 
     73 CA          7.8325  -26.4105   26.2775 C.3       4 GLC5        0.0000 
     74 CA          8.2470  -24.9400   25.2900 C.3       8 GLP5        0.0000 
     75 CA          4.8590  -27.1415   27.7985 C.3       4 GLC5        0.0000 
     76 CA          6.3860  -26.0500   28.6410 C.3      12 GLL5        0.0000 
     77 CA          3.3320  -28.2330   26.9560 C.3       8 GLP5        0.0000 
     78 CA          6.3485  -24.0595   27.6550 C.3       4 GLC5        0.0000 
     79 CA          4.4930  -23.7430   28.7590 C.3      12 GLL5        0.0000 
     80 CA          8.2040  -24.3760   26.5510 C.3       8 GLP5        0.0000 
     81 CA          3.5080  -25.3100   30.7150 C.3       4 GLC5        0.0000 
     82 CA          3.0680  -24.2850   28.9150 C.3      12 GLL5        0.0000 
     83 CA          3.9480  -26.3350   32.5150 C.3       8 GLP5        0.0000 
     84 CA          1.3900  -23.6710   30.0420 C.3       4 GLC5        0.0000 
     85 CA         -0.2880  -23.0570   31.1690 C.3       8 GLP5        0.0000 
     86 O           2.7160  -22.8425   25.9420 O.2       1 ALC1        0.0000 
     87 O           2.4070  -22.6900   27.2250 O.2       9 ALL1        0.0000 
     88 O           3.0250  -22.9950   24.6590 O.2       5 ALP1        0.0000 
     89 CA         -0.8005  -25.1860   28.5370 C.3       4 GLC5        0.0000 
     90 CA          0.8370  -24.4490   27.6430 C.3      12 GLL5        0.0000 
     91 CA         -2.4380  -25.9230   29.4310 C.3       8 GLP5        0.0000 
     92 CA          0.2745  -23.7530   29.4060 C.3       4 GLC5        0.0000 
     93 CA         -1.2070  -25.4210   27.2400 C.3       4 GLC5        0.0000 
     94 CA          0.2190  -24.1040   26.2860 C.3      12 GLL5        0.0000 
     95 CA         -2.6330  -26.7380   28.1940 C.3       8 GLP5        0.0000 
     96 CA          0.7310  -23.0645   24.8380 C.3       4 GLC5        0.0000 
     97 CA          1.2430  -22.0250   23.3900 C.3       8 GLP5        0.0000 
     98 N          -4.1525  -24.8745   25.8665 N.am      2 SEC2        0.0000 
     99 N          -3.1480  -25.4920   25.0610 N.am     10 SEL2        0.0000 
    100 N          -5.1570  -24.2570   26.6720 N.am      6 SEP2        0.0000 
    101 CA         -3.3072  -28.7470   24.4715 C.3       4 GLC5        0.0000 
    102 CA         -1.9070  -28.4810   22.6360 C.3      12 GLL5        0.0000 
    103 CA         -4.2150  -28.4360   26.3190 C.3       8 GLP5        0.0000 
    104 CA         -3.9257  -33.5427   18.1990 C.3       4 GLC5        0.0000 
    105 CA         -4.2393  -30.0481   18.0704 C.3       4 GLC5        0.0000 
    106 CA         -3.5330  -31.6400   17.3210 C.3      12 GLL5        0.0000 
    107 CA          6.5832  -26.3922   31.6890 C.3       4 GLC5        0.0000 
    108 CA          7.3400  -25.3370   30.7000 C.3      12 GLL5        0.0000 
    109 CA          5.3180  -26.9770   32.7530 C.3       8 GLP5        0.0000 
    110 CA          7.8374  -28.6238   30.1675 C.3       4 GLC5        0.0000 
    111 CA          8.3570  -26.2780   30.5500 C.3      12 GLL5        0.0000 
    112 CA          6.7430  -29.8340   30.6910 C.3       8 GLP5        0.0000 
    113 CA          6.8209  -28.2890   29.4746 C.3       4 GLC5        0.0000 
    114 CA          7.4050  -26.9950   28.4860 C.3      12 GLL5        0.0000 
    115 CA          5.8392  -26.3025   30.9710 C.3       4 GLC5        0.0000 
    116 CA          3.0120  -26.2005   27.6052 C.3       4 GLC5        0.0000 
    117 CA          3.0101  -22.0412   28.6902 C.3       4 GLC5        0.0000 
    118 CA          2.3160  -24.0510   27.5940 C.3      12 GLL5        0.0000 
    119 CA          2.9720  -20.0500   29.1650 C.3       8 GLP5        0.0000 
    120 CA         -0.9465  -22.8212   27.1532 C.3       4 GLC5        0.0000 
    121 CA         -2.4210  -21.3660   27.3420 C.3       8 GLP5        0.0000 
@<TRIPOS>BOND
@<TRIPOS>SUBSTRUCTURE
     1 ALC1       16 GROUP        1 X    ALC  0     ROOT ALC X 1
     2 SEC2        1 GROUP        1 X    SEC  0     **** SEC X 2
     3 LYC4        4 GROUP        1 X    LYC  0     **** LYC X 4
     4 GLC5       10 GROUP        1 X    GLC  0     **** GLC X 6
     5 ALP1       18 GROUP        1 Y    ALP  0     ROOT ALP Y 8
     6 SEP2        3 GROUP        1 Y    SEP  0     **** SEP Y 9
     7 LYP4        6 GROUP        1 Y    LYP  0     **** LYP Y 11
     8 GLP5       12 GROUP        1 Y    GLP  0     **** GLP Y 13
     9 ALL1       17 GROUP        1 Z    ALL  0     ROOT ALL Z 15
    10 SEL2        2 GROUP        1 Z    SEL  0     **** SEL Z 16
    11 LYL4        5 GROUP        1 Z    LYL  0     **** LYL Z 18
    12 GLL5       11 GROUP        1 Z    GLL  0     **** GLL Z 20
@<TRIPOS>SET

