#    Name: 2bab_FAD_1_ligand
#    Modification time : Mon Mar 24 20:27:00 2014

@<TRIPOS>MOLECULE
2bab_FAD_1_ligand
   84    89     1     0     0
SMALL
NO_CHARGES


@<TRIPOS>ATOM
      1 PA         -0.3500  -27.2380   24.3510 P.3       1 FAD1500     0.0000 
      2 O1A        -0.0420  -27.3740   25.8180 O.co2     1 FAD1500     0.0000 
      3 O2A         0.7760  -27.6280   23.4220 O.co2     1 FAD1500     0.0000 
      4 O5B        -1.6140  -28.1870   23.9770 O.3       1 FAD1500     0.0000 
      5 C5B        -1.9070  -28.4810   22.6360 C.3       1 FAD1500     0.0000 
      6 C4B        -2.8920  -29.6350   22.6120 C.3       1 FAD1500     0.0000 
      7 O4B        -3.4140  -29.8340   21.3070 O.3       1 FAD1500     0.0000 
      8 C3B        -2.2110  -30.9150   23.0460 C.3       1 FAD1500     0.0000 
      9 O3B        -3.0620  -31.6360   23.9130 O.3       1 FAD1500     0.0000 
     10 C2B        -1.9760  -31.6280   21.7330 C.3       1 FAD1500     0.0000 
     11 O2B        -1.8960  -33.0190   21.9120 O.3       1 FAD1500     0.0000 
     12 C1B        -3.1980  -31.1800   20.9230 C.3       1 FAD1500     0.0000 
     13 N9A        -3.0470  -31.2690   19.4670 N.pl3     1 FAD1500     0.0000 
     14 C8A        -1.9490  -30.9340   18.7020 C.2       1 FAD1500     0.0000 
     15 N7A        -2.2600  -31.1660   17.3930 N.2       1 FAD1500     0.0000 
     16 C5A        -3.5330  -31.6400   17.3210 C.ar      1 FAD1500     0.0000 
     17 C6A        -4.3450  -32.0350   16.2480 C.ar      1 FAD1500     0.0000 
     18 N6A        -3.8420  -32.1640   15.0160 N.pl3     1 FAD1500     0.0000 
     19 N1A        -5.6250  -32.4790   16.5110 N.ar      1 FAD1500     0.0000 
     20 C2A        -6.1120  -32.5240   17.8180 C.ar      1 FAD1500     0.0000 
     21 N3A        -5.3080  -32.1380   18.8770 N.ar      1 FAD1500     0.0000 
     22 C4A        -4.0360  -31.7090   18.6270 C.ar      1 FAD1500     0.0000 
     23 N1          4.2080  -22.6450   31.2500 N.2       1 FAD1500     0.0000 
     24 C2          4.0500  -22.0300   32.4600 C.2       1 FAD1500     0.0000 
     25 O2          3.1140  -21.2510   32.6280 O.2       1 FAD1500     0.0000 
     26 N3          4.9250  -22.3160   33.4970 N.am      1 FAD1500     0.0000 
     27 C4          5.9930  -23.1810   33.3270 C.2       1 FAD1500     0.0000 
     28 O4          6.7710  -23.3900   34.2940 O.2       1 FAD1500     0.0000 
     29 C4X         6.1830  -23.7830   32.0910 C.2       1 FAD1500     0.0000 
     30 N5          7.2770  -24.5930   31.8470 N.2       1 FAD1500     0.0000 
     31 C5X         7.3400  -25.3370   30.7000 C.ar      1 FAD1500     0.0000 
     32 C6          8.3570  -26.2780   30.5500 C.ar      1 FAD1500     0.0000 
     33 C7          8.3960  -27.1120   29.4440 C.ar      1 FAD1500     0.0000 
     34 C7M         9.4870  -28.1320   29.2910 C.3       1 FAD1500     0.0000 
     35 C8          7.4050  -26.9950   28.4860 C.ar      1 FAD1500     0.0000 
     36 C8M         7.4180  -27.8810   27.2650 C.3       1 FAD1500     0.0000 
     37 C9          6.3860  -26.0500   28.6410 C.ar      1 FAD1500     0.0000 
     38 C9A         6.3350  -25.2060   29.7370 C.ar      1 FAD1500     0.0000 
     39 N10         5.3850  -24.1890   29.8740 N.pl3     1 FAD1500     0.0000 
     40 C10         5.2710  -23.5190   31.0630 C.2       1 FAD1500     0.0000 
     41 C1'         4.4930  -23.7430   28.7590 C.3       1 FAD1500     0.0000 
     42 C2'         3.0680  -24.2850   28.9150 C.3       1 FAD1500     0.0000 
     43 O2'         3.1070  -25.6720   29.2340 O.3       1 FAD1500     0.0000 
     44 C3'         2.3160  -24.0510   27.5940 C.3       1 FAD1500     0.0000 
     45 O3'         2.4070  -22.6900   27.2250 O.3       1 FAD1500     0.0000 
     46 C4'         0.8370  -24.4490   27.6430 C.3       1 FAD1500     0.0000 
     47 O4'         0.7110  -25.8320   27.9440 O.3       1 FAD1500     0.0000 
     48 C5'         0.2190  -24.1040   26.2860 C.3       1 FAD1500     0.0000 
     49 O5'        -1.0990  -24.5880   26.2290 O.3       1 FAD1500     0.0000 
     50 P          -1.8190  -24.8070   24.8070 P.3       1 FAD1500     0.0000 
     51 O1P        -3.1480  -25.4920   25.0610 O.co2     1 FAD1500     0.0000 
     52 O2P        -1.9380  -23.5110   24.0260 O.co2     1 FAD1500     0.0000 
     53 O3P        -0.8240  -25.7360   23.9730 O.3       1 FAD1500     0.0000 
     54 H          -1.0207  -28.7868   22.0733 H         1 FAD1500     0.0000 
     55 H          -2.3686  -27.6373   22.1157 H         1 FAD1500     0.0000 
     56 H          -3.6840  -29.4247   23.3195 H         1 FAD1500     0.0000 
     57 H          -1.2729  -30.6594   23.4678 H         1 FAD1500     0.0000 
     58 H          -1.1145  -31.1864   21.2797 H         1 FAD1500     0.0000 
     59 H          -4.0395  -31.7869   21.2560 H         1 FAD1500     0.0000 
     60 H          -1.1207  -30.5993   19.0370 H         1 FAD1500     0.0000 
     61 H          -4.4898  -32.4291   14.3018 H         1 FAD1500     0.0000 
     62 H          -2.8631  -31.9838   14.9193 H         1 FAD1500     0.0000 
     63 H          -7.0754  -32.8468   17.9907 H         1 FAD1500     0.0000 
     64 H           4.7748  -21.8694   34.4252 H         1 FAD1500     0.0000 
     65 H           9.0907  -26.3522   31.2756 H         1 FAD1500     0.0000 
     66 H           5.6490  -25.9842   27.9094 H         1 FAD1500     0.0000 
     67 H           4.8934  -24.0874   27.7981 H         1 FAD1500     0.0000 
     68 H           4.4479  -22.6478   28.7304 H         1 FAD1500     0.0000 
     69 H           2.5779  -23.7076   29.6803 H         1 FAD1500     0.0000 
     70 H           2.7960  -24.6764   26.8286 H         1 FAD1500     0.0000 
     71 H           0.3617  -23.8265   28.3892 H         1 FAD1500     0.0000 
     72 H           0.8610  -24.5468   25.5121 H         1 FAD1500     0.0000 
     73 H           0.2690  -23.0124   26.1718 H         1 FAD1500     0.0000 
     74 H          10.3915  -27.7066   29.2603 H         1 FAD1500     0.0000 
     75 H           9.4952  -28.7837   30.0494 H         1 FAD1500     0.0000 
     76 H           9.3840  -28.6626   28.4497 H         1 FAD1500     0.0000 
     77 H           8.2528  -27.7607   26.7277 H         1 FAD1500     0.0000 
     78 H           7.3629  -28.8494   27.5082 H         1 FAD1500     0.0000 
     79 H           6.6479  -27.6872   26.6573 H         1 FAD1500     0.0000 
     80 H          -3.9786  -31.5222   23.5295 H         1 FAD1500     0.0000 
     81 H          -2.5278  -33.2203   22.6605 H         1 FAD1500     0.0000 
     82 H           2.2610  -26.0482   28.8561 H         1 FAD1500     0.0000 
     83 H           2.6543  -22.7006   26.2561 H         1 FAD1500     0.0000 
     84 H           0.4192  -26.2576   27.0874 H         1 FAD1500     0.0000 
@<TRIPOS>BOND
     1    2    1 ar   
     2    3    1 ar   
     3    4    1 1    
     4   53    1 1    
     5    5    4 1    
     6    6    5 1    
     7   54    5 1    
     8   55    5 1    
     9    7    6 1    
    10    8    6 1    
    11   56    6 1    
    12   12    7 1    
    13    9    8 1    
    14   10    8 1    
    15   57    8 1    
    16   80    9 1    
    17   11   10 1    
    18   12   10 1    
    19   58   10 1    
    20   81   11 1    
    21   13   12 1    
    22   59   12 1    
    23   14   13 1    
    24   22   13 1    
    25   15   14 2    
    26   60   14 1    
    27   16   15 1    
    28   17   16 ar   
    29   22   16 ar   
    30   18   17 1    
    31   19   17 ar   
    32   61   18 1    
    33   62   18 1    
    34   20   19 ar   
    35   21   20 ar   
    36   63   20 1    
    37   22   21 ar   
    38   24   23 1    
    39   40   23 2    
    40   25   24 2    
    41   26   24 am   
    42   27   26 am   
    43   64   26 1    
    44   28   27 2    
    45   29   27 1    
    46   30   29 2    
    47   40   29 1    
    48   31   30 1    
    49   32   31 ar   
    50   38   31 ar   
    51   33   32 ar   
    52   65   32 1    
    53   34   33 1    
    54   35   33 ar   
    55   74   34 1    
    56   75   34 1    
    57   76   34 1    
    58   36   35 1    
    59   37   35 ar   
    60   77   36 1    
    61   78   36 1    
    62   79   36 1    
    63   38   37 ar   
    64   66   37 1    
    65   39   38 1    
    66   40   39 1    
    67   41   39 1    
    68   42   41 1    
    69   67   41 1    
    70   68   41 1    
    71   43   42 1    
    72   44   42 1    
    73   69   42 1    
    74   82   43 1    
    75   45   44 1    
    76   46   44 1    
    77   70   44 1    
    78   83   45 1    
    79   47   46 1    
    80   48   46 1    
    81   71   46 1    
    82   84   47 1    
    83   49   48 1    
    84   72   48 1    
    85   73   48 1    
    86   50   49 1    
    87   51   50 ar   
    88   52   50 ar   
    89   53   50 1    
@<TRIPOS>SUBSTRUCTURE
     1 FAD1500     1 GROUP   
@<TRIPOS>SET

