#    Name: 2y65_ADP_2_INTS_M
#    Modification time : Tue Mar 25 07:42:03 2014

@<TRIPOS>MOLECULE
2y65_ADP_2_INTS_M
   42     0    12     0     0
SMALL
NO_CHARGES


@<TRIPOS>ATOM
      1 NZ         22.5465   27.9820  -37.8930 N.4       2 LYC4        0.0000 
      2 NZ         22.8530   26.0220  -37.8290 N.4      10 LYL4        0.0000 
      3 NZ         22.2400   29.9420  -37.9570 N.4       6 LYP4        0.0000 
      4 N          21.5775   25.9160  -38.1120 N.am      1 SEC2        0.0000 
      5 N          22.8530   26.0220  -37.8290 N.am      9 SEL2        0.0000 
      6 N          20.3020   25.8100  -38.3950 N.am      5 SEP2        0.0000 
      7 Zn         25.7395   26.7460  -37.7905 Zn        3 ZIC7        0.0000 
      8 Zn         25.1680   26.7220  -38.6580 Zn       11 ZIL7        0.0000 
      9 Zn         26.3110   26.7700  -36.9230 Zn        7 ZIP7        0.0000 
     10 N          26.1630   27.3060  -39.5870 N.am      1 SEC2        0.0000 
     11 N          25.1680   26.7220  -38.6580 N.am      9 SEL2        0.0000 
     12 N          27.1580   27.8900  -40.5160 N.am      5 SEP2        0.0000 
     13 NZ         22.6250   28.8010  -38.8135 N.4       2 LYC4        0.0000 
     14 NZ         23.0100   27.6600  -39.6700 N.4      10 LYL4        0.0000 
     15 N          22.7390   27.3050  -41.1470 N.am      1 SEC2        0.0000 
     16 N          23.0100   27.6600  -39.6700 N.am      9 SEL2        0.0000 
     17 N          22.4680   26.9500  -42.6240 N.am      5 SEP2        0.0000 
     18 N          23.8245   28.1435  -40.7875 N.am      1 SEC2        0.0000 
     19 N          24.6390   28.6270  -41.9050 N.am      5 SEP2        0.0000 
     20 N          22.6250   28.8010  -38.8135 N.am      1 SEC2        0.0000 
     21 N          22.2400   29.9420  -37.9570 N.am      5 SEP2        0.0000 
     22 N          27.0595   25.5710  -41.8305 N.am      1 SEC2        0.0000 
     23 N          25.9280   25.1720  -41.3490 N.am      9 SEL2        0.0000 
     24 N          28.1910   25.9700  -42.3120 N.am      5 SEP2        0.0000 
     25 N          23.0655   26.1405  -41.3260 N.am      1 SEC2        0.0000 
     26 N          23.6630   25.3310  -40.0280 N.am      9 SEL2        0.0000 
     27 CA         21.6720   23.6660  -40.2695 C.3       4 GLC5        0.0000 
     28 CA         23.0490   22.5840  -41.1570 C.3      12 GLL5        0.0000 
     29 CA         20.2950   24.7480  -39.3820 C.3       8 GLP5        0.0000 
     30 CA         26.4350   22.9605  -43.5820 C.3       4 GLC5        0.0000 
     31 CA         25.4580   21.2030  -42.8910 C.3      12 GLL5        0.0000 
     32 CA         27.4120   24.7180  -44.2730 C.3       8 GLP5        0.0000 
     33 CA         22.9865   21.5630  -49.1855 C.3       4 GLC5        0.0000 
     34 CA         24.7050   20.8320  -48.3750 C.3      12 GLL5        0.0000 
     35 CA         21.2680   22.2940  -49.9960 C.3       8 GLP5        0.0000 
     36 CA         22.7378   23.9175  -47.6355 C.3       4 GLC5        0.0000 
     37 CA         24.3820   23.1060  -46.8900 C.3      12 GLL5        0.0000 
     38 CA         21.0360   24.7060  -47.6400 C.3       8 GLP5        0.0000 
     39 CA         22.8538   22.7115  -48.8135 C.3       4 GLC5        0.0000 
     40 CA         26.1171   23.2438  -46.2395 C.3       4 GLC5        0.0000 
     41 CA         24.4970   23.1520  -48.3720 C.3      12 GLL5        0.0000 
     42 CA         27.7950   24.0270  -45.5450 C.3       8 GLP5        0.0000 
@<TRIPOS>BOND
@<TRIPOS>SUBSTRUCTURE
     1 SEC2        4 GROUP        1 X    SEC  0     ROOT SEC X 2
     2 LYC4        1 GROUP        1 X    LYC  0     **** LYC X 4
     3 ZIC7        7 GROUP        1 X    ZIC  0     **** ZIC X 5
     4 GLC5       27 GROUP        1 X    GLC  0     **** GLC X 6
     5 SEP2        6 GROUP        1 Y    SEP  0     ROOT SEP Y 9
     6 LYP4        3 GROUP        1 Y    LYP  0     **** LYP Y 11
     7 ZIP7        9 GROUP        1 Y    ZIP  0     **** ZIP Y 12
     8 GLP5       29 GROUP        1 Y    GLP  0     **** GLP Y 13
     9 SEL2        5 GROUP        1 Z    SEL  0     ROOT SEL Z 16
    10 LYL4        2 GROUP        1 Z    LYL  0     **** LYL Z 18
    11 ZIL7        8 GROUP        1 Z    ZIL  0     **** ZIL Z 19
    12 GLL5       28 GROUP        1 Z    GLL  0     **** GLL Z 20
@<TRIPOS>SET

