#    Name: 2y65_ADP_2_ligand
#    Modification time : Tue Mar 25 07:42:03 2014

@<TRIPOS>MOLECULE
2y65_ADP_2_ligand
   39    41     1     0     0
SMALL
NO_CHARGES


@<TRIPOS>ATOM
      1 PB         23.7160   26.5390  -38.9410 P.3       1 ADP603      0.0000 
      2 O1B        22.8530   26.0220  -37.8290 O.co2     1 ADP603      0.0000 
      3 O2B        25.1680   26.7220  -38.6580 O.co2     1 ADP603      0.0000 
      4 O3B        23.0100   27.6600  -39.6700 O.co2     1 ADP603      0.0000 
      5 PA         24.8830   24.4390  -40.5620 P.3       1 ADP603      0.0000 
      6 O1A        25.3530   23.5860  -39.3900 O.co2     1 ADP603      0.0000 
      7 O2A        25.9280   25.1720  -41.3490 O.co2     1 ADP603      0.0000 
      8 O3A        23.6630   25.3310  -40.0280 O.3       1 ADP603      0.0000 
      9 O5'        24.0960   23.4680  -41.5900 O.3       1 ADP603      0.0000 
     10 C5'        23.0490   22.5840  -41.1570 C.3       1 ADP603      0.0000 
     11 C4'        23.3280   21.1870  -41.7180 C.3       1 ADP603      0.0000 
     12 O4'        23.1010   21.2840  -43.1240 O.3       1 ADP603      0.0000 
     13 C3'        24.8050   20.7800  -41.5900 C.3       1 ADP603      0.0000 
     14 O3'        24.8500   19.3450  -41.5520 O.3       1 ADP603      0.0000 
     15 C2'        25.4580   21.2030  -42.8910 C.3       1 ADP603      0.0000 
     16 O2'        26.5050   20.3210  -43.2990 O.3       1 ADP603      0.0000 
     17 C1'        24.3040   20.9830  -43.8440 C.3       1 ADP603      0.0000 
     18 N9         24.3420   22.0040  -44.9120 N.pl3     1 ADP603      0.0000 
     19 C8         24.1530   23.3150  -44.7100 C.2       1 ADP603      0.0000 
     20 N7         24.2340   23.9900  -45.8810 N.2       1 ADP603      0.0000 
     21 C5         24.3820   23.1060  -46.8900 C.ar      1 ADP603      0.0000 
     22 C6         24.4970   23.1520  -48.3720 C.ar      1 ADP603      0.0000 
     23 N6         24.4630   24.3180  -49.0430 N.pl3     1 ADP603      0.0000 
     24 N1         24.6630   22.0000  -49.0200 N.ar      1 ADP603      0.0000 
     25 C2         24.7050   20.8320  -48.3750 C.ar      1 ADP603      0.0000 
     26 N3         24.6050   20.7330  -47.0460 N.ar      1 ADP603      0.0000 
     27 C4         24.4390   21.7920  -46.2370 C.ar      1 ADP603      0.0000 
     28 H          22.0735   22.9039  -41.5227 H         1 ADP603      0.0000 
     29 H          23.0087   22.5075  -40.0707 H         1 ADP603      0.0000 
     30 H          22.7148   20.4763  -41.2693 H         1 ADP603      0.0000 
     31 H          25.2390   21.2432  -40.7892 H         1 ADP603      0.0000 
     32 H          25.6915   22.2043  -42.8704 H         1 ADP603      0.0000 
     33 H          24.3082   20.0250  -44.2285 H         1 ADP603      0.0000 
     34 H          23.9802   23.7336  -43.8415 H         1 ADP603      0.0000 
     35 H          24.5786   24.2586  -50.0345 H         1 ADP603      0.0000 
     36 H          24.3252   25.1399  -48.4903 H         1 ADP603      0.0000 
     37 H          24.8235   19.9385  -48.9445 H         1 ADP603      0.0000 
     38 H          25.6144   19.0943  -42.1460 H         1 ADP603      0.0000 
     39 H          26.5075   20.3671  -44.2980 H         1 ADP603      0.0000 
@<TRIPOS>BOND
     1    2    1 ar   
     2    3    1 ar   
     3    4    1 ar   
     4    8    1 1    
     5    6    5 ar   
     6    7    5 ar   
     7    8    5 1    
     8    9    5 1    
     9   10    9 1    
    10   11   10 1    
    11   28   10 1    
    12   29   10 1    
    13   12   11 1    
    14   13   11 1    
    15   30   11 1    
    16   17   12 1    
    17   14   13 1    
    18   15   13 1    
    19   31   13 1    
    20   38   14 1    
    21   16   15 1    
    22   17   15 1    
    23   32   15 1    
    24   39   16 1    
    25   18   17 1    
    26   33   17 1    
    27   19   18 1    
    28   27   18 1    
    29   20   19 2    
    30   34   19 1    
    31   21   20 1    
    32   22   21 ar   
    33   27   21 ar   
    34   23   22 1    
    35   24   22 ar   
    36   35   23 1    
    37   36   23 1    
    38   25   24 ar   
    39   26   25 ar   
    40   37   25 1    
    41   27   26 ar   
@<TRIPOS>SUBSTRUCTURE
     1 ADP603      1 GROUP   
@<TRIPOS>SET

