#    Name: 2e94_364_1_INTS_M
#    Modification time : Tue Mar 25 10:43:49 2014

@<TRIPOS>MOLECULE
2e94_364_1_INTS_M
   62     0    12     0     0
SMALL
NO_CHARGES


@<TRIPOS>ATOM
      1 CA         37.0750   55.1675   10.7735 C.3       4 GLC5        0.0000 
      2 CA         36.1370   53.5310   11.5840 C.3      12 GLL5        0.0000 
      3 CA         38.0130   56.8040    9.9630 C.3       8 GLP5        0.0000 
      4 CA         34.5845   54.8435   12.3600 C.3       4 GLC5        0.0000 
      5 CA         33.0320   56.1560   13.1360 C.3       8 GLP5        0.0000 
      6 CA         36.8355   54.3065   14.1090 C.3       4 GLC5        0.0000 
      7 CA         36.4880   52.6820   12.6290 C.3      12 GLL5        0.0000 
      8 CA         37.1830   55.9310   15.5890 C.3       8 GLP5        0.0000 
      9 CA         32.9855   49.7550   11.8560 C.3       4 GLC5        0.0000 
     10 CA         33.0200   50.4150    9.7350 C.3      12 GLL5        0.0000 
     11 CA         32.9510   49.0950   13.9770 C.3       8 GLP5        0.0000 
     12 CA         28.9430   51.0070   10.1990 C.3       4 GLC5        0.0000 
     13 CA         30.3640   49.2900    9.9960 C.3      12 GLL5        0.0000 
     14 CA         27.5220   52.7240   10.4020 C.3       8 GLP5        0.0000 
     15 CA         28.4755   48.4305   12.3050 C.3       4 GLC5        0.0000 
     16 CA         29.3100   48.4230   10.2570 C.3      12 GLL5        0.0000 
     17 CA         27.6410   48.4380   14.3530 C.3       8 GLP5        0.0000 
     18 CA         31.4095   45.0765    8.1900 C.3       4 GLC5        0.0000 
     19 CA         29.6790   45.9550    7.4370 C.3      12 GLL5        0.0000 
     20 CA         33.1400   44.1980    8.9430 C.3       8 GLP5        0.0000 
     21 NZ         32.1810   43.4175    5.2550 N.4       2 LYC4        0.0000 
     22 NZ         30.7590   44.0240    5.2380 N.4      10 LYL4        0.0000 
     23 NZ         33.1780   41.7250    5.9010 N.4       6 LYP4        0.0000 
     24 N          32.1810   43.4175    5.2550 N.am      1 SEC2        0.0000 
     25 N          30.7590   44.0240    5.2380 N.am      9 SEL2        0.0000 
     26 N          33.6030   42.8110    5.2720 N.am      5 SEP2        0.0000 
     27 N          31.3455   42.8540    5.8000 N.am      1 SEC2        0.0000 
     28 N          31.9320   41.6840    6.3620 N.am      5 SEP2        0.0000 
     29 Zn         27.1195   43.6215    6.0905 Zn        3 ZIC7        0.0000 
     30 Zn         28.2570   43.6440    5.6500 Zn       11 ZIL7        0.0000 
     31 Zn         25.9820   43.5990    6.5310 Zn        7 ZIP7        0.0000 
     32 N          26.9630   43.5595    4.8140 N.am      1 SEC2        0.0000 
     33 N          28.2570   43.6440    5.6500 N.am      9 SEL2        0.0000 
     34 N          25.6690   43.4750    3.9780 N.am      5 SEP2        0.0000 
     35 NZ         25.2175   47.2820    6.7585 N.4       2 LYC4        0.0000 
     36 NZ         26.4770   46.0170    6.5000 N.4      10 LYL4        0.0000 
     37 NZ         23.9580   48.5470    7.0170 N.4       6 LYP4        0.0000 
     38 NZ         25.5550   46.2955    5.1715 N.4       2 LYC4        0.0000 
     39 NZ         24.6330   46.5740    3.8430 N.4       6 LYP4        0.0000 
     40 Zn         26.2295   44.8080    6.5155 Zn        3 ZIC7        0.0000 
     41 Zn         26.4770   46.0170    6.5000 Zn       11 ZIL7        0.0000 
     42 N          25.5550   46.2955    5.1715 N.am      1 SEC2        0.0000 
     43 N          26.4770   46.0170    6.5000 N.am      9 SEL2        0.0000 
     44 N          24.6330   46.5740    3.8430 N.am      5 SEP2        0.0000 
     45 NZ         25.7865   48.4130    6.9795 N.4       2 LYC4        0.0000 
     46 NZ         27.6150   48.2790    6.9420 N.4      10 LYL4        0.0000 
     47 NZ         25.9375   47.0390    4.1905 N.4       2 LYC4        0.0000 
     48 NZ         27.2420   47.5040    4.5380 N.4      10 LYL4        0.0000 
     49 N          26.7360   48.7510    4.1715 N.am      1 SEC2        0.0000 
     50 N          27.2420   47.5040    4.5380 N.am      9 SEL2        0.0000 
     51 N          26.2300   49.9980    3.8050 N.am      5 SEP2        0.0000 
     52 CA         37.5258   51.6830   13.8253 C.3       4 GLC5        0.0000 
     53 CA         36.0170   51.3740   12.6480 C.3      12 GLL5        0.0000 
     54 CA         38.7990   51.3380   15.0120 C.3       8 GLP5        0.0000 
     55 CA         34.5517   51.8325   13.3677 C.3       4 GLC5        0.0000 
     56 CA         32.8510   51.6370   14.0970 C.3       8 GLP5        0.0000 
     57 CA         36.0230   49.2005   11.8845 C.3       4 GLC5        0.0000 
     58 CA         35.1970   50.9120   11.6240 C.3      12 GLL5        0.0000 
     59 CA         36.4390   47.2580   11.6330 C.3       8 GLP5        0.0000 
     60 CA         33.9363   51.4858   12.5985 C.3       4 GLC5        0.0000 
     61 CA         37.0467   50.6630   10.6695 C.3       4 GLC5        0.0000 
     62 CA         38.8670   49.8760    9.9830 C.3       8 GLP5        0.0000 
@<TRIPOS>BOND
@<TRIPOS>SUBSTRUCTURE
     1 SEC2       24 GROUP        1 X    SEC  0     ROOT SEC X 2
     2 LYC4       21 GROUP        1 X    LYC  0     **** LYC X 4
     3 ZIC7       29 GROUP        1 X    ZIC  0     **** ZIC X 5
     4 GLC5        1 GROUP        1 X    GLC  0     **** GLC X 6
     5 SEP2       26 GROUP        1 Y    SEP  0     ROOT SEP Y 9
     6 LYP4       23 GROUP        1 Y    LYP  0     **** LYP Y 11
     7 ZIP7       31 GROUP        1 Y    ZIP  0     **** ZIP Y 12
     8 GLP5        3 GROUP        1 Y    GLP  0     **** GLP Y 13
     9 SEL2       25 GROUP        1 Z    SEL  0     ROOT SEL Z 16
    10 LYL4       22 GROUP        1 Z    LYL  0     **** LYL Z 18
    11 ZIL7       30 GROUP        1 Z    ZIL  0     **** ZIL Z 19
    12 GLL5        2 GROUP        1 Z    GLL  0     **** GLL Z 20
@<TRIPOS>SET

