#    Name: 2e94_364_1_ligand
#    Modification time : Tue Mar 25 10:43:50 2014

@<TRIPOS>MOLECULE
2e94_364_1_ligand
   45    47     1     0     0
SMALL
NO_CHARGES


@<TRIPOS>ATOM
      1 CAM        35.3180   53.0670   10.5620 C.ar      1 3641101     0.0000 
      2 CAI        36.1370   53.5310   11.5840 C.ar      1 3641101     0.0000 
      3 CAH        36.4880   52.6820   12.6290 C.ar      1 3641101     0.0000 
      4 CAJ        36.0170   51.3740   12.6480 C.ar      1 3641101     0.0000 
      5 CAN        35.1970   50.9120   11.6240 C.ar      1 3641101     0.0000 
      6 CAV        34.8460   51.7570   10.5760 C.ar      1 3641101     0.0000 
      7 CAW        34.0920   51.2750    9.5140 C.ar      1 3641101     0.0000 
      8 CAS        33.0200   50.4150    9.7350 C.ar      1 3641101     0.0000 
      9 CAO        34.4090   51.6590    8.2140 C.ar      1 3641101     0.0000 
     10 CAK        33.6640   51.1810    7.1430 C.ar      1 3641101     0.0000 
     11 CAP        32.5970   50.3180    7.3690 C.ar      1 3641101     0.0000 
     12 CAX        32.2710   49.9350    8.6650 C.ar      1 3641101     0.0000 
     13 CAY        31.1760   49.1050    8.8820 C.ar      1 3641101     0.0000 
     14 CAT        30.9280   48.0420    8.0190 C.ar      1 3641101     0.0000 
     15 CAQ        30.3640   49.2900    9.9960 C.ar      1 3641101     0.0000 
     16 CAL        29.3100   48.4230   10.2570 C.ar      1 3641101     0.0000 
     17 CAR        29.0600   47.3550    9.4030 C.ar      1 3641101     0.0000 
     18 NAZ        29.8730   47.1580    8.2800 N.pl3     1 3641101     0.0000 
     19 CAU        29.6790   45.9550    7.4370 C.3       1 3641101     0.0000 
     20 CBA        29.2480   46.2370    5.9940 C.3       1 3641101     0.0000 
     21 PBB        29.2590   44.5910    5.1110 P.3       1 3641101     0.0000 
     22 OAD        29.0390   44.8840    3.5440 O.co2     1 3641101     0.0000 
     23 OAE        30.7590   44.0240    5.2380 O.co2     1 3641101     0.0000 
     24 OAA        28.2570   43.6440    5.6500 O.co2     1 3641101     0.0000 
     25 PBC        27.5660   47.0450    5.9070 P.3       1 3641101     0.0000 
     26 OAF        26.4770   46.0170    6.5000 O.co2     1 3641101     0.0000 
     27 OAG        27.6150   48.2790    6.9420 O.co2     1 3641101     0.0000 
     28 OAB        27.2420   47.5040    4.5380 O.co2     1 3641101     0.0000 
     29 OAC        30.1860   47.1170    5.3640 O.3       1 3641101     0.0000 
     30 H          35.0572   53.6958    9.7874 H         1 3641101     0.0000 
     31 H          36.4829   54.4980   11.5690 H         1 3641101     0.0000 
     32 H          37.0947   53.0218   13.3857 H         1 3641101     0.0000 
     33 H          36.2756   50.7460   13.4214 H         1 3641101     0.0000 
     34 H          34.8493   49.9438   11.6414 H         1 3641101     0.0000 
     35 H          32.7799   50.1323   10.6964 H         1 3641101     0.0000 
     36 H          35.1979   52.2990    8.0469 H         1 3641101     0.0000 
     37 H          33.9009   51.4648    6.1835 H         1 3641101     0.0000 
     38 H          32.0475   49.9622    6.5746 H         1 3641101     0.0000 
     39 H          31.5162   47.9018    7.1892 H         1 3641101     0.0000 
     40 H          30.5469   50.0804   10.6357 H         1 3641101     0.0000 
     41 H          28.7143   48.5713   11.0825 H         1 3641101     0.0000 
     42 H          28.2845   46.7115    9.5906 H         1 3641101     0.0000 
     43 H          28.9176   45.2885    7.8977 H         1 3641101     0.0000 
     44 H          30.6179   45.3603    7.4038 H         1 3641101     0.0000 
     45 H          29.8534   47.2216    4.4268 H         1 3641101     0.0000 
@<TRIPOS>BOND
     1    2    1 ar   
     2    6    1 ar   
     3   30    1 1    
     4    3    2 ar   
     5   31    2 1    
     6    4    3 ar   
     7   32    3 1    
     8    5    4 ar   
     9   33    4 1    
    10    6    5 ar   
    11   34    5 1    
    12    7    6 1    
    13    8    7 ar   
    14    9    7 ar   
    15   12    8 ar   
    16   35    8 1    
    17   10    9 ar   
    18   36    9 1    
    19   11   10 ar   
    20   37   10 1    
    21   12   11 ar   
    22   38   11 1    
    23   13   12 1    
    24   14   13 ar   
    25   15   13 ar   
    26   18   14 ar   
    27   39   14 1    
    28   16   15 ar   
    29   40   15 1    
    30   17   16 ar   
    31   41   16 1    
    32   18   17 ar   
    33   42   17 1    
    34   19   18 1    
    35   20   19 1    
    36   43   19 1    
    37   44   19 1    
    38   21   20 1    
    39   25   20 1    
    40   29   20 1    
    41   22   21 ar   
    42   23   21 ar   
    43   24   21 ar   
    44   26   25 ar   
    45   27   25 ar   
    46   28   25 ar   
    47   45   29 1    
@<TRIPOS>SUBSTRUCTURE
     1 3641101     1 GROUP   
@<TRIPOS>SET

