#    Name: 2ONF_1_CAVITY_N1_ALL.mol2
#    Modification time : Tue Mar 11 03:17:44 2014

@<TRIPOS>MOLECULE
2ONF_1_CAVITY_N1_ALL.mol2
   84     0     7     0     0
SMALL
NO_CHARGES


@<TRIPOS>ATOM
      1 O           1.9043    8.5746    5.3132 O.2       2 ALA2        0.0000 
      2 CZ          1.8468    7.4325    6.2839 C.ar      5 PHE5        0.0000 
      3 DU          3.0601   12.0252    4.8059 H         7 CUB7        0.0000 
      4 DU          3.0025   10.8831    5.7766 H         7 CUB7        0.0000 
      5 OD1         2.9450    9.7410    6.7473 O.3       3 ASP3        0.0000 
      6 O           2.8874    8.5988    7.7180 O.2       2 ALA2        0.0000 
      7 CA          3.5207   12.2200    2.7444 C.3       6 GLY6        0.0000 
      8 CZ          3.4632   11.0778    3.7151 C.ar      5 PHE5        0.0000 
      9 DU          3.4056    9.9357    4.6858 H         7 CUB7        0.0000 
     10 CZ          3.3480    8.7936    5.6564 C.ar      5 PHE5        0.0000 
     11 O           3.5826   11.8548    9.2722 O.2       2 ALA2        0.0000 
     12 NZ          3.5250   10.7126   10.2429 N.2       4 LYS4        0.0000 
     13 CA          4.1583   14.3337    5.2693 C.3       6 GLY6        0.0000 
     14 CA          4.1008   13.1916    6.2400 C.3       6 GLY6        0.0000 
     15 DU          4.0432   12.0495    7.2107 H         7 CUB7        0.0000 
     16 O           3.9856   10.9073    8.1814 O.2       2 ALA2        0.0000 
     17 CA          3.9281    9.7652    9.1521 C.3       6 GLY6        0.0000 
     18 CA          4.5038   12.2442    5.1492 C.3       6 GLY6        0.0000 
     19 DU          4.4462   11.1021    6.1199 H         7 CUB7        0.0000 
     20 CZ          4.3887    9.9599    7.0905 C.ar      5 PHE5        0.0000 
     21 CZ          4.3311    8.8178    8.0612 C.ar      5 PHE5        0.0000 
     22 CZ          4.9068   11.2968    4.0583 C.ar      5 PHE5        0.0000 
     23 CZ          4.8493   10.1546    5.0290 C.ar      5 PHE5        0.0000 
     24 CZ          4.7917    9.0125    5.9997 C.ar      5 PHE5        0.0000 
     25 DU          4.6232   13.0211   10.7063 H         7 CUB7        0.0000 
     26 NZ          4.5657   11.8790   11.6770 N.2       4 LYS4        0.0000 
     27 CZ          5.0838   13.2158    8.6448 C.ar      5 PHE5        0.0000 
     28 DU          5.0263   12.0737    9.6155 H         7 CUB7        0.0000 
     29 CA          4.9687   10.9316   10.5862 C.3       6 GLY6        0.0000 
     30 CA          5.5445   13.4106    6.5833 C.3       6 GLY6        0.0000 
     31 CZ          5.4869   12.2684    7.5540 C.ar      5 PHE5        0.0000 
     32 DU          5.4293   11.1263    8.5246 H         7 CUB7        0.0000 
     33 CA          5.3717    9.9842    9.4953 C.3       6 GLY6        0.0000 
     34 CA          5.8899   11.3210    6.4631 C.3       6 GLY6        0.0000 
     35 CZ          5.8324   10.1789    7.4338 C.ar      5 PHE5        0.0000 
     36 CZ          5.7748    9.0367    8.4045 C.ar      5 PHE5        0.0000 
     37 CZ          6.2930   10.3736    5.3723 C.ar      5 PHE5        0.0000 
     38 CZ          6.2354    9.2315    6.3429 C.ar      5 PHE5        0.0000 
     39 CZ          5.2033   13.9928   14.2020 C.ar      5 PHE5        0.0000 
     40 N           5.1457   12.8506   15.1727 N.2       2 ALA2        0.0000 
     41 CZ          5.6063   13.0454   13.1111 C.ar      5 PHE5        0.0000 
     42 NZ          5.5487   11.9032   14.0818 N.2       4 LYS4        0.0000 
     43 CZ          6.1245   14.3822   10.0789 C.ar      5 PHE5        0.0000 
     44 CZ          6.0669   13.2401   11.0496 C.ar      5 PHE5        0.0000 
     45 CZ          6.0093   12.0979   12.0203 C.ar      5 PHE5        0.0000 
     46 NZ          5.9518   10.9558   12.9910 N.2       4 LYS4        0.0000 
     47 CZ          6.5275   13.4348    8.9881 C.ar      5 PHE5        0.0000 
     48 DU          6.4700   12.2927    9.9587 H         7 CUB7        0.0000 
     49 CA          6.4124   11.1505   10.9294 C.3       6 GLY6        0.0000 
     50 CZ          6.9306   12.4874    7.8972 C.ar      5 PHE5        0.0000 
     51 DU          6.8730   11.3452    8.8679 H         7 CUB7        0.0000 
     52 CA          6.8154   10.2031    9.8386 C.3       6 GLY6        0.0000 
     53 CA          7.3336   11.5400    6.8064 C.3       6 GLY6        0.0000 
     54 CA          7.2760   10.3978    7.7770 C.3       6 GLY6        0.0000 
     55 CA          7.2185    9.2557    8.7477 C.3       6 GLY6        0.0000 
     56 CA          6.9924   12.1222   14.4251 C.3       6 GLY6        0.0000 
     57 CZ          7.4530   12.3169   12.3635 C.ar      5 PHE5        0.0000 
     58 CA          7.3955   11.1748   13.3342 C.3       6 GLY6        0.0000 
     59 CZ          7.9712   13.6537    9.3313 C.ar      5 PHE5        0.0000 
     60 CZ          7.9137   12.5116   10.3020 C.ar      5 PHE5        0.0000 
     61 DU          7.8561   11.3695   11.2727 H         7 CUB7        0.0000 
     62 CA          7.7985   10.2274   12.2433 C.3       6 GLY6        0.0000 
     63 CA          7.7409    9.0852   13.2140 C.3       6 GLY6        0.0000 
     64 CZ          8.3743   12.7063    8.2405 C.ar      5 PHE5        0.0000 
     65 CZ          8.3167   11.5642    9.2111 C.ar      5 PHE5        0.0000 
     66 CA          8.2591   10.4221   10.1818 C.3       6 GLY6        0.0000 
     67 CA          8.2016    9.2799   11.1525 C.3       6 GLY6        0.0000 
     68 N           8.7773   11.7589    7.1496 N.2       2 ALA2        0.0000 
     69 N           8.7197   10.6168    8.1203 N.2       2 ALA2        0.0000 
     70 CZ          8.8967   12.5358   12.7068 C.ar      5 PHE5        0.0000 
     71 CA          8.8392   11.3937   13.6774 C.3       6 GLY6        0.0000 
     72 OG          8.7816   10.2516   14.6481 O.2       1 SER1        0.0000 
     73 DU          9.2998   11.5884   11.6159 H         7 CUB7        0.0000 
     74 N           9.2422   10.4463   12.5866 N.2       2 ALA2        0.0000 
     75 CZ          9.7604   11.7832    9.5544 C.ar      5 PHE5        0.0000 
     76 OG          9.7028   10.6410   10.5251 O.2       1 SER1        0.0000 
     77 CA          9.6452    9.4989   11.4957 C.3       6 GLY6        0.0000 
     78 N          10.1634   10.8357    8.4635 N.2       2 ALA2        0.0000 
     79 CZ         10.3404   12.7548   13.0500 C.ar      5 PHE5        0.0000 
     80 OG         10.2828   11.6127   14.0207 O.2       1 SER1        0.0000 
     81 CZ         10.7435   11.8074   11.9592 C.ar      5 PHE5        0.0000 
     82 OG         10.6859   10.6653   12.9298 O.2       1 SER1        0.0000 
     83 OG         11.1465   10.8600   10.8683 O.2       1 SER1        0.0000 
     84 OG         11.0889    9.7178   11.8390 O.2       1 SER1        0.0000 
@<TRIPOS>BOND
@<TRIPOS>SUBSTRUCTURE
     1 SER1       72 GROUP   
     2 ALA2        1 GROUP   
     3 ASP3        5 GROUP   
     4 LYS4       12 GROUP   
     5 PHE5        2 GROUP   
     6 GLY6        7 GROUP   
     7 CUB7        3 GROUP   
@<TRIPOS>SET

