#    Name: 2onf_COA_1_INTS_M
#    Modification time : Tue Mar 25 23:01:47 2014

@<TRIPOS>MOLECULE
2onf_COA_1_INTS_M
  101     0    12     0     0
SMALL
NO_CHARGES


@<TRIPOS>ATOM
      1 CA          0.1445    1.5410    7.3075 C.3       4 GLC5        0.0000 
      2 CA         -0.4120    2.2880    5.5840 C.3      12 GLL5        0.0000 
      3 CA          0.7010    0.7940    9.0310 C.3       8 GLP5        0.0000 
      4 CA          1.7465    2.5650    5.0615 C.3       4 GLC5        0.0000 
      5 CA          3.9050    2.8420    4.5390 C.3       8 GLP5        0.0000 
      6 CA          2.0640    3.6865    4.9085 C.3       4 GLC5        0.0000 
      7 CA          0.2230    4.5310    5.2780 C.3      12 GLL5        0.0000 
      8 CA          0.2340    6.0050    8.1635 C.3       4 GLC5        0.0000 
      9 CA         -0.4620    4.8790    6.4390 C.3      12 GLL5        0.0000 
     10 CA          0.9300    7.1310    9.8880 C.3       8 GLP5        0.0000 
     11 CA         -0.4745    4.4715    9.0450 C.3       4 GLC5        0.0000 
     12 CA         -1.1060    3.8730    7.1770 C.3      12 GLL5        0.0000 
     13 CA          0.1570    5.0700   10.9130 C.3       8 GLP5        0.0000 
     14 CA         -0.2025    2.3335    8.1040 C.3       4 GLC5        0.0000 
     15 N          -0.3105    7.5725    7.3240 N.am      2 SEC2        0.0000 
     16 N          -0.3210    6.2290    6.6240 N.am     10 SEL2        0.0000 
     17 N          -0.3000    8.9160    8.0240 N.am      6 SEP2        0.0000 
     18 CA          2.8860    5.8720    5.1945 C.3       4 GLC5        0.0000 
     19 CA          1.5120    5.7600    3.5560 C.3      12 GLL5        0.0000 
     20 CA          4.2600    5.9840    6.8330 C.3       8 GLP5        0.0000 
     21 CA          2.7085    4.3010    4.0475 C.3       4 GLC5        0.0000 
     22 NZ          3.8010    3.2335   -0.3900 N.4       3 LYC4        0.0000 
     23 NZ          3.4130    4.6710   -1.1790 N.4      11 LYL4        0.0000 
     24 NZ          2.9760    1.7110    0.9170 N.4       7 LYP4        0.0000 
     25 N           3.8010    3.2335   -0.3900 N.am      2 SEC2        0.0000 
     26 N           3.4130    4.6710   -1.1790 N.am     10 SEL2        0.0000 
     27 N           4.1890    1.7960    0.3990 N.am      6 SEP2        0.0000 
     28 N           2.7355    3.6405   -0.3130 N.am      2 SEC2        0.0000 
     29 N           2.0580    2.6100    0.5530 N.am      6 SEP2        0.0000 
     30 NZ          2.1285    8.2760   -1.4425 N.4       3 LYC4        0.0000 
     31 NZ          2.4110    6.9860   -1.5890 N.4      11 LYL4        0.0000 
     32 NZ          1.8460    9.5660   -1.2960 N.4       7 LYP4        0.0000 
     33 N           2.1285    8.2760   -1.4425 N.am      2 SEC2        0.0000 
     34 N           2.4110    6.9860   -1.5890 N.am     10 SEL2        0.0000 
     35 N           1.8460    9.5660   -1.2960 N.am      6 SEP2        0.0000 
     36 NZ          5.5995    6.8300   -1.1085 N.4       3 LYC4        0.0000 
     37 NZ          4.5100    6.6390   -0.2570 N.4      11 LYL4        0.0000 
     38 NZ          6.6890    7.0210   -1.9600 N.4       7 LYP4        0.0000 
     39 N           5.5995    6.8300   -1.1085 N.am      2 SEC2        0.0000 
     40 N           4.5100    6.6390   -0.2570 N.am     10 SEL2        0.0000 
     41 N           6.6890    7.0210   -1.9600 N.am      6 SEP2        0.0000 
     42 N           4.9000    7.7895    0.1485 N.am      2 SEC2        0.0000 
     43 N           5.2900    8.9400    0.5540 N.am      6 SEP2        0.0000 
     44 CA          4.7080    7.4520    2.3825 C.3       4 GLC5        0.0000 
     45 CA          2.9300    7.2840    2.5990 C.3      12 GLL5        0.0000 
     46 CA          6.4860    7.6200    2.1660 C.3       8 GLP5        0.0000 
     47 CA          4.5625    8.8335    2.2670 C.3       4 GLC5        0.0000 
     48 CA          2.9690    8.7890    2.9230 C.3      12 GLL5        0.0000 
     49 CA          6.1560    8.8780    1.6110 C.3       8 GLP5        0.0000 
     50 NZ          1.3045    9.8355    0.0085 N.4       3 LYC4        0.0000 
     51 NZ          0.7630   10.1050    1.3130 N.4      11 LYL4        0.0000 
     52 N           1.3045    9.8355    0.0085 N.am      2 SEC2        0.0000 
     53 N           0.7630   10.1050    1.3130 N.am     10 SEL2        0.0000 
     54 N           4.5415   13.9005    2.9225 N.am      2 SEC2        0.0000 
     55 N           3.0440   13.8110    3.2080 N.am     10 SEL2        0.0000 
     56 N           6.0390   13.9900    2.6370 N.am      6 SEP2        0.0000 
     57 CA          6.1415   12.2395    4.8700 C.3       4 GLC5        0.0000 
     58 CA          5.4620   10.4640    5.8940 C.3      12 GLL5        0.0000 
     59 CA          6.8210   14.0150    3.8460 C.3       8 GLP5        0.0000 
     60 CA          5.4690    8.5135    6.2770 C.3       4 GLC5        0.0000 
     61 CA          5.4760    6.5630    6.6600 C.3       8 GLP5        0.0000 
     62 CA          6.5205   10.2025    4.5310 C.3       4 GLC5        0.0000 
     63 CA          7.5790    9.9410    3.1680 C.3       8 GLP5        0.0000 
     64 CA          4.3295    9.2600    9.7935 C.3       4 GLC5        0.0000 
     65 CA          4.1710   10.0070    7.9790 C.3      12 GLL5        0.0000 
     66 CA          4.4880    8.5130   11.6080 C.3       8 GLP5        0.0000 
     67 CA          4.8235    8.2850    7.3195 C.3       4 GLC5        0.0000 
     68 CA          5.8120   13.2140    5.6000 C.3       4 GLC5        0.0000 
     69 CA          4.8030   12.4130    7.3540 C.3      12 GLL5        0.0000 
     70 CA          5.5745   14.2775    7.5740 C.3       4 GLC5        0.0000 
     71 CA          6.3460   16.1420    7.7940 C.3       8 GLP5        0.0000 
     72 CA          7.3060   14.1885   11.0355 C.3       4 GLC5        0.0000 
     73 CA          7.2300   12.4610   10.3080 C.3      12 GLL5        0.0000 
     74 CA          7.3820   15.9160   11.7630 C.3       8 GLP5        0.0000 
     75 CA          9.1425   13.3875    9.7030 C.3       4 GLC5        0.0000 
     76 CA         11.0550   14.3140    9.0980 C.3       8 GLP5        0.0000 
     77 CA          5.9515    9.7635   11.2035 C.3       4 GLC5        0.0000 
     78 CA          7.4150   11.0140   10.7990 C.3      12 GLL5        0.0000 
     79 O          10.9535   10.8645   10.3685 O.2       1 ALC1        0.0000 
     80 O           9.7140   10.7970   11.5380 O.2       9 ALL1        0.0000 
     81 O          12.1930   10.9320    9.1990 O.2       5 ALP1        0.0000 
     82 CA         11.6055    9.5645   13.8435 C.3       4 GLC5        0.0000 
     83 CA         10.7900   10.8380   12.4960 C.3      12 GLL5        0.0000 
     84 CA         12.4210    8.2910   15.1910 C.3       8 GLP5        0.0000 
     85 CA         10.5420    8.9395   11.8345 C.3       4 GLC5        0.0000 
     86 CA         10.2940    7.0410   11.1730 C.3       8 GLP5        0.0000 
     87 CA         10.5195   13.8785   12.9575 C.3       4 GLC5        0.0000 
     88 CA         11.3470   12.2440   12.6680 C.3      12 GLL5        0.0000 
     89 CA          9.6920   15.5130   13.2470 C.3       8 GLP5        0.0000 
     90 CA         11.7650   13.3835   11.2600 C.3       4 GLC5        0.0000 
     91 CA         12.1830   14.5230    9.8520 C.3       8 GLP5        0.0000 
     92 CA         12.6450   12.2580   15.6525 C.3       4 GLC5        0.0000 
     93 CA         12.9100   12.1890   13.6390 C.3      12 GLL5        0.0000 
     94 CA         12.3800   12.3270   17.6660 C.3       8 GLP5        0.0000 
     95 CA         12.6530   13.5340   14.9545 C.3       4 GLC5        0.0000 
     96 CA         12.3960   14.8790   16.2700 C.3       8 GLP5        0.0000 
     97 CA         14.8380   12.3900   14.6395 C.3       4 GLC5        0.0000 
     98 CA         16.7660   12.5910   15.6400 C.3       8 GLP5        0.0000 
     99 CA         12.6655   10.2400   14.4150 C.3       4 GLC5        0.0000 
    100 CA          3.7750    5.6292    2.3990 C.3       4 GLC5        0.0000 
    101 CA          5.1460    4.1730    2.7070 C.3       8 GLP5        0.0000 
@<TRIPOS>BOND
@<TRIPOS>SUBSTRUCTURE
     1 ALC1       79 GROUP        1 X    ALC  0     ROOT ALC X 1
     2 SEC2       15 GROUP        1 X    SEC  0     **** SEC X 2
     3 LYC4       22 GROUP        1 X    LYC  0     **** LYC X 4
     4 GLC5        1 GROUP        1 X    GLC  0     **** GLC X 6
     5 ALP1       81 GROUP        1 Y    ALP  0     ROOT ALP Y 8
     6 SEP2       17 GROUP        1 Y    SEP  0     **** SEP Y 9
     7 LYP4       24 GROUP        1 Y    LYP  0     **** LYP Y 11
     8 GLP5        3 GROUP        1 Y    GLP  0     **** GLP Y 13
     9 ALL1       80 GROUP        1 Z    ALL  0     ROOT ALL Z 15
    10 SEL2       16 GROUP        1 Z    SEL  0     **** SEL Z 16
    11 LYL4       23 GROUP        1 Z    LYL  0     **** LYL Z 18
    12 GLL5        2 GROUP        1 Z    GLL  0     **** GLL Z 20
@<TRIPOS>SET

