#    Name: 2onf_COA_1_ligand
#    Modification time : Tue Mar 25 23:01:47 2014

@<TRIPOS>MOLECULE
2onf_COA_1_ligand
   79    81     1     0     0
SMALL
NO_CHARGES


@<TRIPOS>ATOM
      1 N1A        -1.0930    2.6010    6.7290 N.ar      1 COA140      0.0000 
      2 C2A        -0.4120    2.2880    5.5840 C.ar      1 COA140      0.0000 
      3 N3A         0.2470    3.2100    4.8290 N.ar      1 COA140      0.0000 
      4 C4A         0.2230    4.5310    5.2780 C.ar      1 COA140      0.0000 
      5 C5A        -0.4620    4.8790    6.4390 C.ar      1 COA140      0.0000 
      6 C6A        -1.1060    3.8730    7.1770 C.ar      1 COA140      0.0000 
      7 N6A        -1.9490    4.1390    8.1640 N.pl3     1 COA140      0.0000 
      8 N7A        -0.3210    6.2290    6.6240 N.2       1 COA140      0.0000 
      9 C8A         0.3930    6.7390    5.5910 C.2       1 COA140      0.0000 
     10 N9A         0.7460    5.6910    4.7600 N.pl3     1 COA140      0.0000 
     11 C1B         1.5120    5.7600    3.5560 C.3       1 COA140      0.0000 
     12 C2B         0.7240    6.4030    2.4300 C.3       1 COA140      0.0000 
     13 O2B        -0.1500    5.5870    1.6740 O.3       1 COA140      0.0000 
     14 C3B         1.8780    6.8870    1.5830 C.3       1 COA140      0.0000 
     15 O3B         2.3380    5.8480    0.7170 O.3       1 COA140      0.0000 
     16 P3B         3.1830    6.0470   -0.6250 P.3       1 COA140      0.0000 
     17 O7A         3.4130    4.6710   -1.1790 O.co2     1 COA140      0.0000 
     18 O8A         2.4110    6.9860   -1.5890 O.co2     1 COA140      0.0000 
     19 O9A         4.5100    6.6390   -0.2570 O.co2     1 COA140      0.0000 
     20 C4B         2.9300    7.2840    2.5990 C.3       1 COA140      0.0000 
     21 O4B         2.6130    6.6120    3.8060 O.3       1 COA140      0.0000 
     22 C5B         2.9690    8.7890    2.9230 C.3       1 COA140      0.0000 
     23 O5B         1.7220    9.1770    3.4550 O.3       1 COA140      0.0000 
     24 P1A         0.8950   10.4160    2.7750 P.3       1 COA140      0.0000 
     25 O1A        -0.2530   10.6880    3.6880 O.co2     1 COA140      0.0000 
     26 O2A         0.7630   10.1050    1.3130 O.co2     1 COA140      0.0000 
     27 O3A         1.9580   11.6540    2.8050 O.3       1 COA140      0.0000 
     28 P2A         2.3140   12.6970    3.9690 P.3       1 COA140      0.0000 
     29 O4A         1.1160   13.0700    4.8040 O.co2     1 COA140      0.0000 
     30 O5A         3.0440   13.8110    3.2080 O.co2     1 COA140      0.0000 
     31 O6A         3.4330   11.8970    4.8430 O.3       1 COA140      0.0000 
     32 CBP         4.4170   11.0090    6.8640 C.3       1 COA140      0.0000 
     33 CCP         3.1330   11.1800    6.0350 C.3       1 COA140      0.0000 
     34 CDP         5.4620   10.4640    5.8940 C.3       1 COA140      0.0000 
     35 CEP         4.1710   10.0070    7.9790 C.3       1 COA140      0.0000 
     36 CAP         4.8030   12.4130    7.3540 C.3       1 COA140      0.0000 
     37 OAP         3.7640   13.0070    8.1180 O.3       1 COA140      0.0000 
     38 C9P         6.0730   12.4030    8.1660 C.2       1 COA140      0.0000 
     39 O9P         7.2700   12.2100    7.5330 O.2       1 COA140      0.0000 
     40 N8P         6.0480   12.5830    9.4930 N.am      1 COA140      0.0000 
     41 C7P         7.2300   12.4610   10.3080 C.3       1 COA140      0.0000 
     42 C6P         7.4150   11.0140   10.7990 C.3       1 COA140      0.0000 
     43 C5P         8.4550   10.9750   11.8970 C.2       1 COA140      0.0000 
     44 O5P         8.1140   11.0890   13.0550 O.2       1 COA140      0.0000 
     45 N4P         9.7140   10.7970   11.5380 N.am      1 COA140      0.0000 
     46 C3P        10.7900   10.8380   12.4960 C.3       1 COA140      0.0000 
     47 C2P        11.3470   12.2440   12.6680 C.3       1 COA140      0.0000 
     48 S1P        12.9100   12.1890   13.6390 S.3       1 COA140      0.0000 
     49 H          -0.3984    1.2753    5.2711 H         1 COA140      0.0000 
     50 H          -1.9645    5.0855    8.4863 H         1 COA140      0.0000 
     51 H          -2.4934    3.3692    8.4972 H         1 COA140      0.0000 
     52 H           0.6204    7.6550    5.4477 H         1 COA140      0.0000 
     53 H           1.8395    4.7986    3.2369 H         1 COA140      0.0000 
     54 H           0.2624    7.2951    2.8314 H         1 COA140      0.0000 
     55 H           1.5652    7.7625    1.0632 H         1 COA140      0.0000 
     56 H           3.8986    6.9844    2.2459 H         1 COA140      0.0000 
     57 H           3.2094    9.3147    1.9938 H         1 COA140      0.0000 
     58 H           3.7920    8.9481    3.6266 H         1 COA140      0.0000 
     59 H           2.7412   10.1798    5.8263 H         1 COA140      0.0000 
     60 H           2.4060   11.7069    6.6605 H         1 COA140      0.0000 
     61 H           4.9977   13.0240    6.4543 H         1 COA140      0.0000 
     62 H           5.1625   12.8212    9.9948 H         1 COA140      0.0000 
     63 H           7.1763   13.1076   11.1946 H         1 COA140      0.0000 
     64 H           8.1344   12.7399    9.7500 H         1 COA140      0.0000 
     65 H           7.7354   10.3991    9.9648 H         1 COA140      0.0000 
     66 H           6.4660   10.6478   11.1759 H         1 COA140      0.0000 
     67 H           9.9902   10.6185   10.5457 H         1 COA140      0.0000 
     68 H          11.6215   10.1794   12.1884 H         1 COA140      0.0000 
     69 H          10.4542   10.4830   13.4865 H         1 COA140      0.0000 
     70 H          10.7451   12.8809   13.2655 H         1 COA140      0.0000 
     71 H          11.6705   12.6978   11.7655 H         1 COA140      0.0000 
     72 H           6.3450   10.3210    6.3411 H         1 COA140      0.0000 
     73 H           5.1849    9.5856    5.5046 H         1 COA140      0.0000 
     74 H           5.6189   11.0876    5.1282 H         1 COA140      0.0000 
     75 H           4.9864    9.8696    8.5414 H         1 COA140      0.0000 
     76 H           3.4392   10.3054    8.5917 H         1 COA140      0.0000 
     77 H           3.9070    9.1111    7.6217 H         1 COA140      0.0000 
     78 H           0.4491    5.0277    1.1011 H         1 COA140      0.0000 
     79 H           3.6676   13.9314    7.7490 H         1 COA140      0.0000 
@<TRIPOS>BOND
     1    2    1 ar   
     2    6    1 ar   
     3    3    2 ar   
     4   49    2 1    
     5    4    3 ar   
     6    5    4 ar   
     7   10    4 1    
     8    6    5 ar   
     9    8    5 1    
    10    7    6 1    
    11   50    7 1    
    12   51    7 1    
    13    9    8 2    
    14   10    9 1    
    15   52    9 1    
    16   11   10 1    
    17   12   11 1    
    18   21   11 1    
    19   53   11 1    
    20   13   12 1    
    21   14   12 1    
    22   54   12 1    
    23   78   13 1    
    24   15   14 1    
    25   20   14 1    
    26   55   14 1    
    27   16   15 1    
    28   17   16 ar   
    29   18   16 ar   
    30   19   16 ar   
    31   21   20 1    
    32   22   20 1    
    33   56   20 1    
    34   23   22 1    
    35   57   22 1    
    36   58   22 1    
    37   24   23 1    
    38   25   24 ar   
    39   26   24 ar   
    40   27   24 1    
    41   28   27 1    
    42   29   28 ar   
    43   30   28 ar   
    44   31   28 1    
    45   33   31 1    
    46   33   32 1    
    47   34   32 1    
    48   35   32 1    
    49   36   32 1    
    50   59   33 1    
    51   60   33 1    
    52   72   34 1    
    53   73   34 1    
    54   74   34 1    
    55   75   35 1    
    56   76   35 1    
    57   77   35 1    
    58   37   36 1    
    59   38   36 1    
    60   61   36 1    
    61   79   37 1    
    62   39   38 2    
    63   40   38 am   
    64   41   40 1    
    65   62   40 1    
    66   42   41 1    
    67   63   41 1    
    68   64   41 1    
    69   43   42 1    
    70   65   42 1    
    71   66   42 1    
    72   44   43 2    
    73   45   43 am   
    74   46   45 1    
    75   67   45 1    
    76   47   46 1    
    77   68   46 1    
    78   69   46 1    
    79   48   47 1    
    80   70   47 1    
    81   71   47 1    
@<TRIPOS>SUBSTRUCTURE
     1 COA140      1 GROUP   
@<TRIPOS>SET

