#    Name: 3v4f_GNP_1_INTS_M
#    Modification time : Mon Mar 24 23:57:36 2014

@<TRIPOS>MOLECULE
3v4f_GNP_1_INTS_M
   74     0    15     0     0
SMALL
NO_CHARGES


@<TRIPOS>ATOM
      1 N          -7.7140   63.8880  -66.0125 N.am      2 SEC2        0.0000 
      2 N          -8.9740   64.0790  -65.8530 N.am     12 SEL2        0.0000 
      3 N          -6.4540   63.6970  -66.1720 N.am      7 SEP2        0.0000 
      4 Zn        -11.1675   66.3900  -67.0255 Zn        4 ZIC7        0.0000 
      5 Zn        -10.8210   65.5860  -66.5180 Zn       14 ZIL7        0.0000 
      6 Zn        -11.5140   67.1940  -67.5330 Zn        9 ZIP7        0.0000 
      7 N         -10.9315   66.1010  -65.1530 N.am      2 SEC2        0.0000 
      8 N         -10.8210   65.5860  -66.5180 N.am     12 SEL2        0.0000 
      9 N         -11.0420   66.6160  -63.7880 N.am      7 SEP2        0.0000 
     10 NZ        -11.1745   62.9495  -68.6120 N.4       3 LYC4        0.0000 
     11 NZ        -10.6630   63.2450  -67.4240 N.4      13 LYL4        0.0000 
     12 NZ        -11.6860   62.6540  -69.8000 N.4       8 LYP4        0.0000 
     13 N         -11.1745   62.9495  -68.6120 N.am      2 SEC2        0.0000 
     14 N         -10.6630   63.2450  -67.4240 N.am     12 SEL2        0.0000 
     15 N         -11.6860   62.6540  -69.8000 N.am      7 SEP2        0.0000 
     16 N         -11.5745   62.3420  -66.8620 N.am      2 SEC2        0.0000 
     17 N         -12.4860   61.4390  -66.3000 N.am      7 SEP2        0.0000 
     18 NZ        -10.7965   63.6570  -70.2015 N.4       3 LYC4        0.0000 
     19 NZ         -9.9070   64.6600  -70.6030 N.4      13 LYL4        0.0000 
     20 N          -9.1970   64.9810  -71.8880 N.am      2 SEC2        0.0000 
     21 N          -9.9070   64.6600  -70.6030 N.am     12 SEL2        0.0000 
     22 N          -8.4870   65.3020  -73.1730 N.am      7 SEP2        0.0000 
     23 N         -10.5320   65.4190  -71.7055 N.am      2 SEC2        0.0000 
     24 N         -11.1570   66.1780  -72.8080 N.am      7 SEP2        0.0000 
     25 N         -10.7965   63.6570  -70.2015 N.am      2 SEC2        0.0000 
     26 Zn        -11.0645   66.9365  -68.4405 Zn        4 ZIC7        0.0000 
     27 Zn        -10.6150   66.6790  -69.3480 Zn       14 ZIL7        0.0000 
     28 N         -11.4370   67.4835  -70.2625 N.am      2 SEC2        0.0000 
     29 N         -10.6150   66.6790  -69.3480 N.am     12 SEL2        0.0000 
     30 N         -12.2590   68.2880  -71.1770 N.am      7 SEP2        0.0000 
     31 N          -8.3985   65.8845  -71.6790 N.am      2 SEC2        0.0000 
     32 N          -8.3100   66.4670  -70.1850 N.am     12 SEL2        0.0000 
     33 N          -9.8630   69.5960  -71.6625 N.am      2 SEC2        0.0000 
     34 N          -8.9140   68.7040  -71.1210 N.am     12 SEL2        0.0000 
     35 N         -10.8120   70.4880  -72.2040 N.am      7 SEP2        0.0000 
     36 CA         -5.8475   65.4085  -70.1875 C.3       5 GLC5        0.0000 
     37 CA         -5.4980   67.3570  -70.4360 C.3      15 GLL5        0.0000 
     38 CA         -6.1970   63.4600  -69.9390 C.3      10 GLP5        0.0000 
     39 CA         -4.8785   67.2860  -68.5670 C.3       5 GLC5        0.0000 
     40 CA         -4.2590   67.2150  -66.6980 C.3      10 GLP5        0.0000 
     41 N          -3.8125   66.4320  -73.1675 N.am      2 SEC2        0.0000 
     42 N          -4.1300   67.8070  -72.3700 N.am     12 SEL2        0.0000 
     43 N          -3.4950   65.0570  -73.9650 N.am      7 SEP2        0.0000 
     44 O          -4.7560   72.3505  -72.1375 O.2       1 ALC1        0.0000 
     45 O          -3.9180   71.3420  -72.3570 O.2      11 ALL1        0.0000 
     46 O          -5.5940   73.3590  -71.9180 O.2       6 ALP1        0.0000 
     47 CA         -4.2345   67.2035  -74.0395 C.3       5 GLC5        0.0000 
     48 CA         -4.0140   69.0550  -73.0180 C.3      15 GLL5        0.0000 
     49 CA         -4.4550   65.3520  -75.0610 C.3      10 GLP5        0.0000 
     50 N          -7.4435   67.8285  -76.3430 N.am      2 SEC2        0.0000 
     51 N          -6.5840   68.8720  -75.5690 N.am     12 SEL2        0.0000 
     52 N          -8.3030   66.7850  -77.1170 N.am      7 SEP2        0.0000 
     53 CA         -5.1210   67.3840  -76.9255 C.3       5 GLC5        0.0000 
     54 CA         -5.4390   69.0970  -76.3330 C.3      15 GLL5        0.0000 
     55 CA         -4.8030   65.6710  -77.5180 C.3      10 GLP5        0.0000 
     56 CA         -7.1935   70.1775  -76.7480 C.3       5 GLC5        0.0000 
     57 CA         -8.9480   71.2580  -77.1630 C.3      10 GLP5        0.0000 
     58 N          -7.2645   69.9250  -79.0265 N.am      2 SEC2        0.0000 
     59 N          -6.1690   69.1430  -78.6010 N.am     12 SEL2        0.0000 
     60 N          -8.3600   70.7070  -79.4520 N.am      7 SEP2        0.0000 
     61 O          -3.7910   69.5010  -79.4785 O.2       1 ALC1        0.0000 
     62 O          -3.9640   69.4400  -78.1070 O.2      11 ALL1        0.0000 
     63 O          -3.6180   69.5620  -80.8500 O.2       6 ALP1        0.0000 
     64 O          -1.6310   70.0295  -79.1610 O.2       1 ALC1        0.0000 
     65 O          -1.7050   69.7500  -77.7550 O.2      11 ALL1        0.0000 
     66 O          -1.5570   70.3090  -80.5670 O.2       6 ALP1        0.0000 
     67 CA         -4.3910   67.2660  -75.2960 C.3       5 GLC5        0.0000 
     68 CA         -4.3270   69.1800  -75.5310 C.3      15 GLL5        0.0000 
     69 CA         -3.8120   68.6250  -68.8470 C.3       5 GLC5        0.0000 
     70 CA         -4.2190   67.9900  -70.9330 C.3      15 GLL5        0.0000 
     71 CA         -3.4680   68.5070  -66.8720 C.3      10 GLP5        0.0000 
     72 CA         -4.1935   71.2155  -73.8547 C.3       5 GLC5        0.0000 
     73 CA         -4.5300   70.1050  -72.0410 C.3      15 GLL5        0.0000 
     74 CA         -4.1150   72.8510  -75.1800 C.3      10 GLP5        0.0000 
@<TRIPOS>BOND
@<TRIPOS>SUBSTRUCTURE
     1 ALC1       44 GROUP        1 X    ALC  0     ROOT ALC X 1
     2 SEC2        1 GROUP        1 X    SEC  0     **** SEC X 2
     3 LYC4       10 GROUP        1 X    LYC  0     **** LYC X 4
     4 ZIC7        4 GROUP        1 X    ZIC  0     **** ZIC X 5
     5 GLC5       36 GROUP        1 X    GLC  0     **** GLC X 6
     6 ALP1       46 GROUP        1 Y    ALP  0     ROOT ALP Y 8
     7 SEP2        3 GROUP        1 Y    SEP  0     **** SEP Y 9
     8 LYP4       12 GROUP        1 Y    LYP  0     **** LYP Y 11
     9 ZIP7        6 GROUP        1 Y    ZIP  0     **** ZIP Y 12
    10 GLP5       38 GROUP        1 Y    GLP  0     **** GLP Y 13
    11 ALL1       45 GROUP        1 Z    ALL  0     ROOT ALL Z 15
    12 SEL2        2 GROUP        1 Z    SEL  0     **** SEL Z 16
    13 LYL4       11 GROUP        1 Z    LYL  0     **** LYL Z 18
    14 ZIL7        5 GROUP        1 Z    ZIL  0     **** ZIL Z 19
    15 GLL5       37 GROUP        1 Z    GLL  0     **** GLL Z 20
@<TRIPOS>SET

