#    Name: 3v4f_GNP_1_ligand
#    Modification time : Mon Mar 24 23:57:36 2014

@<TRIPOS>MOLECULE
3v4f_GNP_1_ligand
   44    46     1     0     0
SMALL
NO_CHARGES


@<TRIPOS>ATOM
      1 PG         -9.9220   64.4810  -66.9580 P.3       1 GNP190      0.0000 
      2 O1G        -8.9740   64.0790  -65.8530 O.co2     1 GNP190      0.0000 
      3 O2G       -10.8210   65.5860  -66.5180 O.co2     1 GNP190      0.0000 
      4 O3G       -10.6630   63.2450  -67.4240 O.co2     1 GNP190      0.0000 
      5 N3B        -9.0300   65.0140  -68.2090 N.4       1 GNP190      0.0000 
      6 PB         -9.5430   65.6960  -69.6050 P.3       1 GNP190      0.0000 
      7 O1B        -9.9070   64.6600  -70.6030 O.co2     1 GNP190      0.0000 
      8 O2B       -10.6150   66.6790  -69.3480 O.co2     1 GNP190      0.0000 
      9 O3A        -8.3100   66.4670  -70.1850 O.3       1 GNP190      0.0000 
     10 PA         -7.9900   68.0260  -70.2070 P.3       1 GNP190      0.0000 
     11 O1A        -8.9140   68.7040  -71.1210 O.co2     1 GNP190      0.0000 
     12 O2A        -7.8340   68.4860  -68.8150 O.co2     1 GNP190      0.0000 
     13 O5'        -6.6000   68.0950  -70.9500 O.3       1 GNP190      0.0000 
     14 C5'        -5.4980   67.3570  -70.4360 C.3       1 GNP190      0.0000 
     15 C4'        -4.2190   67.9900  -70.9330 C.3       1 GNP190      0.0000 
     16 O4'        -4.1300   67.8070  -72.3700 O.3       1 GNP190      0.0000 
     17 C3'        -4.0930   69.4960  -70.7110 C.3       1 GNP190      0.0000 
     18 O3'        -2.7110   69.8050  -70.4330 O.3       1 GNP190      0.0000 
     19 C2'        -4.5300   70.1050  -72.0410 C.3       1 GNP190      0.0000 
     20 O2'        -3.9180   71.3420  -72.3570 O.3       1 GNP190      0.0000 
     21 C1'        -4.0140   69.0550  -73.0180 C.3       1 GNP190      0.0000 
     22 N9         -4.7850   69.0150  -74.2530 N.pl3     1 GNP190      0.0000 
     23 C8         -6.1530   68.8230  -74.3400 C.2       1 GNP190      0.0000 
     24 N7         -6.5840   68.8720  -75.5690 N.2       1 GNP190      0.0000 
     25 C5         -5.4390   69.0970  -76.3330 C.2       1 GNP190      0.0000 
     26 C6         -5.2890   69.2180  -77.7260 C.2       1 GNP190      0.0000 
     27 O6         -6.1690   69.1430  -78.6010 O.2       1 GNP190      0.0000 
     28 N1         -3.9640   69.4400  -78.1070 N.am      1 GNP190      0.0000 
     29 C2         -2.9190   69.5290  -77.2180 C.2       1 GNP190      0.0000 
     30 N2         -1.7050   69.7500  -77.7550 N.pl3     1 GNP190      0.0000 
     31 N3         -3.0460   69.3990  -75.9010 N.2       1 GNP190      0.0000 
     32 C4         -4.3270   69.1800  -75.5310 C.2       1 GNP190      0.0000 
     33 H          -5.5157   66.3155  -70.7703 H         1 GNP190      0.0000 
     34 H          -5.4796   67.3640  -69.3422 H         1 GNP190      0.0000 
     35 H          -3.3679   67.5075  -70.4682 H         1 GNP190      0.0000 
     36 H          -4.7541   69.7860  -69.9564 H         1 GNP190      0.0000 
     37 H          -5.5806   70.0960  -72.0940 H         1 GNP190      0.0000 
     38 H          -2.9790   69.2771  -73.2246 H         1 GNP190      0.0000 
     39 H          -6.7072   68.6681  -73.5294 H         1 GNP190      0.0000 
     40 H          -3.7623   69.5442  -79.1384 H         1 GNP190      0.0000 
     41 H          -0.9403   69.7915  -77.1119 H         1 GNP190      0.0000 
     42 H          -1.6758   69.8530  -78.7493 H         1 GNP190      0.0000 
     43 H          -2.4714   70.5263  -71.0829 H         1 GNP190      0.0000 
     44 H          -4.6126   72.0329  -72.1567 H         1 GNP190      0.0000 
@<TRIPOS>BOND
     1    2    1 ar   
     2    3    1 ar   
     3    4    1 ar   
     4    5    1 1    
     5    6    5 1    
     6    7    6 ar   
     7    8    6 ar   
     8    9    6 1    
     9   10    9 1    
    10   11   10 ar   
    11   12   10 ar   
    12   13   10 1    
    13   14   13 1    
    14   15   14 1    
    15   33   14 1    
    16   34   14 1    
    17   16   15 1    
    18   17   15 1    
    19   35   15 1    
    20   21   16 1    
    21   18   17 1    
    22   19   17 1    
    23   36   17 1    
    24   43   18 1    
    25   20   19 1    
    26   21   19 1    
    27   37   19 1    
    28   44   20 1    
    29   22   21 1    
    30   38   21 1    
    31   23   22 1    
    32   32   22 1    
    33   24   23 2    
    34   39   23 1    
    35   25   24 1    
    36   26   25 1    
    37   32   25 2    
    38   27   26 2    
    39   28   26 am   
    40   29   28 1    
    41   40   28 1    
    42   30   29 1    
    43   31   29 2    
    44   41   30 1    
    45   42   30 1    
    46   32   31 1    
@<TRIPOS>SUBSTRUCTURE
     1 GNP190      1 GROUP   
@<TRIPOS>SET

