#    Name: 1he4_NAP_1_INTS_M
#    Modification time : Tue Mar 25 05:24:56 2014

@<TRIPOS>MOLECULE
1he4_NAP_1_INTS_M
  121     0    12     0     0
SMALL
NO_CHARGES


@<TRIPOS>ATOM
      1 N          25.8785   -7.3390    8.2330 N.am      2 SEC2        0.0000 
      2 N          25.1410   -6.1300    7.8990 N.am     10 SEL2        0.0000 
      3 N          26.6160   -8.5480    8.5670 N.am      6 SEP2        0.0000 
      4 N          24.9305   -3.3070    5.0210 N.am      2 SEC2        0.0000 
      5 N          25.0530   -4.6090    5.7590 N.am     10 SEL2        0.0000 
      6 N          24.8080   -2.0050    4.2830 N.am      6 SEP2        0.0000 
      7 CA         25.4860   -5.0325   10.5230 C.3       4 GLC5        0.0000 
      8 CA         26.3800   -4.0830    9.3150 C.3      12 GLL5        0.0000 
      9 CA         24.5920   -5.9820   11.7310 C.3       8 GLP5        0.0000 
     10 CA         27.4765   -5.5575    8.0335 C.3       4 GLC5        0.0000 
     11 CA         28.5730   -7.0320    6.7520 C.3       8 GLP5        0.0000 
     12 CA         25.8750   -2.6170   11.4290 C.3       4 GLC5        0.0000 
     13 CA         27.0580   -2.7580    9.6840 C.3      12 GLL5        0.0000 
     14 CA         24.6920   -2.4760   13.1740 C.3       8 GLP5        0.0000 
     15 N          26.2730   -3.8135   11.6375 N.am      2 SEC2        0.0000 
     16 N          27.5180   -2.9560   11.0740 N.am     10 SEL2        0.0000 
     17 N          25.0280   -4.6710   12.2010 N.am      6 SEP2        0.0000 
     18 CA         27.4830   -1.9595    7.3445 C.3       4 GLC5        0.0000 
     19 CA         28.3800   -2.4690    8.9110 C.3      12 GLL5        0.0000 
     20 CA         26.5860   -1.4500    5.7780 C.3       8 GLP5        0.0000 
     21 N          28.5665    0.3920    8.0640 N.am      2 SEC2        0.0000 
     22 N          28.5320   -1.0580    8.8770 N.am     10 SEL2        0.0000 
     23 N          28.6010    1.8420    7.2510 N.am      6 SEP2        0.0000 
     24 O          29.6575   -0.4880    8.1830 O.2       1 ALC1        0.0000 
     25 O          28.5320   -1.0580    8.8770 O.2       9 ALL1        0.0000 
     26 O          30.7830    0.0820    7.4890 O.2       5 ALP1        0.0000 
     27 CA         27.8680   -0.9800   11.0905 C.3       4 GLC5        0.0000 
     28 CA         28.8890   -2.5900   11.1930 C.3      12 GLL5        0.0000 
     29 CA         26.8470    0.6300   10.9880 C.3       8 GLP5        0.0000 
     30 CA         28.0420   -2.0355   12.9770 C.3       4 GLC5        0.0000 
     31 CA         27.1950   -1.4810   14.7610 C.3       8 GLP5        0.0000 
     32 O          33.1205   -4.0085   16.7685 O.2       1 ALC1        0.0000 
     33 O          32.1970   -4.5930   15.8080 O.2       9 ALL1        0.0000 
     34 O          34.0440   -3.4240   17.7290 O.2       5 ALP1        0.0000 
     35 N          32.3360   -1.5940   16.4505 N.am      2 SEC2        0.0000 
     36 N          32.0560   -2.3290   15.1780 N.am     10 SEL2        0.0000 
     37 N          32.6160   -0.8590   17.7230 N.am      6 SEP2        0.0000 
     38 CA         33.5080   -1.5895   13.8250 C.3       4 GLC5        0.0000 
     39 CA         31.5440   -1.2980   14.3900 C.3      12 GLL5        0.0000 
     40 CA         35.4720   -1.8810   13.2600 C.3       8 GLP5        0.0000 
     41 CA         33.2595   -0.9895   15.7540 C.3       4 GLC5        0.0000 
     42 CA         34.9750   -0.6810   17.1180 C.3       8 GLP5        0.0000 
     43 CA         30.8505   -1.1020   16.1525 C.3       4 GLC5        0.0000 
     44 CA         30.1570   -0.9060   17.9150 C.3       8 GLP5        0.0000 
     45 CA         29.3695   -1.3895   14.5755 C.3       4 GLC5        0.0000 
     46 N          21.5570   -5.2275    4.5140 N.am      2 SEC2        0.0000 
     47 N          22.0670   -5.1700    5.8880 N.am     10 SEL2        0.0000 
     48 N          21.0470   -5.2850    3.1400 N.am      6 SEP2        0.0000 
     49 N          22.1395   -1.6685    5.5065 N.am      2 SEC2        0.0000 
     50 N          21.9650   -2.7000    6.4940 N.am     10 SEL2        0.0000 
     51 N          22.3140   -0.6370    4.5190 N.am      6 SEP2        0.0000 
     52 N          20.8770   -1.9775    5.9860 N.am      2 SEC2        0.0000 
     53 N          19.7890   -1.2550    5.4780 N.am      6 SEP2        0.0000 
     54 CA         20.3560   -1.4580    9.4860 C.3       4 GLC5        0.0000 
     55 CA         20.8240   -3.5990    9.1160 C.3      12 GLL5        0.0000 
     56 CA         19.8880    0.6830    9.8560 C.3       8 GLP5        0.0000 
     57 CA         19.2075   -3.9105    7.6665 C.3       4 GLC5        0.0000 
     58 CA         17.5910   -4.2220    6.2170 C.3       8 GLP5        0.0000 
     59 CA         22.7690   -5.8300   11.1870 C.3       4 GLC5        0.0000 
     60 CA         20.9460   -5.6780   10.6430 C.3      12 GLL5        0.0000 
     61 N          20.1655   -6.7045   12.8630 N.am      2 SEC2        0.0000 
     62 N          20.9470   -5.8320   12.0710 N.am     10 SEL2        0.0000 
     63 N          19.3840   -7.5770   13.6550 N.am      6 SEP2        0.0000 
     64 O          21.9310   -4.9220   12.3415 O.2       1 ALC1        0.0000 
     65 O          20.9470   -5.8320   12.0710 O.2       9 ALL1        0.0000 
     66 O          22.9150   -4.0120   12.6120 O.2       5 ALP1        0.0000 
     67 N          15.9995   -7.3430    4.0395 N.am      2 SEC2        0.0000 
     68 N          16.8680   -8.3670    4.6670 N.am     10 SEL2        0.0000 
     69 N          15.1310   -6.3190    3.4120 N.am      6 SEP2        0.0000 
     70 N          17.4035   -9.5105    4.0640 N.am      2 SEC2        0.0000 
     71 N          17.9390  -10.6540    3.4610 N.am      6 SEP2        0.0000 
     72 CA         14.6885   -7.7400    5.4935 C.3       4 GLC5        0.0000 
     73 CA         15.9680   -7.5150    7.0890 C.3      12 GLL5        0.0000 
     74 CA         13.4090   -7.9650    3.8980 C.3       8 GLP5        0.0000 
     75 CA         16.2015   -5.9685    6.1770 C.3       4 GLC5        0.0000 
     76 CA         16.4350   -4.4220    5.2650 C.3       8 GLP5        0.0000 
     77 CA         13.7150   -8.3525    8.7165 C.3       4 GLC5        0.0000 
     78 CA         15.5110   -7.0660    8.3740 C.3      12 GLL5        0.0000 
     79 CA         11.9190   -9.6390    9.0590 C.3       8 GLP5        0.0000 
     80 NZ         30.7465   -2.7000    6.2565 N.4       3 LYC4        0.0000 
     81 NZ         31.4440   -2.2420    7.2470 N.4      11 LYL4        0.0000 
     82 NZ         29.6920   -4.4250    5.1110 N.4       7 LYP4        0.0000 
     83 N          30.7465   -2.7000    6.2565 N.am      2 SEC2        0.0000 
     84 N          31.4440   -2.2420    7.2470 N.am     10 SEL2        0.0000 
     85 N          30.0490   -3.1580    5.2660 N.am      6 SEP2        0.0000 
     86 NZ         33.5730   -3.1300   10.7330 N.4       3 LYC4        0.0000 
     87 NZ         33.0350   -2.5920    9.1670 N.4      11 LYL4        0.0000 
     88 NZ         33.6940   -4.9000   12.0420 N.4       7 LYP4        0.0000 
     89 N          33.5730   -3.1300   10.7330 N.am      2 SEC2        0.0000 
     90 N          33.0350   -2.5920    9.1670 N.am     10 SEL2        0.0000 
     91 N          34.1110   -3.6680   12.2990 N.am      6 SEP2        0.0000 
     92 N          32.9560   -3.8580   10.0920 N.am      2 SEC2        0.0000 
     93 N          32.8770   -5.1240   11.0170 N.am      6 SEP2        0.0000 
     94 NZ         30.8500   -4.9205    7.1495 N.4       3 LYC4        0.0000 
     95 NZ         31.5560   -4.5250    8.3120 N.4      11 LYL4        0.0000 
     96 N          32.2165   -4.8245    9.6645 N.am      2 SEC2        0.0000 
     97 N          31.5560   -4.5250    8.3120 N.am     10 SEL2        0.0000 
     98 N          30.8500   -4.9205    7.1495 N.am      2 SEC2        0.0000 
     99 N          30.1440   -5.3160    5.9870 N.am      6 SEP2        0.0000 
    100 CA         26.6525   -2.4352    7.6387 C.3       4 GLC5        0.0000 
    101 CA         27.2830   -0.9918   10.1427 C.3       4 GLC5        0.0000 
    102 CA         33.1290   -3.5673   13.9365 C.3       4 GLC5        0.0000 
    103 CA         30.7800   -3.9230   13.9580 C.3      12 GLL5        0.0000 
    104 CA         35.0170   -3.3340   13.3990 C.3       8 GLP5        0.0000 
    105 CA         30.5480   -3.0962   16.1650 C.3       4 GLC5        0.0000 
    106 CA         31.7020   -3.6780   14.9900 C.3      12 GLL5        0.0000 
    107 CA         29.8550   -2.3920   17.8560 C.3       8 GLP5        0.0000 
    108 CA         28.8760   -2.4395   14.1560 C.3       4 GLC5        0.0000 
    109 CA         30.2280   -5.2663   15.5775 C.3       4 GLC5        0.0000 
    110 CA         29.2150   -6.7320   16.6810 C.3       8 GLP5        0.0000 
    111 CA         18.7948   -3.0932   10.2595 C.3       4 GLC5        0.0000 
    112 CA         20.1290   -4.4140   10.1860 C.3      12 GLL5        0.0000 
    113 CA         17.1130   -2.1800   10.8680 C.3       8 GLP5        0.0000 
    114 CA         17.7340   -5.8238    6.7317 C.3       4 GLC5        0.0000 
    115 CA         18.3640   -7.2350    7.7110 C.3      12 GLL5        0.0000 
    116 CA         15.3643   -7.5282   10.4008 C.3       4 GLC5        0.0000 
    117 CA         16.5060   -6.6890    9.3450 C.3      12 GLL5        0.0000 
    118 CA         14.7200   -8.1790   11.9420 C.3       8 GLP5        0.0000 
    119 CA         15.1572   -5.2488    9.0083 C.3       4 GLC5        0.0000 
    120 CA         14.3060   -3.6200    9.1570 C.3       8 GLP5        0.0000 
    121 CA         16.7998   -5.5498    7.5383 C.3       4 GLC5        0.0000 
@<TRIPOS>BOND
@<TRIPOS>SUBSTRUCTURE
     1 ALC1       24 GROUP        1 X    ALC  0     ROOT ALC X 1
     2 SEC2        1 GROUP        1 X    SEC  0     **** SEC X 2
     3 LYC4       80 GROUP        1 X    LYC  0     **** LYC X 4
     4 GLC5        7 GROUP        1 X    GLC  0     **** GLC X 6
     5 ALP1       26 GROUP        1 Y    ALP  0     ROOT ALP Y 8
     6 SEP2        3 GROUP        1 Y    SEP  0     **** SEP Y 9
     7 LYP4       82 GROUP        1 Y    LYP  0     **** LYP Y 11
     8 GLP5        9 GROUP        1 Y    GLP  0     **** GLP Y 13
     9 ALL1       25 GROUP        1 Z    ALL  0     ROOT ALL Z 15
    10 SEL2        2 GROUP        1 Z    SEL  0     **** SEL Z 16
    11 LYL4       81 GROUP        1 Z    LYL  0     **** LYL Z 18
    12 GLL5        8 GROUP        1 Z    GLL  0     **** GLL Z 20
@<TRIPOS>SET

