#    Name: 1he4_NAP_1_ligand
#    Modification time : Tue Mar 25 05:24:56 2014

@<TRIPOS>MOLECULE
1he4_NAP_1_ligand
   73    77     1     0     0
SMALL
NO_CHARGES


@<TRIPOS>ATOM
      1 PA         24.9670   -4.8590    7.2360 P.3       1 NAP1206     0.0000 
      2 O1A        25.1410   -6.1300    7.8990 O.co2     1 NAP1206     0.0000 
      3 O2A        25.0530   -4.6090    5.7590 O.co2     1 NAP1206     0.0000 
      4 O5B        26.0110   -3.8600    7.9310 O.3       1 NAP1206     0.0000 
      5 C5B        26.3800   -4.0830    9.3150 C.3       1 NAP1206     0.0000 
      6 C4B        27.0580   -2.7580    9.6840 C.3       1 NAP1206     0.0000 
      7 O4B        27.5180   -2.9560   11.0740 O.3       1 NAP1206     0.0000 
      8 C3B        28.3800   -2.4690    8.9110 C.3       1 NAP1206     0.0000 
      9 O3B        28.5320   -1.0580    8.8770 O.3       1 NAP1206     0.0000 
     10 C2B        29.4090   -3.0630    9.8320 C.3       1 NAP1206     0.0000 
     11 O2B        30.7160   -2.5310    9.6270 O.3       1 NAP1206     0.0000 
     12 C1B        28.8890   -2.5900   11.1930 C.3       1 NAP1206     0.0000 
     13 N9A        29.5420   -3.3980   12.2150 N.pl3     1 NAP1206     0.0000 
     14 C8A        29.4970   -4.7450   12.4590 C.2       1 NAP1206     0.0000 
     15 N7A        30.3120   -5.0970   13.4740 N.2       1 NAP1206     0.0000 
     16 C5A        30.7800   -3.9230   13.9580 C.ar      1 NAP1206     0.0000 
     17 C6A        31.7020   -3.6780   14.9900 C.ar      1 NAP1206     0.0000 
     18 N6A        32.1970   -4.5930   15.8080 N.pl3     1 NAP1206     0.0000 
     19 N1A        32.0560   -2.3290   15.1780 N.ar      1 NAP1206     0.0000 
     20 C2A        31.5440   -1.2980   14.3900 C.ar      1 NAP1206     0.0000 
     21 N3A        30.6570   -1.5200   13.3850 N.ar      1 NAP1206     0.0000 
     22 C4A        30.3340   -2.8730   13.1440 C.ar      1 NAP1206     0.0000 
     23 O3         23.5450   -4.2970    7.6410 O.3       1 NAP1206     0.0000 
     24 PN         22.1850   -4.1170    6.8990 P.3       1 NAP1206     0.0000 
     25 O1N        22.0670   -5.1700    5.8880 O.co2     1 NAP1206     0.0000 
     26 O2N        21.9650   -2.7000    6.4940 O.co2     1 NAP1206     0.0000 
     27 O5D        21.1570   -4.5410    8.0500 O.3       1 NAP1206     0.0000 
     28 C5D        20.8240   -3.5990    9.1160 C.3       1 NAP1206     0.0000 
     29 C4D        20.1290   -4.4140   10.1860 C.3       1 NAP1206     0.0000 
     30 O4D        18.9060   -4.9600    9.6640 O.3       1 NAP1206     0.0000 
     31 C3D        20.9460   -5.6780   10.6430 C.3       1 NAP1206     0.0000 
     32 O3D        20.9470   -5.8320   12.0710 O.3       1 NAP1206     0.0000 
     33 C2D        20.2100   -6.8360    9.9740 C.3       1 NAP1206     0.0000 
     34 O2D        20.2790   -8.0750   10.6500 O.3       1 NAP1206     0.0000 
     35 C1D        18.7940   -6.3640   10.0650 C.3       1 NAP1206     0.0000 
     36 N1N        17.8780   -6.7750    9.0020 N.pl3     1 NAP1206     0.0000 
     37 C2N        18.3640   -7.2350    7.7110 C.ar      1 NAP1206     0.0000 
     38 C3N        17.3900   -7.6160    6.7820 C.ar      1 NAP1206     0.0000 
     39 C7N        17.7990   -8.1020    5.3760 C.2       1 NAP1206     0.0000 
     40 O7N        16.8680   -8.3670    4.6670 O.2       1 NAP1206     0.0000 
     41 N7N        19.0900   -8.1570    5.1430 N.am      1 NAP1206     0.0000 
     42 C4N        15.9680   -7.5150    7.0890 C.ar      1 NAP1206     0.0000 
     43 C5N        15.5110   -7.0660    8.3740 C.ar      1 NAP1206     0.0000 
     44 C6N        16.5060   -6.6890    9.3450 C.ar      1 NAP1206     0.0000 
     45 P2B        31.7710   -3.0440    8.4990 P.3       1 NAP1206     0.0000 
     46 O1X        31.4440   -2.2420    7.2470 O.co2     1 NAP1206     0.0000 
     47 O2X        33.0350   -2.5920    9.1670 O.co2     1 NAP1206     0.0000 
     48 O3X        31.5560   -4.5250    8.3120 O.co2     1 NAP1206     0.0000 
     49 H          27.0910   -4.8663    9.4164 H         1 NAP1206     0.0000 
     50 H          25.5290   -4.2124    9.9382 H         1 NAP1206     0.0000 
     51 H          26.4123   -1.9586    9.6234 H         1 NAP1206     0.0000 
     52 H          28.3536   -2.9473    8.0147 H         1 NAP1206     0.0000 
     53 H          29.3457   -4.1074    9.8095 H         1 NAP1206     0.0000 
     54 H          29.0408   -1.5835   11.2789 H         1 NAP1206     0.0000 
     55 H          28.9344   -5.3704   11.9490 H         1 NAP1206     0.0000 
     56 H          32.8600   -4.2679   16.4823 H         1 NAP1206     0.0000 
     57 H          31.8632   -5.5266   15.6776 H         1 NAP1206     0.0000 
     58 H          31.8656   -0.3192   14.5933 H         1 NAP1206     0.0000 
     59 H          20.1498   -2.8357    8.7636 H         1 NAP1206     0.0000 
     60 H          21.7127   -3.1559    9.5348 H         1 NAP1206     0.0000 
     61 H          19.9397   -3.8250   11.0519 H         1 NAP1206     0.0000 
     62 H          21.9108   -5.6020   10.2144 H         1 NAP1206     0.0000 
     63 H          20.4753   -6.8694    8.9546 H         1 NAP1206     0.0000 
     64 H          18.3928   -6.4200   10.9992 H         1 NAP1206     0.0000 
     65 H          19.3362   -7.2670    7.5255 H         1 NAP1206     0.0000 
     66 H          19.6860   -7.9113    5.9075 H         1 NAP1206     0.0000 
     67 H          19.3593   -8.4396    4.2223 H         1 NAP1206     0.0000 
     68 H          15.2920   -7.7707    6.3701 H         1 NAP1206     0.0000 
     69 H          14.5397   -7.0161    8.5888 H         1 NAP1206     0.0000 
     70 H          16.2175   -6.3677   10.2589 H         1 NAP1206     0.0000 
     71 H          29.3887   -0.9019    8.3854 H         1 NAP1206     0.0000 
     72 H          21.8928   -5.6636   12.3487 H         1 NAP1206     0.0000 
     73 H          20.6524   -7.8572   11.5518 H         1 NAP1206     0.0000 
@<TRIPOS>BOND
     1    2    1 ar   
     2    3    1 ar   
     3    4    1 1    
     4   23    1 1    
     5    5    4 1    
     6    6    5 1    
     7   49    5 1    
     8   50    5 1    
     9    7    6 1    
    10    8    6 1    
    11   51    6 1    
    12   12    7 1    
    13    9    8 1    
    14   10    8 1    
    15   52    8 1    
    16   71    9 1    
    17   11   10 1    
    18   12   10 1    
    19   53   10 1    
    20   45   11 1    
    21   13   12 1    
    22   54   12 1    
    23   14   13 1    
    24   22   13 1    
    25   15   14 2    
    26   55   14 1    
    27   16   15 1    
    28   17   16 ar   
    29   22   16 ar   
    30   18   17 1    
    31   19   17 ar   
    32   56   18 1    
    33   57   18 1    
    34   20   19 ar   
    35   21   20 ar   
    36   58   20 1    
    37   22   21 ar   
    38   24   23 1    
    39   25   24 ar   
    40   26   24 ar   
    41   27   24 1    
    42   28   27 1    
    43   29   28 1    
    44   59   28 1    
    45   60   28 1    
    46   30   29 1    
    47   31   29 1    
    48   61   29 1    
    49   35   30 1    
    50   32   31 1    
    51   33   31 1    
    52   62   31 1    
    53   72   32 1    
    54   34   33 1    
    55   35   33 1    
    56   63   33 1    
    57   73   34 1    
    58   36   35 1    
    59   64   35 1    
    60   37   36 ar   
    61   44   36 ar   
    62   38   37 ar   
    63   65   37 1    
    64   39   38 1    
    65   42   38 ar   
    66   40   39 2    
    67   41   39 am   
    68   66   41 1    
    69   67   41 1    
    70   43   42 ar   
    71   68   42 1    
    72   44   43 ar   
    73   69   43 1    
    74   70   44 1    
    75   46   45 ar   
    76   47   45 ar   
    77   48   45 ar   
@<TRIPOS>SUBSTRUCTURE
     1 NAP1206     1 GROUP   
@<TRIPOS>SET

