#    Name: 2gdo_12C_1_INTS_M
#    Modification time : Tue Mar 25 14:02:31 2014

@<TRIPOS>MOLECULE
2gdo_12C_1_INTS_M
   82     0    12     0     0
SMALL
NO_CHARGES


@<TRIPOS>ATOM
      1 CA          7.1040   -4.3770   45.5500 C.3       4 GLC5        0.0000 
      2 CA          7.9820   -3.0800   43.9710 C.3      12 GLL5        0.0000 
      3 CA          6.2260   -5.6740   47.1290 C.3       8 GLP5        0.0000 
      4 CA          9.2000   -4.4710   44.6860 C.3       4 GLC5        0.0000 
      5 CA         10.4180   -5.8620   45.4010 C.3       8 GLP5        0.0000 
      6 O           5.1645    1.7845   48.0085 O.2       1 ALC1        0.0000 
      7 O           4.7610    0.5870   47.3010 O.2       9 ALL1        0.0000 
      8 O           5.5680    2.9820   48.7160 O.2       5 ALP1        0.0000 
      9 N           2.3270    2.3625   48.9390 N.am      2 SEC2        0.0000 
     10 N           2.8410    1.1550   48.3750 N.am     10 SEL2        0.0000 
     11 N           1.8130    3.5700   49.5030 N.am      6 SEP2        0.0000 
     12 CA          2.6630   -1.9410   48.9155 C.3       4 GLC5        0.0000 
     13 CA          2.8010   -0.9050   47.1480 C.3      12 GLL5        0.0000 
     14 CA          2.5250   -2.9770   50.6830 C.3       8 GLP5        0.0000 
     15 CA          4.4285   -0.6045   48.5735 C.3       4 GLC5        0.0000 
     16 CA          6.0560   -0.3040   49.9990 C.3       8 GLP5        0.0000 
     17 CA          0.9720   -1.9410   49.5590 C.3       4 GLC5        0.0000 
     18 CA         -0.5810   -0.9050   48.4350 C.3      12 GLL5        0.0000 
     19 CA         -2.2130    1.5135   49.9425 C.3       4 GLC5        0.0000 
     20 CA         -1.7210   -0.4710   49.1290 C.3      12 GLL5        0.0000 
     21 CA         -2.7050    3.4980   50.7560 C.3       8 GLP5        0.0000 
     22 CA         -0.6130   -2.9250   43.3385 C.3       4 GLC5        0.0000 
     23 CA          1.4170   -3.1860   43.9150 C.3      12 GLL5        0.0000 
     24 CA         -2.6430   -2.6640   42.7620 C.3       8 GLP5        0.0000 
     25 OD1        -0.5465   -5.7975   43.7330 O.co2     3 ASC3        0.0000 
     26 OD1         0.7180   -4.4950   43.5420 O.co2    11 ASL3        0.0000 
     27 OD1        -1.8110   -7.1000   43.9240 O.co2     7 ASP3        0.0000 
     28 O          -0.4805   -4.6435   42.9330 O.2       1 ALC1        0.0000 
     29 O           0.7180   -4.4950   43.5420 O.2       9 ALL1        0.0000 
     30 O          -1.6790   -4.7920   42.3240 O.2       5 ALP1        0.0000 
     31 CA          3.9630   -7.2975   42.7235 C.3       4 GLC5        0.0000 
     32 CA          2.9130   -5.5700   43.1130 C.3      12 GLL5        0.0000 
     33 CA          5.0130   -9.0250   42.3340 C.3       8 GLP5        0.0000 
     34 CA          1.6290   -5.3500   47.5740 C.3       4 GLC5        0.0000 
     35 CA          1.8830   -5.6980   45.3820 C.3      12 GLL5        0.0000 
     36 CA          1.3750   -5.0020   49.7660 C.3       8 GLP5        0.0000 
     37 CA          1.5755   -7.4555   46.6535 C.3       4 GLC5        0.0000 
     38 CA          1.2680   -9.2130   47.9250 C.3       8 GLP5        0.0000 
     39 CA          4.6180   -5.3570   45.8465 C.3       4 GLC5        0.0000 
     40 CA          3.0100   -5.0400   44.5640 C.3      12 GLL5        0.0000 
     41 CA          4.8848   -2.9692   47.6512 C.3       4 GLC5        0.0000 
     42 CA          3.5020   -1.7810   46.3620 C.3      12 GLL5        0.0000 
     43 CA          5.5590   -4.3110   49.1130 C.3       8 GLP5        0.0000 
     44 CA          3.9445    0.1340   45.3817 C.3       4 GLC5        0.0000 
     45 CA          5.5110   -0.2840   46.4980 C.3      12 GLL5        0.0000 
     46 CA          2.6740    1.1470   44.5060 C.3       8 GLP5        0.0000 
     47 CA          5.2592   -0.5397   44.0817 C.3       4 GLC5        0.0000 
     48 CA          4.9190   -1.4740   46.0170 C.3      12 GLL5        0.0000 
     49 CA          5.1970    0.8190   42.5410 C.3       8 GLP5        0.0000 
     50 CA          6.3065   -3.9183   46.1043 C.3       4 GLC5        0.0000 
     51 CA          5.7240   -2.3230   45.2280 C.3      12 GLL5        0.0000 
     52 CA          6.2657   -0.2957   43.8552 C.3       4 GLC5        0.0000 
     53 CA          7.6190   -0.8190   45.4080 C.3      12 GLL5        0.0000 
     54 CA          7.9780   -2.1430   42.7585 C.3       4 GLC5        0.0000 
     55 CA          7.0500   -2.0020   44.9310 C.3      12 GLL5        0.0000 
     56 CA          8.4400   -1.7450   41.0660 C.3       8 GLP5        0.0000 
     57 CA          8.8897   -1.5290   46.0457 C.3       4 GLC5        0.0000 
     58 CA         10.2120   -1.3780   47.1620 C.3       8 GLP5        0.0000 
     59 CA          6.0433   -0.3600   48.1139 C.3       4 GLC5        0.0000 
     60 CA          6.8460    0.0470   46.2000 C.3      12 GLL5        0.0000 
     61 CA          7.8087    0.2573   47.3960 C.3       4 GLC5        0.0000 
     62 CA          9.4390    0.6330   48.4430 C.3       8 GLP5        0.0000 
     63 CA          5.6877    0.3502   44.4450 C.3       4 GLC5        0.0000 
     64 CA          6.9619    1.5030   45.9990 C.3       4 GLC5        0.0000 
     65 CA          7.5520    3.3410   45.8470 C.3       8 GLP5        0.0000 
     66 CA          2.9127   -0.0980   45.6305 C.3       4 GLC5        0.0000 
     67 CA          1.3647   -1.5970   43.8558 C.3       4 GLC5        0.0000 
     68 CA          2.8120   -3.5020   44.5280 C.3      12 GLL5        0.0000 
     69 CA          0.6150    0.1500   43.4900 C.3       8 GLP5        0.0000 
     70 CA          0.1295   -3.7527   48.7227 C.3       4 GLC5        0.0000 
     71 CA         -0.5410   -2.0940   47.7090 C.3      12 GLL5        0.0000 
     72 CA         -2.1555   -0.4082   47.1850 C.3       4 GLC5        0.0000 
     73 CA         -3.7500    0.6830   46.2980 C.3       8 GLP5        0.0000 
     74 CA         -3.0095   -1.0122   47.1450 C.3       4 GLC5        0.0000 
     75 CA         -2.8470   -2.5020   48.3340 C.3      12 GLL5        0.0000 
     76 CA         -3.0200   -0.1012   47.6962 C.3       4 GLC5        0.0000 
     77 CA         -2.8590   -1.3000   49.0600 C.3      12 GLL5        0.0000 
     78 CA          1.0835   -7.0873   44.2990 C.3       4 GLC5        0.0000 
     79 CA          0.5150   -5.3690   44.7760 C.3      12 GLL5        0.0000 
     80 CA          0.9680   -8.6410   43.5190 C.3       8 GLP5        0.0000 
     81 CA          1.7931   -6.9322   43.6029 C.3       4 GLC5        0.0000 
     82 CA          1.5400   -5.2440   42.5060 C.3      12 GLL5        0.0000 
@<TRIPOS>BOND
@<TRIPOS>SUBSTRUCTURE
     1 ALC1        6 GROUP        1 X    ALC  0     ROOT ALC X 1
     2 SEC2        9 GROUP        1 X    SEC  0     **** SEC X 2
     3 ASC3       25 GROUP        1 X    ASC  0     **** ASC X 3
     4 GLC5        1 GROUP        1 X    GLC  0     **** GLC X 6
     5 ALP1        8 GROUP        1 Y    ALP  0     ROOT ALP Y 8
     6 SEP2       11 GROUP        1 Y    SEP  0     **** SEP Y 9
     7 ASP3       27 GROUP        1 Y    ASP  0     **** ASP Y 10
     8 GLP5        3 GROUP        1 Y    GLP  0     **** GLP Y 13
     9 ALL1        7 GROUP        1 Z    ALL  0     ROOT ALL Z 15
    10 SEL2       10 GROUP        1 Z    SEL  0     **** SEL Z 16
    11 ASL3       26 GROUP        1 Z    ASL  0     **** ASL Z 17
    12 GLL5        2 GROUP        1 Z    GLL  0     **** GLL Z 20
@<TRIPOS>SET

