#    Name: 2gdo_12C_1_ligand
#    Modification time : Tue Mar 25 14:02:31 2014

@<TRIPOS>MOLECULE
2gdo_12C_1_ligand
   53    58     1     0     0
SMALL
NO_CHARGES


@<TRIPOS>ATOM
      1 C1          4.9190   -1.4740   46.0170 C.ar      1 12C298      0.0000 
      2 C2          5.7240   -2.3230   45.2280 C.ar      1 12C298      0.0000 
      3 C3          7.0500   -2.0020   44.9310 C.ar      1 12C298      0.0000 
      4 CL          7.9820   -3.0800   43.9710 Cl        1 12C298      0.0000 
      5 C4          7.6190   -0.8190   45.4080 C.ar      1 12C298      0.0000 
      6 C5          6.8460    0.0470   46.2000 C.ar      1 12C298      0.0000 
      7 C6          5.5110   -0.2840   46.4980 C.ar      1 12C298      0.0000 
      8 N1          4.7610    0.5870   47.3010 N.am      1 12C298      0.0000 
      9 C7          3.4510    0.3510   47.6640 C.2       1 12C298      0.0000 
     10 O1          2.8410    1.1550   48.3750 O.2       1 12C298      0.0000 
     11 C8          2.8010   -0.9050   47.1480 C.2       1 12C298      0.0000 
     12 C9          1.4280   -1.2210   47.4900 C.2       1 12C298      0.0000 
     13 C10         3.5020   -1.7810   46.3620 C.2       1 12C298      0.0000 
     14 N2          2.8960   -2.9400   45.8680 N.pl3     1 12C298      0.0000 
     15 C11         2.8120   -3.5020   44.5280 C.3       1 12C298      0.0000 
     16 N3          0.6910   -2.2720   47.1330 N.pl3     1 12C298      0.0000 
     17 C12        -0.5410   -2.0940   47.7090 C.ar      1 12C298      0.0000 
     18 C13        -0.5810   -0.9050   48.4350 C.ar      1 12C298      0.0000 
     19 N4          0.6740   -0.3690   48.2810 N.2       1 12C298      0.0000 
     20 C14        -1.6910   -2.9130   47.6500 C.ar      1 12C298      0.0000 
     21 C15        -2.8470   -2.5020   48.3340 C.ar      1 12C298      0.0000 
     22 C16        -2.8590   -1.3000   49.0600 C.ar      1 12C298      0.0000 
     23 C17        -1.7210   -0.4710   49.1290 C.ar      1 12C298      0.0000 
     24 C18         1.4170   -3.1860   43.9150 C.3       1 12C298      0.0000 
     25 N5          0.7180   -4.4950   43.5420 N.4       1 12C298      0.0000 
     26 C19         1.5400   -5.2440   42.5060 C.3       1 12C298      0.0000 
     27 C20         2.9130   -5.5700   43.1130 C.3       1 12C298      0.0000 
     28 C21         0.5150   -5.3690   44.7760 C.3       1 12C298      0.0000 
     29 C22         1.8830   -5.6980   45.3820 C.3       1 12C298      0.0000 
     30 C23         3.0100   -5.0400   44.5640 C.3       1 12C298      0.0000 
     31 H           5.3166   -3.2016   44.8644 H         1 12C298      0.0000 
     32 H           8.5863   -0.5823   45.1857 H         1 12C298      0.0000 
     33 H           7.2506    0.9135   46.5584 H         1 12C298      0.0000 
     34 H           5.2311    1.4661   47.6407 H         1 12C298      0.0000 
     35 H           2.3777   -3.5594   46.6235 H         1 12C298      0.0000 
     36 H           3.5567   -3.0835   43.8789 H         1 12C298      0.0000 
     37 H           0.9460   -3.0102   46.5887 H         1 12C298      0.0000 
     38 H          -1.6781   -3.7784   47.1240 H         1 12C298      0.0000 
     39 H          -3.6920   -3.0866   48.3027 H         1 12C298      0.0000 
     40 H          -3.7197   -1.0150   49.5553 H         1 12C298      0.0000 
     41 H          -1.7286    0.3838   49.6478 H         1 12C298      0.0000 
     42 H           1.5551   -2.5809   43.0320 H         1 12C298      0.0000 
     43 H           0.8291   -2.6533   44.6468 H         1 12C298      0.0000 
     44 H          -0.2464   -4.2627   43.1180 H         1 12C298      0.0000 
     45 H           1.6773   -4.6261   41.6318 H         1 12C298      0.0000 
     46 H           1.0428   -6.1645   42.2407 H         1 12C298      0.0000 
     47 H           3.6906   -5.1051   42.5157 H         1 12C298      0.0000 
     48 H           3.0574   -6.6455   43.1207 H         1 12C298      0.0000 
     49 H           0.0201   -6.2865   44.4920 H         1 12C298      0.0000 
     50 H          -0.0790   -4.8351   45.5037 H         1 12C298      0.0000 
     51 H           2.0275   -6.7742   45.3828 H         1 12C298      0.0000 
     52 H           1.9235   -5.3287   46.4024 H         1 12C298      0.0000 
     53 H           3.9440   -5.2771   44.9659 H         1 12C298      0.0000 
@<TRIPOS>BOND
     1    2    1 ar   
     2    7    1 ar   
     3   13    1 1    
     4    3    2 ar   
     5   31    2 1    
     6    4    3 1    
     7    5    3 ar   
     8    6    5 ar   
     9   32    5 1    
    10    7    6 ar   
    11   33    6 1    
    12    8    7 1    
    13    9    8 am   
    14   34    8 1    
    15   10    9 2    
    16   11    9 1    
    17   12   11 1    
    18   13   11 2    
    19   16   12 1    
    20   19   12 2    
    21   14   13 1    
    22   15   14 1    
    23   35   14 1    
    24   24   15 1    
    25   30   15 1    
    26   36   15 1    
    27   17   16 1    
    28   37   16 1    
    29   18   17 ar   
    30   20   17 ar   
    31   19   18 1    
    32   23   18 ar   
    33   21   20 ar   
    34   38   20 1    
    35   22   21 ar   
    36   39   21 1    
    37   23   22 ar   
    38   40   22 1    
    39   41   23 1    
    40   25   24 1    
    41   42   24 1    
    42   43   24 1    
    43   26   25 1    
    44   28   25 1    
    45   44   25 1    
    46   27   26 1    
    47   45   26 1    
    48   46   26 1    
    49   30   27 1    
    50   47   27 1    
    51   48   27 1    
    52   29   28 1    
    53   49   28 1    
    54   50   28 1    
    55   30   29 1    
    56   51   29 1    
    57   52   29 1    
    58   53   30 1    
@<TRIPOS>SUBSTRUCTURE
     1 12C298      1 GROUP   
@<TRIPOS>SET

