#    Name: 3g0x_MD7_2_INTS_M
#    Modification time : Tue Mar 25 06:58:42 2014

@<TRIPOS>MOLECULE
3g0x_MD7_2_INTS_M
   69     0     6     0     0
SMALL
NO_CHARGES


@<TRIPOS>ATOM
      1 CA          2.0605  -41.5190   -3.9255 C.3       2 GLC5        0.0000 
      2 CA          1.6290  -40.7510   -1.9810 C.3       6 GLL5        0.0000 
      3 CA          2.4920  -42.2870   -5.8700 C.3       4 GLP5        0.0000 
      4 CA          1.8195  -39.5855    0.9740 C.3       2 GLC5        0.0000 
      5 CA          2.2670  -40.0040   -0.8300 C.3       6 GLL5        0.0000 
      6 CA          1.3720  -39.1670    2.7780 C.3       4 GLP5        0.0000 
      7 CA          4.5690  -40.0250   -1.0320 C.3       2 GLC5        0.0000 
      8 CA          3.1990  -38.8140   -1.3090 C.3       6 GLL5        0.0000 
      9 CA          5.9390  -41.2360   -0.7550 C.3       4 GLP5        0.0000 
     10 CA          2.3090  -38.3255    0.5595 C.3       2 GLC5        0.0000 
     11 CA          1.4190  -37.8370    2.4280 C.3       4 GLP5        0.0000 
     12 CA          2.1260  -37.6420   -1.1275 C.3       2 GLC5        0.0000 
     13 CA          1.0530  -36.4700   -0.9460 C.3       4 GLP5        0.0000 
     14 CA          5.2140  -39.2480   -2.0155 C.3       2 GLC5        0.0000 
     15 CA          3.4540  -38.2680   -2.7880 C.3       6 GLL5        0.0000 
     16 CA          6.9740  -40.2280   -1.2430 C.3       4 GLP5        0.0000 
     17 CA          2.7270  -40.5310   -4.9540 C.3       2 GLC5        0.0000 
     18 CA          2.9620  -38.7750   -4.0380 C.3       6 GLL5        0.0000 
     19 CA          4.9400  -38.9935   -4.8220 C.3       2 GLC5        0.0000 
     20 CA          6.9180  -39.2120   -5.6060 C.3       4 GLP5        0.0000 
     21 N           2.2935  -39.0120   -6.6195 N.am      1 SEC2        0.0000 
     22 N           2.6420  -39.0340   -5.1130 N.am      5 SEL2        0.0000 
     23 N           1.9450  -38.9900   -8.1260 N.am      3 SEP2        0.0000 
     24 N           3.4110  -39.1505   -6.5920 N.am      1 SEC2        0.0000 
     25 N           4.1800  -39.2670   -8.0710 N.am      3 SEP2        0.0000 
     26 CA          8.9240  -31.0105    2.4245 C.3       2 GLC5        0.0000 
     27 CA          9.8390  -31.4360    0.5120 C.3       6 GLL5        0.0000 
     28 CA          8.0090  -30.5850    4.3370 C.3       4 GLP5        0.0000 
     29 CA          7.2050  -31.2400   -3.6390 C.3       2 GLC5        0.0000 
     30 CA          8.7300  -31.3970   -2.0870 C.3       6 GLL5        0.0000 
     31 CA          5.6800  -31.0830   -5.1910 C.3       4 GLP5        0.0000 
     32 CA          4.1820  -40.9985   -0.8357 C.3       2 GLC5        0.0000 
     33 CA          1.0510  -42.5198   -2.1025 C.3       2 GLC5        0.0000 
     34 CA          2.5830  -41.5180   -1.0030 C.3       6 GLL5        0.0000 
     35 CA         -0.0040  -43.9050   -2.7130 C.3       4 GLP5        0.0000 
     36 CA          1.5005  -38.4237   -1.1757 C.3       2 GLC5        0.0000 
     37 CA          0.9173  -41.5081    0.2210 C.3       2 GLC5        0.0000 
     38 CA         -0.3520  -42.4470    1.6030 C.3       4 GLP5        0.0000 
     39 CA          2.1035  -37.2127   -2.9250 C.3       2 GLC5        0.0000 
     40 CA          0.9990  -35.9040   -2.4370 C.3       4 GLP5        0.0000 
     41 CA          5.4010  -33.9043   -3.4590 C.3       2 GLC5        0.0000 
     42 CA          5.5270  -35.3730   -1.6640 C.3       6 GLL5        0.0000 
     43 CA          4.8040  -32.5920   -4.7580 C.3       4 GLP5        0.0000 
     44 CA          7.2390  -35.7403   -1.2605 C.3       2 GLC5        0.0000 
     45 CA          6.4690  -35.0600   -2.6560 C.3       6 GLL5        0.0000 
     46 CA          8.4800  -36.2640   -0.3610 C.3       4 GLP5        0.0000 
     47 CA          3.4638  -34.6965   -1.7585 C.3       2 GLC5        0.0000 
     48 CA          1.4450  -34.4140   -2.4450 C.3       4 GLP5        0.0000 
     49 CA          7.2445  -34.7533   -4.3148 C.3       2 GLC5        0.0000 
     50 CA          7.5980  -34.9940   -6.1000 C.3       4 GLP5        0.0000 
     51 CA          6.0270  -33.0765   -3.2902 C.3       2 GLC5        0.0000 
     52 CA          7.3130  -33.9650   -2.4030 C.3       6 GLL5        0.0000 
     53 CA          7.8650  -34.9125   -1.0917 C.3       2 GLC5        0.0000 
     54 CA          7.1692  -35.1495   -0.3562 C.3       2 GLC5        0.0000 
     55 CA          6.2790  -33.4850   -0.2230 C.3       6 GLL5        0.0000 
     56 CA          4.4682  -33.0465    0.7152 C.3       2 GLC5        0.0000 
     57 CA          5.4380  -34.5850   -0.4800 C.3       6 GLL5        0.0000 
     58 CA          3.0780  -32.0580    1.7820 C.3       4 GLP5        0.0000 
     59 CA          8.4753  -34.2463   -0.3985 C.3       2 GLC5        0.0000 
     60 CA          8.1720  -32.1970   -1.0690 C.3       6 GLL5        0.0000 
     61 CA          8.3540  -30.2435    0.4288 C.3       2 GLC5        0.0000 
     62 CA          8.7690  -32.2600    0.1970 C.3       6 GLL5        0.0000 
     63 CA          7.4040  -28.6390    0.5030 C.3       4 GLP5        0.0000 
     64 CA         10.8405  -30.4052    1.4478 C.3       2 GLC5        0.0000 
     65 CA         11.5790  -29.8040    2.8720 C.3       4 GLP5        0.0000 
     66 CA          8.7457  -29.6022   -0.3045 C.3       2 GLC5        0.0000 
     67 CA         10.3650  -30.5770   -0.4650 C.3       6 GLL5        0.0000 
     68 CA          7.3284  -30.4645   -1.1586 C.3       2 GLC5        0.0000 
     69 CA          6.4520  -28.8920   -0.6960 C.3       4 GLP5        0.0000 
@<TRIPOS>BOND
@<TRIPOS>SUBSTRUCTURE
     1 SEC2       21 GROUP        1 X    SEC  0     ROOT SEC X 2
     2 GLC5        1 GROUP        1 X    GLC  0     **** GLC X 6
     3 SEP2       23 GROUP        1 Y    SEP  0     ROOT SEP Y 9
     4 GLP5        3 GROUP        1 Y    GLP  0     **** GLP Y 13
     5 SEL2       22 GROUP        1 Z    SEL  0     ROOT SEL Z 16
     6 GLL5        2 GROUP        1 Z    GLL  0     **** GLL Z 20
@<TRIPOS>SET

