#    Name: 3g0x_MD7_2_ligand
#    Modification time : Tue Mar 25 06:58:42 2014

@<TRIPOS>MOLECULE
3g0x_MD7_2_ligand
   39    41     1     0     0
SMALL
NO_CHARGES


@<TRIPOS>ATOM
      1 CAN         2.5830  -41.5180   -1.0030 C.3       1 MD72        0.0000 
      2 CAO         1.6290  -40.7510   -1.9810 C.3       1 MD72        0.0000 
      3 CAW         2.2670  -40.0040   -0.8300 C.3       1 MD72        0.0000 
      4 CAS         3.1990  -38.8140   -1.3090 C.2       1 MD72        0.0000 
      5 OAC         3.8340  -38.1160   -0.2990 O.3       1 MD72        0.0000 
      6 CAR         3.4540  -38.2680   -2.7880 C.2       1 MD72        0.0000 
      7 CAD         2.9620  -38.7750   -4.0380 C.1       1 MD72        0.0000 
      8 NAA         2.6420  -39.0340   -5.1130 N.1       1 MD72        0.0000 
      9 CAQ         4.3560  -36.9890   -2.9570 C.2       1 MD72        0.0000 
     10 OAB         4.5520  -36.4700   -4.0690 O.2       1 MD72        0.0000 
     11 NAP         4.7430  -36.4430   -1.8120 N.am      1 MD72        0.0000 
     12 CAT         5.5270  -35.3730   -1.6640 C.ar      1 MD72        0.0000 
     13 CAK         6.4690  -35.0600   -2.6560 C.ar      1 MD72        0.0000 
     14 CAM         7.3130  -33.9650   -2.4030 C.ar      1 MD72        0.0000 
     15 CAJ         5.4380  -34.5850   -0.4800 C.ar      1 MD72        0.0000 
     16 CAL         6.2790  -33.4850   -0.2230 C.ar      1 MD72        0.0000 
     17 CAV         7.1870  -33.1570   -1.2420 C.ar      1 MD72        0.0000 
     18 CAU         8.1720  -32.1970   -1.0690 C.ar      1 MD72        0.0000 
     19 CAH         8.7690  -32.2600    0.1970 C.ar      1 MD72        0.0000 
     20 CAF         9.8390  -31.4360    0.5120 C.ar      1 MD72        0.0000 
     21 CAE        10.3650  -30.5770   -0.4650 C.ar      1 MD72        0.0000 
     22 CAG         9.8100  -30.5540   -1.7590 C.ar      1 MD72        0.0000 
     23 CAI         8.7300  -31.3970   -2.0870 C.ar      1 MD72        0.0000 
     24 H           3.4112  -41.5689   -1.4350 H         1 MD72        0.0000 
     25 H           2.0281  -41.9753   -0.4045 H         1 MD72        0.0000 
     26 H           0.7496  -40.9859   -1.7305 H         1 MD72        0.0000 
     27 H           2.1327  -40.5795   -2.7609 H         1 MD72        0.0000 
     28 H           1.5805  -39.9260   -0.1544 H         1 MD72        0.0000 
     29 H           4.3847  -36.9156   -0.8930 H         1 MD72        0.0000 
     30 H           6.5373  -35.5897   -3.5022 H         1 MD72        0.0000 
     31 H           8.0591  -33.7329   -3.0874 H         1 MD72        0.0000 
     32 H           4.7142  -34.8403    0.2247 H         1 MD72        0.0000 
     33 H           6.2308  -32.9738    0.6283 H         1 MD72        0.0000 
     34 H           8.4057  -32.9257    0.8948 H         1 MD72        0.0000 
     35 H          10.2485  -31.4488    1.4509 H         1 MD72        0.0000 
     36 H          11.1542  -29.9647   -0.2387 H         1 MD72        0.0000 
     37 H          10.1942  -29.9198   -2.4671 H         1 MD72        0.0000 
     38 H           8.3641  -31.4279   -3.0283 H         1 MD72        0.0000 
     39 H           3.4804  -38.5097    0.5495 H         1 MD72        0.0000 
@<TRIPOS>BOND
     1    2    1 1    
     2    3    1 1    
     3   24    1 1    
     4   25    1 1    
     5    3    2 1    
     6   26    2 1    
     7   27    2 1    
     8    4    3 1    
     9   28    3 1    
    10    5    4 1    
    11    6    4 2    
    12   39    5 1    
    13    7    6 1    
    14    9    6 1    
    15    8    7 3    
    16   10    9 2    
    17   11    9 am   
    18   12   11 1    
    19   29   11 1    
    20   13   12 ar   
    21   15   12 ar   
    22   14   13 ar   
    23   30   13 1    
    24   17   14 ar   
    25   31   14 1    
    26   16   15 ar   
    27   32   15 1    
    28   17   16 ar   
    29   33   16 1    
    30   18   17 1    
    31   19   18 ar   
    32   23   18 ar   
    33   20   19 ar   
    34   34   19 1    
    35   21   20 ar   
    36   35   20 1    
    37   22   21 ar   
    38   36   21 1    
    39   23   22 ar   
    40   37   22 1    
    41   38   23 1    
@<TRIPOS>SUBSTRUCTURE
     1 MD72        1 GROUP   
@<TRIPOS>SET

