#    Name: 2w03_ADN_2_INTS_M
#    Modification time : Tue Mar 25 03:25:33 2014

@<TRIPOS>MOLECULE
2w03_ADN_2_INTS_M
   30     0     6     0     0
SMALL
NO_CHARGES


@<TRIPOS>ATOM
      1 CA         -9.2410   19.5695  -10.1645 C.3       2 GLC5        0.0000 
      2 CA         -7.8470   18.2940   -9.6320 C.3       6 GLL5        0.0000 
      3 CA        -10.6350   20.8450  -10.6970 C.3       4 GLP5        0.0000 
      4 CA         -9.6355   17.5255   -3.8175 C.3       2 GLC5        0.0000 
      5 CA        -10.5810   17.6840   -5.5840 C.3       6 GLL5        0.0000 
      6 CA         -8.6900   17.3670   -2.0510 C.3       4 GLP5        0.0000 
      7 CA        -11.8180   18.3385   -4.0810 C.3       2 GLC5        0.0000 
      8 CA        -13.0550   18.9930   -2.5780 C.3       4 GLP5        0.0000 
      9 N         -12.3020   15.5380   -5.6335 N.am      1 SEC2        0.0000 
     10 N         -11.2820   16.6160   -6.0210 N.am      5 SEL2        0.0000 
     11 N         -13.3220   14.4600   -5.2460 N.am      3 SEP2        0.0000 
     12 CA         -9.5405   15.2670   -6.5460 C.3       2 GLC5        0.0000 
     13 CA        -11.0570   16.1170   -7.2430 C.3       6 GLL5        0.0000 
     14 CA         -8.0240   14.4170   -5.8490 C.3       4 GLP5        0.0000 
     15 CA        -12.7165   16.1875   -7.8830 C.3       2 GLC5        0.0000 
     16 CA        -14.3760   16.2580   -8.5230 C.3       4 GLP5        0.0000 
     17 CA         -8.7170   16.0615   -6.7630 C.3       2 GLC5        0.0000 
     18 CA         -9.4100   17.7060   -7.6770 C.3       6 GLL5        0.0000 
     19 CA         -8.3870   19.1670  -13.2615 C.3       2 GLC5        0.0000 
     20 CA         -8.5010   17.9030  -11.8470 C.3       6 GLL5        0.0000 
     21 CA         -7.6880   20.7750  -14.3030 C.3       4 GLP5        0.0000 
     22 CA         -9.8605   19.2020  -11.4585 C.3       2 GLC5        0.0000 
     23 CA         -5.7248   16.0943  -10.0130 C.3       2 GLC5        0.0000 
     24 CA         -7.3870   16.9040  -11.5170 C.3       6 GLL5        0.0000 
     25 CA         -4.0940   15.2760   -9.2780 C.3       4 GLP5        0.0000 
     26 CA         -8.7970   16.5322   -5.4017 C.3       2 GLC5        0.0000 
     27 CA         -9.6190   18.2450   -6.4150 C.3       6 GLL5        0.0000 
     28 CA         -7.4940   15.1000   -4.8040 C.3       4 GLP5        0.0000 
     29 CA        -10.4908   19.0572   -8.3030 C.3       2 GLC5        0.0000 
     30 CA        -11.4670   20.1390   -9.5600 C.3       4 GLP5        0.0000 
@<TRIPOS>BOND
@<TRIPOS>SUBSTRUCTURE
     1 SEC2        9 GROUP        1 X    SEC  0     ROOT SEC X 2
     2 GLC5        1 GROUP        1 X    GLC  0     **** GLC X 6
     3 SEP2       11 GROUP        1 Y    SEP  0     ROOT SEP Y 9
     4 GLP5        3 GROUP        1 Y    GLP  0     **** GLP Y 13
     5 SEL2       10 GROUP        1 Z    SEL  0     ROOT SEL Z 16
     6 GLL5        2 GROUP        1 Z    GLL  0     **** GLL Z 20
@<TRIPOS>SET

