#    Name: 2w03_ADN_2_ligand
#    Modification time : Tue Mar 25 03:25:33 2014

@<TRIPOS>MOLECULE
2w03_ADN_2_ligand
   32    34     1     0     0
SMALL
NO_CHARGES


@<TRIPOS>ATOM
      1 O5'        -9.4820   17.3500  -14.0250 O.3       1 ADN1588     0.0000 
      2 C5'        -9.6710   17.2150  -12.5930 C.3       1 ADN1588     0.0000 
      3 C4'        -8.5010   17.9030  -11.8470 C.3       1 ADN1588     0.0000 
      4 O4'        -8.9200   18.4780  -10.5890 O.3       1 ADN1588     0.0000 
      5 C3'        -7.3870   16.9040  -11.5170 C.3       1 ADN1588     0.0000 
      6 O3'        -6.1590   17.3540  -12.1280 O.3       1 ADN1588     0.0000 
      7 C2'        -7.3240   16.9210   -9.9790 C.3       1 ADN1588     0.0000 
      8 O2'        -5.9910   16.8410   -9.4960 O.3       1 ADN1588     0.0000 
      9 C1'        -7.8470   18.2940   -9.6320 C.3       1 ADN1588     0.0000 
     10 N9         -8.4390   18.4350   -8.2440 N.pl3     1 ADN1588     0.0000 
     11 C8         -8.0750   19.3700   -7.3740 C.2       1 ADN1588     0.0000 
     12 N7         -8.7870   19.2590   -6.2610 N.2       1 ADN1588     0.0000 
     13 C5         -9.6190   18.2450   -6.4150 C.ar      1 ADN1588     0.0000 
     14 C6        -10.5810   17.6840   -5.5840 C.ar      1 ADN1588     0.0000 
     15 N6        -10.7830   18.2070   -4.3780 N.pl3     1 ADN1588     0.0000 
     16 N1        -11.2820   16.6160   -6.0210 N.ar      1 ADN1588     0.0000 
     17 C2        -11.0570   16.1170   -7.2430 C.ar      1 ADN1588     0.0000 
     18 N3        -10.1480   16.6350   -8.0690 N.ar      1 ADN1588     0.0000 
     19 C4         -9.4100   17.7060   -7.6770 C.ar      1 ADN1588     0.0000 
     20 H          -9.6874   16.1681  -12.2875 H         1 ADN1588     0.0000 
     21 H         -10.5966   17.6889  -12.2641 H         1 ADN1588     0.0000 
     22 H          -8.0805   18.6611  -12.4895 H         1 ADN1588     0.0000 
     23 H          -7.6966   15.9486  -11.8363 H         1 ADN1588     0.0000 
     24 H          -7.9752   16.2016   -9.5978 H         1 ADN1588     0.0000 
     25 H          -7.0923   19.0192   -9.7994 H         1 ADN1588     0.0000 
     26 H          -7.3774   20.0470   -7.5335 H         1 ADN1588     0.0000 
     27 H         -11.4760   17.7579   -3.8141 H         1 ADN1588     0.0000 
     28 H         -10.2236   19.0022   -4.1439 H         1 ADN1588     0.0000 
     29 H         -11.6247   15.2780   -7.5634 H         1 ADN1588     0.0000 
     30 H          -8.5255   17.6199  -14.1354 H         1 ADN1588     0.0000 
     31 H          -5.8031   16.5548  -12.6124 H         1 ADN1588     0.0000 
     32 H          -5.4218   17.1609  -10.2534 H         1 ADN1588     0.0000 
@<TRIPOS>BOND
     1    2    1 1    
     2   30    1 1    
     3    3    2 1    
     4   20    2 1    
     5   21    2 1    
     6    4    3 1    
     7    5    3 1    
     8   22    3 1    
     9    9    4 1    
    10    6    5 1    
    11    7    5 1    
    12   23    5 1    
    13   31    6 1    
    14    8    7 1    
    15    9    7 1    
    16   24    7 1    
    17   32    8 1    
    18   10    9 1    
    19   25    9 1    
    20   11   10 1    
    21   19   10 1    
    22   12   11 2    
    23   26   11 1    
    24   13   12 1    
    25   14   13 ar   
    26   19   13 ar   
    27   15   14 1    
    28   16   14 ar   
    29   27   15 1    
    30   28   15 1    
    31   17   16 ar   
    32   18   17 ar   
    33   29   17 1    
    34   19   18 ar   
@<TRIPOS>SUBSTRUCTURE
     1 ADN1588     1 GROUP   
@<TRIPOS>SET

