#    Name: 3l72_IKR_2_INTS_M
#    Modification time : Mon Mar 24 21:05:57 2014

@<TRIPOS>MOLECULE
3l72_IKR_2_INTS_M
   81     0     6     0     0
SMALL
NO_CHARGES


@<TRIPOS>ATOM
      1 CA         49.8475  144.1120   88.6795 C.3       2 GLC5        0.0000 
      2 CA         49.6990  142.2930   89.6980 C.3       6 GLL5        0.0000 
      3 CA         49.9960  145.9310   87.6610 C.3       4 GLP5        0.0000 
      4 CA         54.0230  140.6645   90.9550 C.3       2 GLC5        0.0000 
      5 CA         52.3110  141.3540   90.1940 C.3       6 GLL5        0.0000 
      6 CA         55.7350  139.9750   91.7160 C.3       4 GLP5        0.0000 
      7 CA         53.7765  141.6100   88.6095 C.3       2 GLC5        0.0000 
      8 CA         55.2420  141.8660   87.0250 C.3       4 GLP5        0.0000 
      9 CA         52.4575  144.3870   92.9935 C.3       2 GLC5        0.0000 
     10 CA         53.0400  143.5270   91.1870 C.3       6 GLL5        0.0000 
     11 CA         51.8750  145.2470   94.8000 C.3       4 GLP5        0.0000 
     12 CA         52.1120  142.5975   92.6820 C.3       2 GLC5        0.0000 
     13 CA         51.1840  141.6680   94.1770 C.3       4 GLP5        0.0000 
     14 CA         54.3875  141.7510   91.4515 C.3       2 GLC5        0.0000 
     15 CA         54.2460  144.3480   92.2590 C.3       2 GLC5        0.0000 
     16 CA         55.4520  145.1690   93.3310 C.3       4 GLP5        0.0000 
     17 CA         47.7310  144.4910   89.3695 C.3       2 GLC5        0.0000 
     18 CA         48.9380  144.7190   90.7850 C.3       6 GLL5        0.0000 
     19 CA         46.5240  144.2630   87.9540 C.3       4 GLP5        0.0000 
     20 CA         48.8920  142.9890   92.0905 C.3       2 GLC5        0.0000 
     21 CA         48.8460  141.2590   93.3960 C.3       4 GLP5        0.0000 
     22 CA         50.8155  147.4585   93.5155 C.3       2 GLC5        0.0000 
     23 CA         49.6130  148.1740   92.3110 C.3       6 GLL5        0.0000 
     24 CA         52.0180  146.7430   94.7200 C.3       4 GLP5        0.0000 
     25 CA         44.6535  140.3070   93.8675 C.3       2 GLC5        0.0000 
     26 CA         45.3900  142.3280   94.3380 C.3       6 GLL5        0.0000 
     27 CA         43.9170  138.2860   93.3970 C.3       4 GLP5        0.0000 
     28 CA         43.9400  143.3360   93.6840 C.3       2 GLC5        0.0000 
     29 CA         42.4900  144.3440   93.0300 C.3       4 GLP5        0.0000 
     30 CA         45.6385  142.9980   96.2465 C.3       2 GLC5        0.0000 
     31 CA         45.8870  143.6680   98.1550 C.3       4 GLP5        0.0000 
     32 CA         46.0990  140.9605   95.1785 C.3       2 GLC5        0.0000 
     33 CA         46.8080  139.5930   96.0190 C.3       4 GLP5        0.0000 
     34 CA         46.6420  141.4140   93.5460 C.3       2 GLC5        0.0000 
     35 CA         47.8940  140.5000   92.7540 C.3       4 GLP5        0.0000 
     36 N          47.9180  144.5380   95.7485 N.am      1 SEC2        0.0000 
     37 N          47.1830  144.3970   94.5040 N.am      5 SEL2        0.0000 
     38 N          48.6530  144.6790   96.9930 N.am      3 SEP2        0.0000 
     39 CA         45.4755  145.1350   88.8205 C.3       2 GLC5        0.0000 
     40 CA         44.4270  146.0070   89.6870 C.3       6 GLL5        0.0000 
     41 CA         44.0675  146.2365   91.6990 C.3       2 GLC5        0.0000 
     42 CA         43.7080  146.4660   93.7110 C.3       4 GLP5        0.0000 
     43 CA         42.9850  146.2155   88.9910 C.3       2 GLC5        0.0000 
     44 CA         41.5430  146.4240   88.2950 C.3       4 GLP5        0.0000 
     45 CA         45.6690  147.7100   89.8100 C.3       2 GLC5        0.0000 
     46 CA         46.9110  149.4130   89.9330 C.3       4 GLP5        0.0000 
     47 CA         44.7095  147.2205   88.2550 C.3       2 GLC5        0.0000 
     48 CA         44.9920  148.4340   86.8230 C.3       4 GLP5        0.0000 
     49 CA         47.0135  140.5050   88.6895 C.3       2 GLC5        0.0000 
     50 CA         48.8730  140.1760   88.6900 C.3       6 GLL5        0.0000 
     51 CA         45.1540  140.8340   88.6890 C.3       4 GLP5        0.0000 
     52 CA         48.5595  139.7345   90.4365 C.3       2 GLC5        0.0000 
     53 CA         48.2460  139.2930   92.1830 C.3       4 GLP5        0.0000 
     54 CA         51.7555  137.5195   90.1225 C.3       2 GLC5        0.0000 
     55 CA         51.8670  138.5990   89.0570 C.3       6 GLL5        0.0000 
     56 CA         51.6440  136.4400   91.1880 C.3       4 GLP5        0.0000 
     57 CA         51.1055  138.6002   90.5230 C.3       2 GLC5        0.0000 
     58 CA         49.5550  138.8490   92.2550 C.3       4 GLP5        0.0000 
     59 CA         51.5023  141.9006   92.2449 C.3       2 GLC5        0.0000 
     60 CA         50.6730  143.1500   90.3060 C.3       6 GLL5        0.0000 
     61 CA         51.8380  144.5049   89.3116 C.3       2 GLC5        0.0000 
     62 CA         51.9870  142.6750   90.5570 C.3       6 GLL5        0.0000 
     63 CA         51.4910  145.7900   87.8140 C.3       4 GLP5        0.0000 
     64 CA         47.5388  147.7600   90.9428 C.3       2 GLC5        0.0000 
     65 CA         48.7580  145.9850   91.5710 C.3       6 GLL5        0.0000 
     66 CA         47.0420  149.3020   94.1937 C.3       2 GLC5        0.0000 
     67 CA         47.4150  147.4420   93.0820 C.3       6 GLL5        0.0000 
     68 CA         46.1560  150.6740   95.3120 C.3       4 GLP5        0.0000 
     69 CA         47.4195  148.6715   91.5042 C.3       2 GLC5        0.0000 
     70 CA         48.4410  148.4180   93.0690 C.3       6 GLL5        0.0000 
     71 CA         48.8645  147.0280   94.2613 C.3       2 GLC5        0.0000 
     72 CA         49.8010  146.1260   95.4470 C.3       4 GLP5        0.0000 
     73 CA         49.5100  150.1025   92.3935 C.3       2 GLC5        0.0000 
     74 CA         49.9930  151.9090   92.0970 C.3       4 GLP5        0.0000 
     75 CA         50.3455  148.8870   94.1270 C.3       2 GLC5        0.0000 
     76 CA         51.6640  149.4780   95.5640 C.3       4 GLP5        0.0000 
     77 CA         48.3053  148.4973   90.9370 C.3       2 GLC5        0.0000 
     78 CA         49.6565  146.0507   89.5178 C.3       2 GLC5        0.0000 
     79 CA         49.7860  146.9890   91.5710 C.3       6 GLL5        0.0000 
     80 CA         49.7049  145.7264   93.1058 C.3       2 GLC5        0.0000 
     81 CA         50.4110  145.0630   94.5480 C.3       4 GLP5        0.0000 
@<TRIPOS>BOND
@<TRIPOS>SUBSTRUCTURE
     1 SEC2       36 GROUP        1 X    SEC  0     ROOT SEC X 2
     2 GLC5        1 GROUP        1 X    GLC  0     **** GLC X 6
     3 SEP2       38 GROUP        1 Y    SEP  0     ROOT SEP Y 9
     4 GLP5        3 GROUP        1 Y    GLP  0     **** GLP Y 13
     5 SEL2       37 GROUP        1 Z    SEL  0     ROOT SEL Z 16
     6 GLL5        2 GROUP        1 Z    GLL  0     **** GLL Z 20
@<TRIPOS>SET

