#    Name: 3l72_IKR_2_ligand
#    Modification time : Mon Mar 24 21:05:57 2014

@<TRIPOS>MOLECULE
3l72_IKR_2_ligand
   45    46     1     0     0
SMALL
NO_CHARGES


@<TRIPOS>ATOM
      1 C1         51.3560  140.5130   89.5920 C.ar      1 IKR3001     0.0000 
      2 C2         50.0460  140.9760   89.3450 C.ar      1 IKR3001     0.0000 
      3 C3         49.6990  142.2930   89.6980 C.ar      1 IKR3001     0.0000 
      4 C4         50.6730  143.1500   90.3060 C.ar      1 IKR3001     0.0000 
      5 C5         51.9870  142.6750   90.5570 C.ar      1 IKR3001     0.0000 
      6 C6         52.3110  141.3540   90.1940 C.ar      1 IKR3001     0.0000 
      7 C11        53.0400  143.5270   91.1870 C.3       1 IKR3001     0.0000 
      8 O15        50.3380  144.4490   90.6400 O.3       1 IKR3001     0.0000 
      9 C16        48.9380  144.7190   90.7850 C.3       1 IKR3001     0.0000 
     10 C17        48.7580  145.9850   91.5710 C.ar      1 IKR3001     0.0000 
     11 C20        47.5750  146.2290   92.3340 C.ar      1 IKR3001     0.0000 
     12 C21        47.4150  147.4420   93.0820 C.ar      1 IKR3001     0.0000 
     13 C22        48.4410  148.4180   93.0690 C.ar      1 IKR3001     0.0000 
     14 C23        49.6130  148.1740   92.3110 C.ar      1 IKR3001     0.0000 
     15 C24        49.7860  146.9890   91.5710 C.ar      1 IKR3001     0.0000 
     16 C29        46.4500  145.2600   92.3970 C.2       1 IKR3001     0.0000 
     17 C30        46.4450  144.2770   93.5490 C.2       1 IKR3001     0.0000 
     18 O31        45.5130  143.3250   93.3170 O.3       1 IKR3001     0.0000 
     19 C32        45.3900  142.3280   94.3380 C.3       1 IKR3001     0.0000 
     20 O36        47.1830  144.3970   94.5040 O.2       1 IKR3001     0.0000 
     21 N37        45.4570  145.1870   91.5610 N.2       1 IKR3001     0.0000 
     22 O38        45.5480  146.1450   90.5370 O.3       1 IKR3001     0.0000 
     23 C39        44.4270  146.0070   89.6870 C.3       1 IKR3001     0.0000 
     24 C40        48.8730  140.1760   88.6900 C.3       1 IKR3001     0.0000 
     25 I1         51.8670  138.5990   89.0570 I         1 IKR3001     0.0000 
     26 H          48.7602  142.6473   89.5264 H         1 IKR3001     0.0000 
     27 H          53.2605  140.9977   90.3714 H         1 IKR3001     0.0000 
     28 H          48.4285  143.9052   91.3135 H         1 IKR3001     0.0000 
     29 H          48.4534  144.8424   89.8098 H         1 IKR3001     0.0000 
     30 H          46.5652  147.5932   93.6171 H         1 IKR3001     0.0000 
     31 H          48.3389  149.2782   93.5938 H         1 IKR3001     0.0000 
     32 H          50.3602  148.8891   92.3037 H         1 IKR3001     0.0000 
     33 H          50.6347  146.8312   91.0317 H         1 IKR3001     0.0000 
     34 H          53.9029  143.0330   91.2934 H         1 IKR3001     0.0000 
     35 H          53.2342  144.3419   90.6409 H         1 IKR3001     0.0000 
     36 H          52.7682  143.8415   92.0965 H         1 IKR3001     0.0000 
     37 H          46.2443  141.8257   94.4714 H         1 IKR3001     0.0000 
     38 H          45.1447  142.7287   95.2208 H         1 IKR3001     0.0000 
     39 H          44.6853  141.6541   94.1161 H         1 IKR3001     0.0000 
     40 H          44.4472  146.6666   88.9357 H         1 IKR3001     0.0000 
     41 H          44.3822  145.0963   89.2764 H         1 IKR3001     0.0000 
     42 H          43.5681  146.1493   90.1790 H         1 IKR3001     0.0000 
     43 H          49.1008  139.8739   87.7643 H         1 IKR3001     0.0000 
     44 H          48.6417  139.3580   89.2167 H         1 IKR3001     0.0000 
     45 H          48.0406  140.7260   88.6223 H         1 IKR3001     0.0000 
@<TRIPOS>BOND
     1    2    1 ar   
     2    6    1 ar   
     3   25    1 1    
     4    3    2 ar   
     5   24    2 1    
     6    4    3 ar   
     7   26    3 1    
     8    5    4 ar   
     9    8    4 1    
    10    6    5 ar   
    11    7    5 1    
    12   27    6 1    
    13   34    7 1    
    14   35    7 1    
    15   36    7 1    
    16    9    8 1    
    17   10    9 1    
    18   28    9 1    
    19   29    9 1    
    20   11   10 ar   
    21   15   10 ar   
    22   12   11 ar   
    23   16   11 1    
    24   13   12 ar   
    25   30   12 1    
    26   14   13 ar   
    27   31   13 1    
    28   15   14 ar   
    29   32   14 1    
    30   33   15 1    
    31   17   16 1    
    32   21   16 2    
    33   18   17 1    
    34   20   17 2    
    35   19   18 1    
    36   37   19 1    
    37   38   19 1    
    38   39   19 1    
    39   22   21 1    
    40   23   22 1    
    41   40   23 1    
    42   41   23 1    
    43   42   23 1    
    44   43   24 1    
    45   44   24 1    
    46   45   24 1    
@<TRIPOS>SUBSTRUCTURE
     1 IKR3001     1 GROUP   
@<TRIPOS>SET

