#    Name: 2G9Z_1_CAVITY_N1_ALL.mol2
#    Modification time : Mon Mar 10 14:14:21 2014

@<TRIPOS>MOLECULE
2G9Z_1_CAVITY_N1_ALL.mol2
  111     0     6     0     0
SMALL
NO_CHARGES


@<TRIPOS>ATOM
      1 OD1        25.5615   47.3173   27.1637 O.3       3 ASP3        0.0000 
      2 NZ         33.0778   47.4370   25.7527 N.2       4 LYS4        0.0000 
      3 CA         33.7791   46.7110   24.6431 C.3       5 GLY6        0.0000 
      4 NZ         31.7589   47.1846   25.0842 N.2       4 LYS4        0.0000 
      5 NZ         32.4603   46.4587   23.9746 N.2       4 LYS4        0.0000 
      6 OD1        29.0375   48.3842   26.6349 O.3       3 ASP3        0.0000 
      7 OD1        29.7388   47.6583   25.5253 O.3       3 ASP3        0.0000 
      8 OD1        30.4401   46.9323   24.4157 O.3       3 ASP3        0.0000 
      9 CA         27.0173   48.8578   27.0760 C.3       5 GLY6        0.0000 
     10 OD1        27.7186   48.1319   25.9664 O.3       3 ASP3        0.0000 
     11 OD1        28.4199   47.4059   24.8568 O.3       3 ASP3        0.0000 
     12 O          29.1212   46.6800   23.7472 O.2       2 ALA2        0.0000 
     13 CA         25.6984   48.6055   26.4075 C.3       5 GLY6        0.0000 
     14 OG         32.5134   49.4511   26.1060 O.2       1 SER1        0.0000 
     15 CA         33.2147   48.7251   24.9964 C.3       5 GLY6        0.0000 
     16 CA         33.9160   47.9992   23.8869 C.3       5 GLY6        0.0000 
     17 DU         34.6173   47.2733   22.7773 H         6 CUB7        0.0000 
     18 NZ         30.4932   49.9247   26.5471 N.2       4 LYS4        0.0000 
     19 OD1        31.1945   49.1987   25.4375 O.3       3 ASP3        0.0000 
     20 DU         31.8958   48.4728   24.3279 H         6 CUB7        0.0000 
     21 DU         32.5971   47.7469   23.2184 H         6 CUB7        0.0000 
     22 DU         33.2984   47.0209   22.1088 H         6 CUB7        0.0000 
     23 NZ         28.4730   50.3983   26.9882 N.2       4 LYS4        0.0000 
     24 NZ         29.1743   49.6724   25.8786 N.2       4 LYS4        0.0000 
     25 DU         29.8756   48.9464   24.7690 H         6 CUB7        0.0000 
     26 O          30.5769   48.2205   23.6594 O.2       2 ALA2        0.0000 
     27 O          31.2782   47.4945   22.5499 O.2       2 ALA2        0.0000 
     28 CA         27.1542   50.1460   26.3197 C.3       5 GLY6        0.0000 
     29 OG         27.8555   49.4200   25.2101 O.2       1 SER1        0.0000 
     30 OG         28.5568   48.6941   24.1005 O.2       1 SER1        0.0000 
     31 O          29.2581   47.9682   22.9909 O.2       2 ALA2        0.0000 
     32 CA         33.2678   51.7175   27.1279 C.3       5 GLY6        0.0000 
     33 O          33.9691   50.9916   26.0183 O.2       2 ALA2        0.0000 
     34 CA         30.5463   52.9170   28.6785 C.3       5 GLY6        0.0000 
     35 NZ         31.2477   52.1911   27.5690 N.2       4 LYS4        0.0000 
     36 NZ         31.9490   51.4652   26.4594 N.2       4 LYS4        0.0000 
     37 O          32.6503   50.7392   25.3498 O.2       2 ALA2        0.0000 
     38 O          33.3516   50.0133   24.2402 O.2       2 ALA2        0.0000 
     39 O          34.0529   49.2874   23.1306 O.2       2 ALA2        0.0000 
     40 DU         34.7542   48.5614   22.0210 H         6 CUB7        0.0000 
     41 CA         29.2275   52.6647   28.0100 C.3       5 GLY6        0.0000 
     42 NZ         29.9288   51.9388   26.9005 N.2       4 LYS4        0.0000 
     43 NZ         30.6301   51.2128   25.7909 N.2       4 LYS4        0.0000 
     44 DU         31.3314   50.4869   24.6813 H         6 CUB7        0.0000 
     45 O          32.0327   49.7610   23.5717 O.2       2 ALA2        0.0000 
     46 O          32.7340   49.0350   22.4621 O.2       2 ALA2        0.0000 
     47 DU         33.4353   48.3091   21.3525 H         6 CUB7        0.0000 
     48 O          27.9086   52.4124   27.3415 O.2       2 ALA2        0.0000 
     49 NZ         28.6099   51.6864   26.2320 N.2       4 LYS4        0.0000 
     50 DU         29.3112   50.9605   25.1224 H         6 CUB7        0.0000 
     51 O          30.0125   50.2346   24.0128 O.2       2 ALA2        0.0000 
     52 O          30.7138   49.5086   22.9032 O.2       2 ALA2        0.0000 
     53 CA         26.5897   52.1601   26.6730 C.3       5 GLY6        0.0000 
     54 CA         27.2910   51.4341   25.5635 C.3       5 GLY6        0.0000 
     55 OG         27.9923   50.7082   24.4539 O.2       1 SER1        0.0000 
     56 O          28.6936   49.9822   23.3443 O.2       2 ALA2        0.0000 
     57 CA         25.9721   51.1818   24.8949 C.3       5 GLY6        0.0000 
     58 O          32.7034   53.7316   27.4812 O.2       2 ALA2        0.0000 
     59 CA         30.6832   54.2052   27.9223 C.3       5 GLY6        0.0000 
     60 O          31.3845   53.4793   26.8127 O.2       2 ALA2        0.0000 
     61 CA         32.0858   52.7533   25.7031 C.3       5 GLY6        0.0000 
     62 CA         32.7871   52.0274   24.5935 C.3       5 GLY6        0.0000 
     63 O          33.4884   51.3014   23.4839 O.2       2 ALA2        0.0000 
     64 O          34.1897   50.5755   22.3743 O.2       2 ALA2        0.0000 
     65 DU         34.8911   49.8496   21.2648 H         6 CUB7        0.0000 
     66 CA         29.3643   53.9529   27.2538 C.3       5 GLY6        0.0000 
     67 N          30.0657   53.2269   26.1442 N.2       2 ALA2        0.0000 
     68 DU         30.7670   52.5010   25.0346 H         6 CUB7        0.0000 
     69 DU         31.4683   51.7751   23.9250 H         6 CUB7        0.0000 
     70 DU         32.1696   51.0491   22.8154 H         6 CUB7        0.0000 
     71 O          32.8709   50.3232   21.7058 O.2       2 ALA2        0.0000 
     72 NZ         33.5722   49.5972   20.5963 N.2       4 LYS4        0.0000 
     73 CA         28.0455   53.7005   26.5853 C.3       5 GLY6        0.0000 
     74 CA         28.7468   52.9746   25.4757 C.3       5 GLY6        0.0000 
     75 O          29.4481   52.2487   24.3661 O.2       2 ALA2        0.0000 
     76 O          30.1494   51.5227   23.2565 O.2       2 ALA2        0.0000 
     77 O          30.8507   50.7968   22.1469 O.2       2 ALA2        0.0000 
     78 NZ         32.2533   49.3449   19.9278 N.2       4 LYS4        0.0000 
     79 O          26.7266   53.4482   25.9168 O.2       2 ALA2        0.0000 
     80 CA         27.4279   52.7223   24.8072 C.3       5 GLY6        0.0000 
     81 CA         28.1292   51.9963   23.6976 C.3       5 GLY6        0.0000 
     82 O          28.8305   51.2704   22.5880 O.2       2 ALA2        0.0000 
     83 O          26.1090   52.4699   24.1387 O.2       2 ALA2        0.0000 
     84 O          26.8103   51.7440   23.0291 O.2       2 ALA2        0.0000 
     85 O          35.6455   52.1160   22.2866 O.2       2 ALA2        0.0000 
     86 O          31.5214   54.7674   26.0564 O.2       2 ALA2        0.0000 
     87 CA         32.2227   54.0415   24.9469 C.3       5 GLY6        0.0000 
     88 CA         32.9240   53.3155   23.8373 C.3       5 GLY6        0.0000 
     89 N          33.6253   52.5896   22.7277 N.2       2 ALA2        0.0000 
     90 O          34.3266   51.8637   21.6181 O.2       2 ALA2        0.0000 
     91 DU         35.0279   51.1377   20.5085 H         6 CUB7        0.0000 
     92 N          30.2025   54.5151   25.3879 N.2       2 ALA2        0.0000 
     93 N          30.9038   53.7891   24.2784 N.2       2 ALA2        0.0000 
     94 O          31.6051   53.0632   23.1688 O.2       2 ALA2        0.0000 
     95 O          32.3064   52.3373   22.0592 O.2       2 ALA2        0.0000 
     96 DU         33.0077   51.6113   20.9496 H         6 CUB7        0.0000 
     97 NZ         33.7091   50.8854   19.8400 N.2       4 LYS4        0.0000 
     98 NZ         34.4104   50.1595   18.7304 N.2       4 LYS4        0.0000 
     99 CA         28.1823   54.9887   25.8290 C.3       5 GLY6        0.0000 
    100 O          30.9876   52.0849   21.3907 O.2       2 ALA2        0.0000 
    101 O          31.6889   51.3590   20.2811 O.2       2 ALA2        0.0000 
    102 N          35.7824   53.4041   21.5303 N.2       2 ALA2        0.0000 
    103 N          33.7622   53.8778   21.9714 N.2       2 ALA2        0.0000 
    104 N          34.4635   53.1518   20.8618 N.2       2 ALA2        0.0000 
    105 DU         35.1648   52.4259   19.7523 H         6 CUB7        0.0000 
    106 O          32.4433   53.6254   21.3029 O.2       2 ALA2        0.0000 
    107 O          33.1446   52.8995   20.1933 O.2       2 ALA2        0.0000 
    108 NZ         33.8459   52.1736   19.0838 N.2       4 LYS4        0.0000 
    109 NZ         32.5270   51.9212   18.4152 N.2       4 LYS4        0.0000 
    110 O          33.2815   54.1877   19.4371 O.2       2 ALA2        0.0000 
    111 N          33.9828   53.4617   18.3275 N.2       2 ALA2        0.0000 
@<TRIPOS>BOND
@<TRIPOS>SUBSTRUCTURE
     1 SER1       14 GROUP   
     2 ALA2       12 GROUP   
     3 ASP3        1 GROUP   
     4 LYS4        2 GROUP   
     5 GLY6        3 GROUP   
     6 CUB7       17 GROUP   
@<TRIPOS>SET

