#    Name: 2g9z_VNP_1_INTS_M
#    Modification time : Tue Mar 25 13:49:52 2014

@<TRIPOS>MOLECULE
2g9z_VNP_1_INTS_M
   86     0    15     0     0
SMALL
NO_CHARGES


@<TRIPOS>ATOM
      1 NZ         28.1045   45.1195   24.1815 N.4       3 LYC4        0.0000 
      2 NZ         28.7410   46.0530   24.8260 N.4      13 LYL4        0.0000 
      3 NZ         27.4050   44.0630   22.2190 N.4       8 LYP4        0.0000 
      4 Zn         28.9485   45.8090   25.8165 Zn        4 ZIC7        0.0000 
      5 Zn         28.7410   46.0530   24.8260 Zn       14 ZIL7        0.0000 
      6 Zn         29.1560   45.5650   26.8070 Zn        9 ZIP7        0.0000 
      7 N          28.1045   45.1195   24.1815 N.am      2 SEC2        0.0000 
      8 N          28.7410   46.0530   24.8260 N.am     12 SEL2        0.0000 
      9 N          27.4680   44.1860   23.5370 N.am      7 SEP2        0.0000 
     10 NZ         27.8735   48.6375   21.9035 N.4       3 LYC4        0.0000 
     11 NZ         28.5680   47.5050   22.7440 N.4      13 LYL4        0.0000 
     12 NZ         28.2520   49.7330   20.2900 N.4       8 LYP4        0.0000 
     13 NZ         28.2190   46.2700   22.0960 N.4       3 LYC4        0.0000 
     14 N          28.9545   48.2980   21.7210 N.am      2 SEC2        0.0000 
     15 N          28.5680   47.5050   22.7440 N.am     12 SEL2        0.0000 
     16 N          29.3410   49.0910   20.6980 N.am      7 SEP2        0.0000 
     17 N          27.8735   48.6375   21.9035 N.am      2 SEC2        0.0000 
     18 N          27.1790   49.7700   21.0630 N.am      7 SEP2        0.0000 
     19 N          27.0765   48.0370   22.9215 N.am      2 SEC2        0.0000 
     20 N          25.5850   48.5690   23.0990 N.am      7 SEP2        0.0000 
     21 N          28.2190   46.2700   22.0960 N.am      2 SEC2        0.0000 
     22 N          27.8700   45.0350   21.4480 N.am      7 SEP2        0.0000 
     23 N          27.0135   50.0700   28.4245 N.am      2 SEC2        0.0000 
     24 N          27.5110   49.3870   27.3410 N.am     12 SEL2        0.0000 
     25 N          26.5160   50.7530   29.5080 N.am      7 SEP2        0.0000 
     26 Zn         30.2595   47.7845   27.8005 Zn        4 ZIC7        0.0000 
     27 Zn         29.4090   47.7370   27.0770 Zn       14 ZIL7        0.0000 
     28 Zn         31.1100   47.8320   28.5240 Zn        9 ZIP7        0.0000 
     29 Zn         29.2825   46.6510   26.9420 Zn        4 ZIC7        0.0000 
     30 Zn         28.1040   46.2840   26.7295 Zn        4 ZIC7        0.0000 
     31 Zn         27.0520   47.0030   26.6520 Zn       14 ZIL7        0.0000 
     32 CA         23.3390   42.4870   23.9240 C.3       5 GLC5        0.0000 
     33 CA         24.0490   43.8200   24.9950 C.3      15 GLL5        0.0000 
     34 CA         22.6290   41.1540   22.8530 C.3      10 GLP5        0.0000 
     35 CA         24.4125   45.6240   23.9255 C.3       5 GLC5        0.0000 
     36 CA         24.7760   47.4280   22.8560 C.3      10 GLP5        0.0000 
     37 CA         21.8380   47.8525   28.0825 C.3       5 GLC5        0.0000 
     38 CA         22.4580   47.3380   26.2180 C.3      15 GLL5        0.0000 
     39 CA         21.2180   48.3670   29.9470 C.3      10 GLP5        0.0000 
     40 CA         23.4445   48.6265   27.3950 C.3       5 GLC5        0.0000 
     41 CA         24.4310   49.9150   28.5720 C.3      10 GLP5        0.0000 
     42 CA         20.5225   45.7885   26.9230 C.3       5 GLC5        0.0000 
     43 CA         21.4340   46.4530   25.1100 C.3      15 GLL5        0.0000 
     44 CA         19.6110   45.1240   28.7360 C.3      10 GLP5        0.0000 
     45 CA         21.5710   42.9655   22.8035 C.3       5 GLC5        0.0000 
     46 CA         21.6160   44.5440   23.5690 C.3      15 GLL5        0.0000 
     47 CA         21.5260   41.3870   22.0380 C.3      10 GLP5        0.0000 
     48 CA         23.1960   45.9860   23.2125 C.3       5 GLC5        0.0000 
     49 CA         18.8450   46.9560   21.1570 C.3       5 GLC5        0.0000 
     50 CA         19.7950   45.2590   22.0420 C.3      15 GLL5        0.0000 
     51 CA         17.8950   48.6530   20.2720 C.3      10 GLP5        0.0000 
     52 N          18.4590   45.9070   20.4365 N.am      2 SEC2        0.0000 
     53 N          18.5400   45.3160   21.6320 N.am     12 SEL2        0.0000 
     54 N          18.3780   46.4980   19.2410 N.am      7 SEP2        0.0000 
     55 CA         16.5725   42.8855   22.8455 C.3       5 GLC5        0.0000 
     56 CA         17.5480   44.8180   22.3800 C.3      15 GLL5        0.0000 
     57 CA         15.5970   40.9530   23.3110 C.3      10 GLP5        0.0000 
     58 CA         18.3035   43.0225   21.9480 C.3       5 GLC5        0.0000 
     59 CA         19.0590   41.2270   21.5160 C.3      10 GLP5        0.0000 
     60 CA         14.8430   43.6560   22.5885 C.3       5 GLC5        0.0000 
     61 CA         16.1090   44.8700   21.8620 C.3      15 GLL5        0.0000 
     62 CA         13.5770   42.4420   23.3150 C.3      10 GLP5        0.0000 
     63 CA         15.1160   44.1705   20.3780 C.3       5 GLC5        0.0000 
     64 CA         14.1230   43.4710   18.8940 C.3      10 GLP5        0.0000 
     65 CA         14.8145   46.0520   22.2310 C.3       5 GLC5        0.0000 
     66 CA         13.5200   47.2340   22.6000 C.3      10 GLP5        0.0000 
     67 O          20.2930   43.6890   26.1355 O.2       1 ALC1        0.0000 
     68 O          19.2940   43.6250   25.2140 O.2      11 ALL1        0.0000 
     69 O          21.2920   43.7530   27.0570 O.2       6 ALP1        0.0000 
     70 CA         24.8675   48.2403   27.5862 C.3       5 GLC5        0.0000 
     71 CA         24.9110   46.0490   27.0060 C.3      15 GLL5        0.0000 
     72 CA         25.0400   46.9967   24.7283 C.3       5 GLC5        0.0000 
     73 CA         25.6970   47.0820   26.1950 C.3      15 GLL5        0.0000 
     74 CA         23.3545   44.3440   27.8233 C.3       5 GLC5        0.0000 
     75 CA         22.5350   42.7350   28.8250 C.3      10 GLP5        0.0000 
     76 CA         21.2793   45.8607   27.5817 C.3       5 GLC5        0.0000 
     77 CA         23.4370   45.8570   26.6370 C.3      15 GLL5        0.0000 
     78 CA         24.0337   46.4237   24.4413 C.3       5 GLC5        0.0000 
     79 CA         23.0663   43.5680   27.0153 C.3       5 GLC5        0.0000 
     80 CA         23.1460   44.9820   25.4160 C.3      15 GLL5        0.0000 
     81 CA         23.3610   47.1617   24.2600 C.3       5 GLC5        0.0000 
     82 CA         21.4735   44.7429   21.1336 C.3       5 GLC5        0.0000 
     83 CA         22.6150   44.5510   19.5390 C.3      10 GLP5        0.0000 
     84 CA         17.1358   46.2050   20.7050 C.3       5 GLC5        0.0000 
     85 CA         17.4430   47.5660   19.2890 C.3      10 GLP5        0.0000 
     86 CA         19.2871   42.8995   22.4270 C.3       5 GLC5        0.0000 
@<TRIPOS>BOND
@<TRIPOS>SUBSTRUCTURE
     1 ALC1       67 GROUP        1 X    ALC  0     ROOT ALC X 1
     2 SEC2        7 GROUP        1 X    SEC  0     **** SEC X 2
     3 LYC4        1 GROUP        1 X    LYC  0     **** LYC X 4
     4 ZIC7        4 GROUP        1 X    ZIC  0     **** ZIC X 5
     5 GLC5       32 GROUP        1 X    GLC  0     **** GLC X 6
     6 ALP1       69 GROUP        1 Y    ALP  0     ROOT ALP Y 8
     7 SEP2        9 GROUP        1 Y    SEP  0     **** SEP Y 9
     8 LYP4        3 GROUP        1 Y    LYP  0     **** LYP Y 11
     9 ZIP7        6 GROUP        1 Y    ZIP  0     **** ZIP Y 12
    10 GLP5       34 GROUP        1 Y    GLP  0     **** GLP Y 13
    11 ALL1       68 GROUP        1 Z    ALL  0     ROOT ALL Z 15
    12 SEL2        8 GROUP        1 Z    SEL  0     **** SEL Z 16
    13 LYL4        2 GROUP        1 Z    LYL  0     **** LYL Z 18
    14 ZIL7        5 GROUP        1 Z    ZIL  0     **** ZIL Z 19
    15 GLL5       33 GROUP        1 Z    GLL  0     **** GLL Z 20
@<TRIPOS>SET

