#    Name: 2g9z_VNP_1_ligand
#    Modification time : Tue Mar 25 13:49:52 2014

@<TRIPOS>MOLECULE
2g9z_VNP_1_ligand
   42    43     1     0     0
SMALL
NO_CHARGES


@<TRIPOS>ATOM
      1 O2G        28.7410   46.0530   24.8260 O.co2     1 VNP602      0.0000 
      2 PG         28.9970   47.4940   24.1610 P.3       1 VNP602      0.0000 
      3 O3G        28.5680   47.5050   22.7440 O.co2     1 VNP602      0.0000 
      4 O1G        30.5740   47.7780   24.3110 O.co2     1 VNP602      0.0000 
      5 N3B        28.2170   48.6110   25.0470 N.3       1 VNP602      0.0000 
      6 PB         28.0920   48.2340   26.6200 P.3       1 VNP602      0.0000 
      7 O2B        27.5110   49.3870   27.3410 O.co2     1 VNP602      0.0000 
      8 O1B        29.4090   47.7370   27.0770 O.co2     1 VNP602      0.0000 
      9 O1         27.0520   47.0030   26.6520 O.3       1 VNP602      0.0000 
     10 C7         25.6970   47.0820   26.1950 C.3       1 VNP602      0.0000 
     11 C12        24.9110   46.0490   27.0060 C.3       1 VNP602      0.0000 
     12 C11        23.4370   45.8570   26.6370 C.2       1 VNP602      0.0000 
     13 C10        23.1460   44.9820   25.4160 C.2       1 VNP602      0.0000 
     14 CM4        24.0490   43.8200   24.9950 C.3       1 VNP602      0.0000 
     15 S1         22.4580   47.3380   26.2180 S.3       1 VNP602      0.0000 
     16 C9         21.4340   46.4530   25.1100 C.2       1 VNP602      0.0000 
     17 N5         22.0490   45.3300   24.7360 N.pl3     1 VNP602      0.0000 
     18 C7A        21.6160   44.5440   23.5690 C.3       1 VNP602      0.0000 
     19 C5A        20.1220   44.6770   23.2600 C.ar      1 VNP602      0.0000 
     20 C6A        19.7950   45.2590   22.0420 C.ar      1 VNP602      0.0000 
     21 N1A        18.5400   45.3160   21.6320 N.ar      1 VNP602      0.0000 
     22 C2A        17.5480   44.8180   22.3800 C.ar      1 VNP602      0.0000 
     23 CM2        16.1090   44.8700   21.8620 C.3       1 VNP602      0.0000 
     24 N3A        17.8140   44.2570   23.5690 N.ar      1 VNP602      0.0000 
     25 C4A        19.0720   44.1760   24.0250 C.ar      1 VNP602      0.0000 
     26 N4A        19.2940   43.6250   25.2140 N.pl3     1 VNP602      0.0000 
     27 H          25.6054   46.8268   25.1484 H         1 VNP602      0.0000 
     28 H          25.2619   48.0545   26.3791 H         1 VNP602      0.0000 
     29 H          24.9730   46.3232   28.0845 H         1 VNP602      0.0000 
     30 H          25.4277   45.0650   26.9226 H         1 VNP602      0.0000 
     31 H          20.6374   46.8819   24.9501 H         1 VNP602      0.0000 
     32 H          21.8383   43.4710   23.7245 H         1 VNP602      0.0000 
     33 H          22.1798   44.8518   22.6677 H         1 VNP602      0.0000 
     34 H          20.5746   45.6493   21.4627 H         1 VNP602      0.0000 
     35 H          20.0431   44.0174   25.7478 H         1 VNP602      0.0000 
     36 H          18.6919   42.8678   25.4674 H         1 VNP602      0.0000 
     37 H          24.9795   44.1265   24.7947 H         1 VNP602      0.0000 
     38 H          24.1171   43.1245   25.7103 H         1 VNP602      0.0000 
     39 H          23.7077   43.3631   24.1736 H         1 VNP602      0.0000 
     40 H          15.8070   45.8091   21.6982 H         1 VNP602      0.0000 
     41 H          16.0066   44.3745   20.9994 H         1 VNP602      0.0000 
     42 H          15.4657   44.4643   22.5112 H         1 VNP602      0.0000 
@<TRIPOS>BOND
     1    2    1 ar   
     2    3    2 ar   
     3    4    2 ar   
     4    5    2 1    
     5    6    5 1    
     6    7    6 ar   
     7    8    6 ar   
     8    9    6 1    
     9   10    9 1    
    10   11   10 1    
    11   27   10 1    
    12   28   10 1    
    13   12   11 1    
    14   29   11 1    
    15   30   11 1    
    16   13   12 2    
    17   15   12 1    
    18   14   13 1    
    19   17   13 1    
    20   37   14 1    
    21   38   14 1    
    22   39   14 1    
    23   16   15 1    
    24   17   16 2    
    25   31   16 1    
    26   18   17 1    
    27   19   18 1    
    28   32   18 1    
    29   33   18 1    
    30   20   19 ar   
    31   25   19 ar   
    32   21   20 ar   
    33   34   20 1    
    34   22   21 ar   
    35   23   22 1    
    36   24   22 ar   
    37   40   23 1    
    38   41   23 1    
    39   42   23 1    
    40   25   24 ar   
    41   26   25 1    
    42   35   26 1    
    43   36   26 1    
@<TRIPOS>SUBSTRUCTURE
     1 VNP602      1 GROUP   
@<TRIPOS>SET

