#    Name: 1aqu_EST_1_INTS_M
#    Modification time : Mon Mar 24 18:48:57 2014

@<TRIPOS>MOLECULE
1aqu_EST_1_INTS_M
   49     0     9     0     0
SMALL
NO_CHARGES


@<TRIPOS>ATOM
      1 CA         11.9540   18.6685   58.9815 C.3       3 GLC5        0.0000 
      2 CA         10.7880   20.3160   58.1740 C.3       9 GLL5        0.0000 
      3 CA         13.1200   17.0210   59.7890 C.3       6 GLP5        0.0000 
      4 N          12.3805   19.0695   59.2565 N.am      2 SEC2        0.0000 
      5 N          11.2660   19.8510   59.3850 N.am      8 SEL2        0.0000 
      6 N          13.4950   18.2880   59.1280 N.am      5 SEP2        0.0000 
      7 O          10.5975   19.0555   60.3560 O.2       1 ALC1        0.0000 
      8 O          11.2660   19.8510   59.3850 O.2       7 ALL1        0.0000 
      9 O           9.9290   18.2600   61.3270 O.2       4 ALP1        0.0000 
     10 CA          7.5820   23.6670   54.8290 C.3       3 GLC5        0.0000 
     11 CA          6.9230   21.5370   55.0790 C.3       9 GLL5        0.0000 
     12 CA          8.2410   25.7970   54.5790 C.3       6 GLP5        0.0000 
     13 CA          5.0140   22.1030   54.9510 C.3       3 GLC5        0.0000 
     14 CA          3.1050   22.6690   54.8230 C.3       6 GLP5        0.0000 
     15 CA          9.2260   23.0535   56.0770 C.3       3 GLC5        0.0000 
     16 CA          9.3290   21.8020   54.2890 C.3       9 GLL5        0.0000 
     17 CA          9.1230   24.3050   57.8650 C.3       6 GLP5        0.0000 
     18 CA          8.7850   23.7995   54.4340 C.3       3 GLC5        0.0000 
     19 CA         11.4240   23.1635   53.2740 C.3       3 GLC5        0.0000 
     20 CA         10.2990   21.4870   53.1220 C.3       9 GLL5        0.0000 
     21 CA         12.5490   24.8400   53.4260 C.3       6 GLP5        0.0000 
     22 CA         10.6225   23.9515   52.1045 C.3       3 GLC5        0.0000 
     23 CA          9.8320   21.9980   51.7520 C.3       9 GLL5        0.0000 
     24 CA         11.4130   25.9050   52.4570 C.3       6 GLP5        0.0000 
     25 CA          5.9485   19.4500   52.8235 C.3       3 GLC5        0.0000 
     26 CA          6.0920   21.4860   51.9080 C.3       9 GLL5        0.0000 
     27 CA          5.8050   17.4140   53.7390 C.3       6 GLP5        0.0000 
     28 CA          4.5985   22.0775   53.3655 C.3       3 GLC5        0.0000 
     29 CA          9.3275   22.5200   48.6710 C.3       3 GLC5        0.0000 
     30 CA          7.7620   22.1430   50.1870 C.3       9 GLL5        0.0000 
     31 CA         10.8930   22.8970   47.1550 C.3       6 GLP5        0.0000 
     32 O           7.3660   20.8650   47.8760 O.2       1 ALC1        0.0000 
     33 O           8.1070   21.7190   48.8420 O.2       7 ALL1        0.0000 
     34 O           6.6250   20.0110   46.9100 O.2       4 ALP1        0.0000 
     35 CA          9.0880   18.3030   51.8800 C.3       3 GLC5        0.0000 
     36 CA          8.5350   19.8770   51.0940 C.3       9 GLL5        0.0000 
     37 CA          9.6410   16.7290   52.6660 C.3       6 GLP5        0.0000 
     38 CA          9.8275   19.3715   49.6325 C.3       3 GLC5        0.0000 
     39 CA         11.1200   18.8660   48.1710 C.3       6 GLP5        0.0000 
     40 CA          9.4662   18.9327   59.4955 C.3       3 GLC5        0.0000 
     41 CA          9.3830   20.3990   57.9380 C.3       9 GLL5        0.0000 
     42 CA          8.8470   17.5080   60.9350 C.3       6 GLP5        0.0000 
     43 CA          7.4725   22.7065   57.0343 C.3       3 GLC5        0.0000 
     44 CA          7.3650   20.9750   56.4580 C.3       9 GLL5        0.0000 
     45 CA          7.8010   24.1570   58.3000 C.3       6 GLP5        0.0000 
     46 CA          6.6105   19.3957   54.1245 C.3       3 GLC5        0.0000 
     47 CA          6.1802   23.7010   52.6262 C.3       3 GLC5        0.0000 
     48 CA          7.4430   21.8080   52.5450 C.3       9 GLL5        0.0000 
     49 CA          5.5930   25.7550   53.0260 C.3       6 GLP5        0.0000 
@<TRIPOS>BOND
@<TRIPOS>SUBSTRUCTURE
     1 ALC1        7 GROUP        1 X    ALC  0     ROOT ALC X 1
     2 SEC2        4 GROUP        1 X    SEC  0     **** SEC X 2
     3 GLC5        1 GROUP        1 X    GLC  0     **** GLC X 6
     4 ALP1        9 GROUP        1 Y    ALP  0     ROOT ALP Y 8
     5 SEP2        6 GROUP        1 Y    SEP  0     **** SEP Y 9
     6 GLP5        3 GROUP        1 Y    GLP  0     **** GLP Y 13
     7 ALL1        8 GROUP        1 Z    ALL  0     ROOT ALL Z 15
     8 SEL2        5 GROUP        1 Z    SEL  0     **** SEL Z 16
     9 GLL5        2 GROUP        1 Z    GLL  0     **** GLL Z 20
@<TRIPOS>SET

