#    Name: 1aqu_EST_1_ligand
#    Modification time : Mon Mar 24 18:48:57 2014

@<TRIPOS>MOLECULE
1aqu_EST_1_ligand
   44    47     1     0     0
SMALL
NO_CHARGES


@<TRIPOS>ATOM
      1 C1         11.2370   21.1780   55.9420 C.ar      1 EST304      0.0000 
      2 C2         11.7100   20.7040   57.1810 C.ar      1 EST304      0.0000 
      3 C3         10.7880   20.3160   58.1740 C.ar      1 EST304      0.0000 
      4 O3         11.2660   19.8510   59.3850 O.3       1 EST304      0.0000 
      5 C4          9.3830   20.3990   57.9380 C.ar      1 EST304      0.0000 
      6 C5          8.8850   20.8810   56.6850 C.ar      1 EST304      0.0000 
      7 C6          7.3650   20.9750   56.4580 C.3       1 EST304      0.0000 
      8 C7          6.9230   21.5370   55.0790 C.3       1 EST304      0.0000 
      9 C8          7.9090   21.2180   53.9410 C.3       1 EST304      0.0000 
     10 C9          9.3290   21.8020   54.2890 C.3       1 EST304      0.0000 
     11 C10         9.8340   21.2790   55.6570 C.ar      1 EST304      0.0000 
     12 C11        10.2990   21.4870   53.1220 C.3       1 EST304      0.0000 
     13 C12         9.8320   21.9980   51.7520 C.3       1 EST304      0.0000 
     14 C13         8.4560   21.4270   51.3910 C.3       1 EST304      0.0000 
     15 C14         7.4430   21.8080   52.5450 C.3       1 EST304      0.0000 
     16 C15         6.0920   21.4860   51.9080 C.3       1 EST304      0.0000 
     17 C16         6.2250   22.0620   50.4510 C.3       1 EST304      0.0000 
     18 C17         7.7620   22.1430   50.1870 C.3       1 EST304      0.0000 
     19 O17         8.1070   21.7190   48.8420 O.3       1 EST304      0.0000 
     20 C18         8.5350   19.8770   51.0940 C.3       1 EST304      0.0000 
     21 H          11.9074   21.4629   55.2127 H         1 EST304      0.0000 
     22 H          12.7112   20.6418   57.3587 H         1 EST304      0.0000 
     23 H           8.7284   20.1140   58.6643 H         1 EST304      0.0000 
     24 H           6.9241   21.6098   57.2495 H         1 EST304      0.0000 
     25 H           6.9224   19.9687   56.5812 H         1 EST304      0.0000 
     26 H           6.8129   22.6246   55.1644 H         1 EST304      0.0000 
     27 H           5.9403   21.1189   54.8305 H         1 EST304      0.0000 
     28 H           8.0122   20.1548   53.8358 H         1 EST304      0.0000 
     29 H           9.2168   22.8841   54.3490 H         1 EST304      0.0000 
     30 H          10.4394   20.3958   53.0699 H         1 EST304      0.0000 
     31 H          11.2805   21.9292   53.3551 H         1 EST304      0.0000 
     32 H          10.5541   21.6993   50.9944 H         1 EST304      0.0000 
     33 H           9.7739   23.0845   51.7770 H         1 EST304      0.0000 
     34 H           7.5295   22.9228   52.5915 H         1 EST304      0.0000 
     35 H           5.3173   22.0003   52.4052 H         1 EST304      0.0000 
     36 H           5.9516   20.4427   51.8473 H         1 EST304      0.0000 
     37 H           5.8096   23.0327   50.4232 H         1 EST304      0.0000 
     38 H           5.7842   21.3858   49.7698 H         1 EST304      0.0000 
     39 H           7.9978   23.2349   50.3190 H         1 EST304      0.0000 
     40 H           9.1510   19.6757   50.3324 H         1 EST304      0.0000 
     41 H           8.8691   19.3639   51.8846 H         1 EST304      0.0000 
     42 H           7.6406   19.4985   50.8556 H         1 EST304      0.0000 
     43 H          10.5868   19.1846   59.6926 H         1 EST304      0.0000 
     44 H           7.4408   21.0084   48.6159 H         1 EST304      0.0000 
@<TRIPOS>BOND
     1    2    1 ar   
     2   11    1 ar   
     3   21    1 1    
     4    3    2 ar   
     5   22    2 1    
     6    4    3 1    
     7    5    3 ar   
     8   43    4 1    
     9    6    5 ar   
    10   23    5 1    
    11    7    6 1    
    12   11    6 ar   
    13    8    7 1    
    14   24    7 1    
    15   25    7 1    
    16    9    8 1    
    17   26    8 1    
    18   27    8 1    
    19   10    9 1    
    20   15    9 1    
    21   28    9 1    
    22   11   10 1    
    23   12   10 1    
    24   29   10 1    
    25   13   12 1    
    26   30   12 1    
    27   31   12 1    
    28   14   13 1    
    29   32   13 1    
    30   33   13 1    
    31   15   14 1    
    32   18   14 1    
    33   20   14 1    
    34   16   15 1    
    35   34   15 1    
    36   17   16 1    
    37   35   16 1    
    38   36   16 1    
    39   18   17 1    
    40   37   17 1    
    41   38   17 1    
    42   19   18 1    
    43   39   18 1    
    44   44   19 1    
    45   40   20 1    
    46   41   20 1    
    47   42   20 1    
@<TRIPOS>SUBSTRUCTURE
     1 EST304      1 GROUP   
@<TRIPOS>SET

