#    Name: 3r7q_FAV_1_INTS_M
#    Modification time : Tue Mar 25 11:13:01 2014

@<TRIPOS>MOLECULE
3r7q_FAV_1_INTS_M
   69     0     6     0     0
SMALL
NO_CHARGES


@<TRIPOS>ATOM
      1 N          16.9650   58.8340   23.7465 N.am      1 SEC2        0.0000 
      2 N          18.4190   59.6390   23.5710 N.am      5 SEL2        0.0000 
      3 N          15.5110   58.0290   23.9220 N.am      3 SEP2        0.0000 
      4 N          25.3610   60.7235   22.5680 N.am      1 SEC2        0.0000 
      5 N          24.5250   60.0650   21.5540 N.am      5 SEL2        0.0000 
      6 N          26.1970   61.3820   23.5820 N.am      3 SEP2        0.0000 
      7 CA         15.6655   59.4485   24.1075 C.3       2 GLC5        0.0000 
      8 CA         16.4320   60.8670   22.9930 C.3       6 GLL5        0.0000 
      9 CA         14.8990   58.0300   25.2220 C.3       4 GLP5        0.0000 
     10 CA         16.7120   58.9470   22.2120 C.3       2 GLC5        0.0000 
     11 CA         17.7800   60.5830   22.8150 C.3       6 GLL5        0.0000 
     12 CA         15.6440   57.3110   21.6090 C.3       4 GLP5        0.0000 
     13 CA         16.7940   59.6075   24.5340 C.3       2 GLC5        0.0000 
     14 CA         15.8080   58.6320   26.2530 C.3       4 GLP5        0.0000 
     15 CA         17.6195   63.2075   22.6850 C.3       2 GLC5        0.0000 
     16 CA         17.8330   62.2720   21.0520 C.3       6 GLL5        0.0000 
     17 CA         17.4060   64.1430   24.3180 C.3       4 GLP5        0.0000 
     18 CA         20.7025   58.5570   25.2015 C.3       2 GLC5        0.0000 
     19 CA         19.8340   59.6090   23.8160 C.3       6 GLL5        0.0000 
     20 CA         21.5710   57.5050   26.5870 C.3       4 GLP5        0.0000 
     21 CA         18.4140   58.6845   25.0740 C.3       2 GLC5        0.0000 
     22 CA         16.9940   57.7600   26.3320 C.3       4 GLP5        0.0000 
     23 CA         19.7470   60.0990   25.6255 C.3       2 GLC5        0.0000 
     24 CA         19.6600   60.5890   27.4350 C.3       4 GLP5        0.0000 
     25 CA         23.1675   63.6000   21.1000 C.3       2 GLC5        0.0000 
     26 CA         23.4060   63.3200   18.9340 C.3       6 GLL5        0.0000 
     27 CA         22.9290   63.8800   23.2660 C.3       4 GLP5        0.0000 
     28 CA         20.0645   62.9510   16.2865 C.3       2 GLC5        0.0000 
     29 CA         21.9180   63.5470   17.0750 C.3       6 GLL5        0.0000 
     30 CA         18.2110   62.3550   15.4980 C.3       4 GLP5        0.0000 
     31 CA         22.5215   64.9865   15.5590 C.3       2 GLC5        0.0000 
     32 CA         23.1250   66.4260   14.0430 C.3       4 GLP5        0.0000 
     33 CA         20.5580   61.5700   15.8985 C.3       2 GLC5        0.0000 
     34 CA         21.9480   62.1650   16.8980 C.3       6 GLL5        0.0000 
     35 CA         19.1680   60.9750   14.8990 C.3       4 GLP5        0.0000 
     36 CA         26.3880   61.9935   20.6405 C.3       2 GLC5        0.0000 
     37 CA         25.6770   61.1030   19.4190 C.3       6 GLL5        0.0000 
     38 CA         27.0990   62.8840   21.8620 C.3       4 GLP5        0.0000 
     39 CA         21.4790   58.9545   16.6365 C.3       2 GLC5        0.0000 
     40 CA         22.6890   59.6350   17.4680 C.3       6 GLL5        0.0000 
     41 CA         20.2690   58.2740   15.8050 C.3       4 GLP5        0.0000 
     42 CA         24.2375   59.5865   16.2100 C.3       2 GLC5        0.0000 
     43 CA         25.7860   59.5380   14.9520 C.3       4 GLP5        0.0000 
     44 CA         23.2335   58.3330   18.1175 C.3       2 GLC5        0.0000 
     45 CA         23.7780   57.0310   18.7670 C.3       4 GLP5        0.0000 
     46 CA         19.5485   60.3708   19.7007 C.3       2 GLC5        0.0000 
     47 CA         19.9010   60.9850   21.6840 C.3       6 GLL5        0.0000 
     48 CA         18.6490   59.4780   18.3390 C.3       4 GLP5        0.0000 
     49 CA         14.9287   60.0827   21.8607 C.3       2 GLC5        0.0000 
     50 CA         13.7450   58.8150   21.1190 C.3       4 GLP5        0.0000 
     51 CA         15.3427   62.0637   24.5172 C.3       2 GLC5        0.0000 
     52 CA         15.7930   61.8340   22.2120 C.3       6 GLL5        0.0000 
     53 CA         14.5730   62.7770   26.4320 C.3       4 GLP5        0.0000 
     54 CA         16.8461   62.8367   23.3390 C.3       2 GLC5        0.0000 
     55 CA         18.3987   60.6298   19.8880 C.3       2 GLC5        0.0000 
     56 CA         18.4640   61.2910   21.8220 C.3       6 GLL5        0.0000 
     57 CA         19.6665   61.8302   23.8867 C.3       2 GLC5        0.0000 
     58 CA         20.5780   60.2060   22.6310 C.3       6 GLL5        0.0000 
     59 CA         19.1270   63.7530   24.5500 C.3       4 GLP5        0.0000 
     60 CA         19.0692   62.3570   23.2756 C.3       2 GLC5        0.0000 
     61 CA         21.7990   60.8246   24.1219 C.3       2 GLC5        0.0000 
     62 CA         22.5410   61.6660   25.4550 C.3       4 GLP5        0.0000 
     63 CA         21.5213   58.5216   21.2016 C.3       2 GLC5        0.0000 
     64 CA         21.2480   56.6340   20.5470 C.3       4 GLP5        0.0000 
     65 CA         22.1630   62.4274   22.2036 C.3       2 GLC5        0.0000 
     66 CA         22.3460   60.6860   21.2200 C.3       6 GLL5        0.0000 
     67 CA         21.7670   62.3700   14.9878 C.3       2 GLC5        0.0000 
     68 CA         21.6010   61.8840   12.9890 C.3       4 GLP5        0.0000 
     69 CA         21.2970   60.0152   16.5617 C.3       2 GLC5        0.0000 
@<TRIPOS>BOND
@<TRIPOS>SUBSTRUCTURE
     1 SEC2        1 GROUP        1 X    SEC  0     ROOT SEC X 2
     2 GLC5        7 GROUP        1 X    GLC  0     **** GLC X 6
     3 SEP2        3 GROUP        1 Y    SEP  0     ROOT SEP Y 9
     4 GLP5        9 GROUP        1 Y    GLP  0     **** GLP Y 13
     5 SEL2        2 GROUP        1 Z    SEL  0     ROOT SEL Z 16
     6 GLL5        8 GROUP        1 Z    GLL  0     **** GLL Z 20
@<TRIPOS>SET

