#    Name: 3r7q_FAV_1_ligand
#    Modification time : Tue Mar 25 11:13:01 2014

@<TRIPOS>MOLECULE
3r7q_FAV_1_ligand
   38    41     1     0     0
SMALL
NO_CHARGES


@<TRIPOS>ATOM
      1 C1         16.4880   62.5540   21.2420 C.ar      1 FAV1        0.0000 
      2 N1         24.2440   61.2120   19.6840 N.am      1 FAV1        0.0000 
      3 O1         18.4190   59.6390   23.5710 O.3       1 FAV1        0.0000 
      4 S1         20.9950   61.5420   20.4410 S.3       1 FAV1        0.0000 
      5 C2         15.7930   61.8340   22.2120 C.ar      1 FAV1        0.0000 
      6 O2         24.5250   60.0650   21.5540 O.2       1 FAV1        0.0000 
      7 C3         16.4320   60.8670   22.9930 C.ar      1 FAV1        0.0000 
      8 C4         17.7800   60.5830   22.8150 C.ar      1 FAV1        0.0000 
      9 C5         18.4640   61.2910   21.8220 C.ar      1 FAV1        0.0000 
     10 C6         17.8330   62.2720   21.0520 C.ar      1 FAV1        0.0000 
     11 C7         19.8340   59.6090   23.8160 C.3       1 FAV1        0.0000 
     12 C8         20.5780   60.2060   22.6310 C.2       1 FAV1        0.0000 
     13 C9         19.9010   60.9850   21.6840 C.2       1 FAV1        0.0000 
     14 C10        21.9080   60.0590   22.3540 C.2       1 FAV1        0.0000 
     15 C11        22.3460   60.6860   21.2200 C.2       1 FAV1        0.0000 
     16 C12        23.7540   60.6320   20.8070 C.2       1 FAV1        0.0000 
     17 C13        23.4440   61.9340   18.7800 C.ar      1 FAV1        0.0000 
     18 C14        23.4060   63.3200   18.9340 C.ar      1 FAV1        0.0000 
     19 C15        22.6490   64.1270   18.0930 C.ar      1 FAV1        0.0000 
     20 C16        21.9180   63.5470   17.0750 C.ar      1 FAV1        0.0000 
     21 C17        21.9480   62.1650   16.8980 C.ar      1 FAV1        0.0000 
     22 C18        22.7020   61.3480   17.7390 C.ar      1 FAV1        0.0000 
     23 C19        25.6770   61.1030   19.4190 C.3       1 FAV1        0.0000 
     24 CL1        22.6890   59.6350   17.4680 Cl        1 FAV1        0.0000 
     25 H          16.0190   63.2666   20.6896 H         1 FAV1        0.0000 
     26 H          14.7847   62.0176   22.3581 H         1 FAV1        0.0000 
     27 H          15.8908   60.3583   23.7119 H         1 FAV1        0.0000 
     28 H          18.3732   62.7855   20.3412 H         1 FAV1        0.0000 
     29 H          20.1942   58.5836   23.9613 H         1 FAV1        0.0000 
     30 H          20.0987   60.1872   24.7092 H         1 FAV1        0.0000 
     31 H          22.5237   59.5260   22.9436 H         1 FAV1        0.0000 
     32 H          23.9585   63.7580   19.6976 H         1 FAV1        0.0000 
     33 H          22.6360   65.1433   18.2304 H         1 FAV1        0.0000 
     34 H          21.3502   64.1295   16.4451 H         1 FAV1        0.0000 
     35 H          21.4017   61.7381   16.1298 H         1 FAV1        0.0000 
     36 H          26.2221   61.5145   20.1494 H         1 FAV1        0.0000 
     37 H          25.9681   60.1498   19.3374 H         1 FAV1        0.0000 
     38 H          25.9333   61.5616   18.5681 H         1 FAV1        0.0000 
@<TRIPOS>BOND
     1    5    1 ar   
     2   10    1 ar   
     3   25    1 1    
     4   16    2 am   
     5   17    2 1    
     6   23    2 1    
     7    8    3 1    
     8   11    3 1    
     9   13    4 1    
    10   15    4 1    
    11    7    5 ar   
    12   26    5 1    
    13   16    6 2    
    14    8    7 ar   
    15   27    7 1    
    16    9    8 ar   
    17   10    9 ar   
    18   13    9 1    
    19   28   10 1    
    20   12   11 1    
    21   29   11 1    
    22   30   11 1    
    23   13   12 2    
    24   14   12 1    
    25   15   14 2    
    26   31   14 1    
    27   16   15 1    
    28   18   17 ar   
    29   22   17 ar   
    30   19   18 ar   
    31   32   18 1    
    32   20   19 ar   
    33   33   19 1    
    34   21   20 ar   
    35   34   20 1    
    36   22   21 ar   
    37   35   21 1    
    38   24   22 1    
    39   36   23 1    
    40   37   23 1    
    41   38   23 1    
@<TRIPOS>SUBSTRUCTURE
     1 FAV1        1 GROUP   
@<TRIPOS>SET

