#    Name: 1y6b_AAX_1_INTS_M
#    Modification time : Tue Mar 25 10:51:10 2014

@<TRIPOS>MOLECULE
1y6b_AAX_1_INTS_M
   83     0     9     0     0
SMALL
NO_CHARGES


@<TRIPOS>ATOM
      1 N          -0.1625   29.6995   24.3530 N.am      2 SEC2        0.0000 
      2 N          -0.4770   29.4350   22.9410 N.am      8 SEL2        0.0000 
      3 N           0.1520   29.9640   25.7650 N.am      5 SEP2        0.0000 
      4 CA         -2.3205   28.8145   17.7800 C.3       3 GLC5        0.0000 
      5 CA         -2.2810   30.1240   19.5940 C.3       9 GLL5        0.0000 
      6 CA         -2.3600   27.5050   15.9660 C.3       6 GLP5        0.0000 
      7 CA         -3.1105   29.3135   16.8965 C.3       3 GLC5        0.0000 
      8 CA         -3.8610   31.1220   17.8270 C.3       9 GLL5        0.0000 
      9 CA         -3.6715   31.0235   15.7260 C.3       3 GLC5        0.0000 
     10 CA         -3.4820   30.9250   13.6250 C.3       6 GLP5        0.0000 
     11 CA          2.3215   30.4625   20.5955 C.3       3 GLC5        0.0000 
     12 CA          1.2700   28.8870   19.8200 C.3       9 GLL5        0.0000 
     13 CA          3.3730   32.0380   21.3710 C.3       6 GLP5        0.0000 
     14 CA          0.8540   25.0350   17.8765 C.3       3 GLC5        0.0000 
     15 CA          2.2720   24.1640   19.0970 C.3       9 GLL5        0.0000 
     16 CA         -0.5640   25.9060   16.6560 C.3       6 GLP5        0.0000 
     17 CA          3.2690   24.0545   17.4610 C.3       3 GLC5        0.0000 
     18 CA          4.2660   23.9450   15.8250 C.3       6 GLP5        0.0000 
     19 CA          4.4805   24.3190   18.8655 C.3       3 GLC5        0.0000 
     20 CA          6.6890   24.4740   18.6340 C.3       6 GLP5        0.0000 
     21 O           4.2060   27.5435   18.5220 O.2       1 ALC1        0.0000 
     22 O           2.9390   28.1000   18.1570 O.2       7 ALL1        0.0000 
     23 O           5.4730   26.9870   18.8870 O.2       4 ALP1        0.0000 
     24 CA          1.0505   29.2770   15.6375 C.3       3 GLC5        0.0000 
     25 CA          2.1640   30.9010   16.3250 C.3       9 GLL5        0.0000 
     26 CA         -0.0630   27.6530   14.9500 C.3       6 GLP5        0.0000 
     27 CA          4.8290   29.4000   14.8385 C.3       3 GLC5        0.0000 
     28 CA          3.3500   30.5130   15.7030 C.3       9 GLL5        0.0000 
     29 CA          6.3080   28.2870   13.9740 C.3       6 GLP5        0.0000 
     30 N           5.1900   28.7500   16.3395 N.am      2 SEC2        0.0000 
     31 N           3.8110   29.3800   16.3060 N.am      8 SEL2        0.0000 
     32 N           6.5690   28.1200   16.3730 N.am      5 SEP2        0.0000 
     33 CA         -2.2560   33.1410   14.5965 C.3       3 GLC5        0.0000 
     34 CA         -0.7690   33.8790   15.5200 C.3       9 GLL5        0.0000 
     35 CA         -3.7430   32.4030   13.6730 C.3       6 GLP5        0.0000 
     36 N          -0.0550   37.4700   11.5495 N.am      2 SEC2        0.0000 
     37 N           0.0310   36.2500   11.8970 N.am      8 SEL2        0.0000 
     38 N          -0.1410   38.6900   11.2020 N.am      5 SEP2        0.0000 
     39 CA          0.7525   36.2560    9.0760 C.3       3 GLC5        0.0000 
     40 CA          0.2250   35.5520   10.7720 C.3       9 GLL5        0.0000 
     41 CA          1.2800   36.9600    7.3800 C.3       6 GLP5        0.0000 
     42 CA          2.0860   35.4185   10.5575 C.3       3 GLC5        0.0000 
     43 CA          3.9470   35.2850   10.3430 C.3       6 GLP5        0.0000 
     44 CA          0.0850   32.2875    9.7330 C.3       3 GLC5        0.0000 
     45 CA          0.4280   34.1700   10.8220 C.3       9 GLL5        0.0000 
     46 CA         -0.2580   30.4050    8.6440 C.3       6 GLP5        0.0000 
     47 CA          1.4130   31.6460   12.2590 C.3       3 GLC5        0.0000 
     48 CA          0.3910   33.4920   12.0440 C.3       9 GLL5        0.0000 
     49 CA          2.4350   29.8000   12.4740 C.3       6 GLP5        0.0000 
     50 CA         -5.2345   29.7490   17.6370 C.3       3 GLC5        0.0000 
     51 CA         -6.6900   28.6460   16.7370 C.3       6 GLP5        0.0000 
     52 CA         -4.6858   33.1990   17.1598 C.3       3 GLC5        0.0000 
     53 CA         -5.4880   34.8020   15.8970 C.3       6 GLP5        0.0000 
     54 CA          1.9065   27.7075   21.6635 C.3       3 GLC5        0.0000 
     55 CA          0.2570   28.6170   20.7720 C.3       9 GLL5        0.0000 
     56 CA          3.6820   27.4640   22.4030 C.3       6 GLP5        0.0000 
     57 CA          2.4577   26.9362   21.1970 C.3       3 GLC5        0.0000 
     58 CA          1.7270   26.5530   19.5100 C.3       9 GLL5        0.0000 
     59 CA          2.6600   27.9207   20.9495 C.3       3 GLC5        0.0000 
     60 CA          2.0060   27.8680   19.1720 C.3       9 GLL5        0.0000 
     61 CA          0.5279   26.5221   18.1187 C.3       3 GLC5        0.0000 
     62 CA          2.5960   30.2535   14.2440 C.3       3 GLC5        0.0000 
     63 CA          3.4435   31.3905   17.4790 C.3       3 GLC5        0.0000 
     64 CA          4.1300   32.0740   18.9440 C.3       6 GLP5        0.0000 
     65 CA         -0.4020   31.4870   14.5068 C.3       3 GLC5        0.0000 
     66 CA          1.2040   31.9670   16.0500 C.3       9 GLL5        0.0000 
     67 CA         -1.9820   30.7020   13.5900 C.3       6 GLP5        0.0000 
     68 CA          1.8065   31.0360   13.9488 C.3       3 GLC5        0.0000 
     69 CA          1.1520   32.5770   14.7970 C.3       9 GLL5        0.0000 
     70 CA          2.4207   32.0913   17.7353 C.3       3 GLC5        0.0000 
     71 CA          2.1727   33.2680   13.2815 C.3       3 GLC5        0.0000 
     72 CA          3.6740   33.4700   11.8950 C.3       6 GLP5        0.0000 
     73 CA         -1.1227   31.7132   15.2293 C.3       3 GLC5        0.0000 
     74 CA         -0.7460   33.1990   16.7340 C.3       9 GLL5        0.0000 
     75 CA         -1.7163   35.6420   12.7910 C.3       3 GLC5        0.0000 
     76 CA          0.1890   34.2330   13.2050 C.3       9 GLL5        0.0000 
     77 CA         -3.5280   36.3570   12.4330 C.3       6 GLP5        0.0000 
     78 CA          1.8847   34.1985   12.5220 C.3       3 GLC5        0.0000 
     79 CA          0.0020   35.6210   13.0930 C.3       9 GLL5        0.0000 
     80 CA          2.0417   33.6505   11.6640 C.3       3 GLC5        0.0000 
     81 CA         -0.8458   32.1975   13.2740 C.3       3 GLC5        0.0000 
     82 CA         -1.1821   34.2978   10.6573 C.3       3 GLC5        0.0000 
     83 CA         -2.7230   34.4190    9.8940 C.3       6 GLP5        0.0000 
@<TRIPOS>BOND
@<TRIPOS>SUBSTRUCTURE
     1 ALC1       21 GROUP        1 X    ALC  0     ROOT ALC X 1
     2 SEC2        1 GROUP        1 X    SEC  0     **** SEC X 2
     3 GLC5        4 GROUP        1 X    GLC  0     **** GLC X 6
     4 ALP1       23 GROUP        1 Y    ALP  0     ROOT ALP Y 8
     5 SEP2        3 GROUP        1 Y    SEP  0     **** SEP Y 9
     6 GLP5        6 GROUP        1 Y    GLP  0     **** GLP Y 13
     7 ALL1       22 GROUP        1 Z    ALL  0     ROOT ALL Z 15
     8 SEL2        2 GROUP        1 Z    SEL  0     **** SEL Z 16
     9 GLL5        5 GROUP        1 Z    GLL  0     **** GLL Z 20
@<TRIPOS>SET

