#    Name: 1y6b_AAX_1_ligand
#    Modification time : Tue Mar 25 10:51:10 2014

@<TRIPOS>MOLECULE
1y6b_AAX_1_ligand
   58    62     1     0     0
SMALL
NO_CHARGES


@<TRIPOS>ATOM
      1 O29        -0.0370   31.0440   21.3050 O.2       1 AAX201      0.0000 
      2 S27        -0.6050   29.7780   21.5610 S.o2      1 AAX201      0.0000 
      3 O28        -0.4770   29.4350   22.9410 O.2       1 AAX201      0.0000 
      4 N30        -2.1000   29.8570   21.0210 N.pl3     1 AAX201      0.0000 
      5 C31        -2.2810   30.1240   19.5940 C.3       1 AAX201      0.0000 
      6 C32        -3.6970   30.5820   19.2470 C.3       1 AAX201      0.0000 
      7 C34        -3.8610   31.1220   17.8270 C.3       1 AAX201      0.0000 
      8 C33        -3.9060   32.0700   19.0180 C.3       1 AAX201      0.0000 
      9 C6          0.2570   28.6170   20.7720 C.ar      1 AAX201      0.0000 
     10 C5          0.0050   27.2850   21.0760 C.ar      1 AAX201      0.0000 
     11 C4          0.7400   26.2640   20.4720 C.ar      1 AAX201      0.0000 
     12 C7          1.2700   28.8870   19.8200 C.ar      1 AAX201      0.0000 
     13 C8          2.0060   27.8680   19.1720 C.ar      1 AAX201      0.0000 
     14 C3          1.7270   26.5530   19.5100 C.ar      1 AAX201      0.0000 
     15 O2          2.4440   25.5730   18.8760 O.3       1 AAX201      0.0000 
     16 C1          2.2720   24.1640   19.0970 C.3       1 AAX201      0.0000 
     17 N9          2.9390   28.1000   18.1570 N.pl3     1 AAX201      0.0000 
     18 C10         2.8590   29.1080   17.2510 C.2       1 AAX201      0.0000 
     19 O14         1.8350   29.9810   17.2650 O.3       1 AAX201      0.0000 
     20 C13         2.1640   30.9010   16.3250 C.2       1 AAX201      0.0000 
     21 C12         3.3500   30.5130   15.7030 C.2       1 AAX201      0.0000 
     22 N11         3.8110   29.3800   16.3060 N.2       1 AAX201      0.0000 
     23 C15         1.2040   31.9670   16.0500 C.ar      1 AAX201      0.0000 
     24 C20         1.1520   32.5770   14.7970 C.ar      1 AAX201      0.0000 
     25 C19         0.1910   33.5550   14.5390 C.ar      1 AAX201      0.0000 
     26 C18        -0.7690   33.8790   15.5200 C.ar      1 AAX201      0.0000 
     27 C17        -0.7460   33.1990   16.7340 C.ar      1 AAX201      0.0000 
     28 C16         0.2190   32.2500   17.0030 C.ar      1 AAX201      0.0000 
     29 C21         0.1890   34.2330   13.2050 C.ar      1 AAX201      0.0000 
     30 C26         0.0020   35.6210   13.0930 C.ar      1 AAX201      0.0000 
     31 N25         0.0310   36.2500   11.8970 N.ar      1 AAX201      0.0000 
     32 C24         0.2250   35.5520   10.7720 C.ar      1 AAX201      0.0000 
     33 C23         0.4280   34.1700   10.8220 C.ar      1 AAX201      0.0000 
     34 C22         0.3910   33.4920   12.0440 C.ar      1 AAX201      0.0000 
     35 H          -2.8140   29.7264   21.6532 H         1 AAX201      0.0000 
     36 H          -2.0598   29.2191   18.9987 H         1 AAX201      0.0000 
     37 H          -1.5768   30.9050   19.2528 H         1 AAX201      0.0000 
     38 H          -4.5121   30.2025   19.5034 H         1 AAX201      0.0000 
     39 H          -4.7520   30.9537   17.5605 H         1 AAX201      0.0000 
     40 H          -2.9986   31.1821   17.4448 H         1 AAX201      0.0000 
     41 H          -3.0617   32.4940   19.0804 H         1 AAX201      0.0000 
     42 H          -4.8151   32.2655   19.1960 H         1 AAX201      0.0000 
     43 H          -0.7341   27.0448   21.7564 H         1 AAX201      0.0000 
     44 H           0.5619   25.2814   20.7302 H         1 AAX201      0.0000 
     45 H           1.4816   29.8792   19.5875 H         1 AAX201      0.0000 
     46 H           3.7652   27.4297   18.1043 H         1 AAX201      0.0000 
     47 H           3.7592   30.9774   14.9738 H         1 AAX201      0.0000 
     48 H           1.8194   32.3072   14.0657 H         1 AAX201      0.0000 
     49 H          -1.4632   34.5990   15.3351 H         1 AAX201      0.0000 
     50 H          -1.4699   33.4131   17.4466 H         1 AAX201      0.0000 
     51 H           0.2219   31.7469   17.8994 H         1 AAX201      0.0000 
     52 H          -0.1625   36.1619   13.9723 H         1 AAX201      0.0000 
     53 H           0.2295   36.0159    9.8420 H         1 AAX201      0.0000 
     54 H           0.6060   33.6478    9.9533 H         1 AAX201      0.0000 
     55 H           0.5088   32.4843   12.0809 H         1 AAX201      0.0000 
     56 H           2.8952   23.6210   18.5342 H         1 AAX201      0.0000 
     57 H           2.4441   23.9138   20.0498 H         1 AAX201      0.0000 
     58 H           1.3433   23.8644   18.8785 H         1 AAX201      0.0000 
@<TRIPOS>BOND
     1    2    1 2    
     2    3    2 2    
     3    4    2 1    
     4    9    2 1    
     5    5    4 1    
     6   35    4 1    
     7    6    5 1    
     8   36    5 1    
     9   37    5 1    
    10    7    6 1    
    11    8    6 1    
    12   38    6 1    
    13    8    7 1    
    14   39    7 1    
    15   40    7 1    
    16   41    8 1    
    17   42    8 1    
    18   10    9 ar   
    19   12    9 ar   
    20   11   10 ar   
    21   43   10 1    
    22   14   11 ar   
    23   44   11 1    
    24   13   12 ar   
    25   45   12 1    
    26   14   13 ar   
    27   17   13 1    
    28   15   14 1    
    29   16   15 1    
    30   56   16 1    
    31   57   16 1    
    32   58   16 1    
    33   18   17 1    
    34   46   17 1    
    35   19   18 1    
    36   22   18 2    
    37   20   19 1    
    38   21   20 2    
    39   23   20 1    
    40   22   21 1    
    41   47   21 1    
    42   24   23 ar   
    43   28   23 ar   
    44   25   24 ar   
    45   48   24 1    
    46   26   25 ar   
    47   29   25 1    
    48   27   26 ar   
    49   49   26 1    
    50   28   27 ar   
    51   50   27 1    
    52   51   28 1    
    53   30   29 ar   
    54   34   29 ar   
    55   31   30 ar   
    56   52   30 1    
    57   32   31 ar   
    58   33   32 ar   
    59   53   32 1    
    60   34   33 ar   
    61   54   33 1    
    62   55   34 1    
@<TRIPOS>SUBSTRUCTURE
     1 AAX201      1 GROUP   
@<TRIPOS>SET

