#    Name: 3b1q_NOS_4_INTS_M
#    Modification time : Mon Mar 24 18:39:40 2014

@<TRIPOS>MOLECULE
3b1q_NOS_4_INTS_M
   52     0     9     0     0
SMALL
NO_CHARGES


@<TRIPOS>ATOM
      1 CA          1.0950   50.3330   28.0850 C.3       3 GLC5        0.0000 
      2 CA          2.9050   49.4380   27.6510 C.3       9 GLL5        0.0000 
      3 CA         -0.7150   51.2280   28.5190 C.3       6 GLP5        0.0000 
      4 N           0.9875   48.4055   28.9775 N.am      2 SEC2        0.0000 
      5 N           1.8190   48.6630   27.9360 N.am      8 SEL2        0.0000 
      6 N           0.1560   48.1480   30.0190 N.am      5 SEP2        0.0000 
      7 CA          0.7875   47.2060   28.6185 C.3       3 GLC5        0.0000 
      8 CA          1.4350   47.6930   27.0440 C.3       9 GLL5        0.0000 
      9 CA          0.1400   46.7190   30.1930 C.3       6 GLP5        0.0000 
     10 CA          0.3600   49.4605   27.7815 C.3       3 GLC5        0.0000 
     11 CA          1.3695   45.8920   27.5415 C.3       3 GLC5        0.0000 
     12 CA          1.3040   44.0910   28.0390 C.3       6 GLP5        0.0000 
     13 CA          0.1100   48.4230   26.1525 C.3       3 GLC5        0.0000 
     14 CA         -1.2150   49.1530   25.2610 C.3       6 GLP5        0.0000 
     15 N           5.7650   50.2965   25.4060 N.am      2 SEC2        0.0000 
     16 N           4.7490   50.0450   26.4750 N.am      8 SEL2        0.0000 
     17 N           6.7810   50.5480   24.3370 N.am      5 SEP2        0.0000 
     18 CA          1.5435   56.5495   30.6410 C.3       3 GLC5        0.0000 
     19 CA          1.9910   54.6310   29.6170 C.3       9 GLL5        0.0000 
     20 CA          1.0960   58.4680   31.6650 C.3       6 GLP5        0.0000 
     21 O          -0.2350   54.6670   29.7890 O.2       1 ALC1        0.0000 
     22 O           0.7260   54.5980   28.9230 O.2       7 ALL1        0.0000 
     23 O          -1.1960   54.7360   30.6550 O.2       4 ALP1        0.0000 
     24 CA          1.1505   51.1535   29.0020 C.3       3 GLC5        0.0000 
     25 CA          3.0160   51.0790   29.4850 C.3       9 GLL5        0.0000 
     26 CA          6.0050   50.8500   30.5965 C.3       3 GLC5        0.0000 
     27 CA          4.0600   51.5830   30.4680 C.3       9 GLL5        0.0000 
     28 CA          7.9500   50.1170   30.7250 C.3       6 GLP5        0.0000 
     29 N           3.0345   50.6465   32.6245 N.am      2 SEC2        0.0000 
     30 N           4.0660   50.5730   31.4680 N.am      8 SEL2        0.0000 
     31 N           2.0030   50.7200   33.7810 N.am      5 SEP2        0.0000 
     32 O           5.0025   50.9255   32.3940 O.2       1 ALC1        0.0000 
     33 O           4.0660   50.5730   31.4680 O.2       7 ALL1        0.0000 
     34 O           5.9390   51.2780   33.3200 O.2       4 ALP1        0.0000 
     35 N           2.6150   51.8910   33.0670 N.am      2 SEC2        0.0000 
     36 N           3.2270   53.0620   32.3530 N.am      8 SEL2        0.0000 
     37 N           1.8395   53.7400   32.6930 N.am      2 SEC2        0.0000 
     38 N           0.4520   54.4180   33.0330 N.am      5 SEP2        0.0000 
     39 O           4.2750   53.2125   33.0100 O.2       1 ALC1        0.0000 
     40 O           3.2270   53.0620   32.3530 O.2       7 ALL1        0.0000 
     41 O           5.3230   53.3630   33.6670 O.2       4 ALP1        0.0000 
     42 CA          5.4957   47.9308   26.3083 C.3       3 GLC5        0.0000 
     43 CA          3.7370   49.1540   26.4690 C.3       9 GLL5        0.0000 
     44 CA          7.4860   47.2390   26.5820 C.3       6 GLP5        0.0000 
     45 CA          2.9958   49.6308   24.6448 C.3       3 GLC5        0.0000 
     46 CA          2.4860   50.6390   23.2550 C.3       6 GLP5        0.0000 
     47 CA          0.7013   52.5643   29.1832 C.3       3 GLC5        0.0000 
     48 CA          2.2440   53.1700   30.0780 C.3       9 GLL5        0.0000 
     49 CA          4.3280   49.5145   29.7403 C.3       3 GLC5        0.0000 
     50 CA          5.1180   47.6980   29.5040 C.3       6 GLP5        0.0000 
     51 CA          2.2867   51.0185   31.7194 C.3       3 GLC5        0.0000 
     52 CA          1.0570   49.9000   32.9900 C.3       6 GLP5        0.0000 
@<TRIPOS>BOND
@<TRIPOS>SUBSTRUCTURE
     1 ALC1       21 GROUP        1 X    ALC  0     ROOT ALC X 1
     2 SEC2        4 GROUP        1 X    SEC  0     **** SEC X 2
     3 GLC5        1 GROUP        1 X    GLC  0     **** GLC X 6
     4 ALP1       23 GROUP        1 Y    ALP  0     ROOT ALP Y 8
     5 SEP2        6 GROUP        1 Y    SEP  0     **** SEP Y 9
     6 GLP5        3 GROUP        1 Y    GLP  0     **** GLP Y 13
     7 ALL1       22 GROUP        1 Z    ALL  0     ROOT ALL Z 15
     8 SEL2        5 GROUP        1 Z    SEL  0     **** SEL Z 16
     9 GLL5        2 GROUP        1 Z    GLL  0     **** GLL Z 20
@<TRIPOS>SET

