#    Name: 3b1q_NOS_4_ligand
#    Modification time : Mon Mar 24 18:39:41 2014

@<TRIPOS>MOLECULE
3b1q_NOS_4_ligand
   31    33     1     0     0
SMALL
NO_CHARGES


@<TRIPOS>ATOM
      1 N9          3.5410   50.4110   28.2700 N.pl3     1 NOS401      0.0000 
      2 C4          2.9050   49.4380   27.6510 C.ar      1 NOS401      0.0000 
      3 N3          1.8190   48.6630   27.9360 N.ar      1 NOS401      0.0000 
      4 C2          1.4350   47.6930   27.0440 C.ar      1 NOS401      0.0000 
      5 N1          2.1420   47.3950   25.9180 N.ar      1 NOS401      0.0000 
      6 C6          3.2740   48.0910   25.6000 C.ar      1 NOS401      0.0000 
      7 O6          3.9770   47.7690   24.4900 O.3       1 NOS401      0.0000 
      8 C5          3.7370   49.1540   26.4690 C.ar      1 NOS401      0.0000 
      9 N7          4.7490   50.0450   26.4750 N.2       1 NOS401      0.0000 
     10 C8          4.6130   50.8110   27.5720 C.2       1 NOS401      0.0000 
     11 C5'         1.9910   54.6310   29.6170 C.3       1 NOS401      0.0000 
     12 O5'         0.7260   54.5980   28.9230 O.3       1 NOS401      0.0000 
     13 C4'         2.2440   53.1700   30.0780 C.3       1 NOS401      0.0000 
     14 O4'         2.4950   52.3060   28.9610 O.3       1 NOS401      0.0000 
     15 C1'         3.0160   51.0790   29.4850 C.3       1 NOS401      0.0000 
     16 C2'         4.0600   51.5830   30.4680 C.3       1 NOS401      0.0000 
     17 O2'         4.0660   50.5730   31.4680 O.3       1 NOS401      0.0000 
     18 C3'         3.4950   52.9430   30.9210 C.3       1 NOS401      0.0000 
     19 O3'         3.2270   53.0620   32.3530 O.3       1 NOS401      0.0000 
     20 H           0.5475   47.1536   27.2439 H         1 NOS401      0.0000 
     21 H           5.2059   51.5456   27.8197 H         1 NOS401      0.0000 
     22 H           1.9573   55.2500   30.4940 H         1 NOS401      0.0000 
     23 H           2.8011   54.9159   28.9720 H         1 NOS401      0.0000 
     24 H           1.3979   52.8085   30.6319 H         1 NOS401      0.0000 
     25 H           2.2768   50.5387   29.9593 H         1 NOS401      0.0000 
     26 H           4.9533   51.7054   29.9597 H         1 NOS401      0.0000 
     27 H           4.2227   53.7047   30.5972 H         1 NOS401      0.0000 
     28 H           3.3553   47.2075   23.9439 H         1 NOS401      0.0000 
     29 H           0.0995   54.1339   29.5491 H         1 NOS401      0.0000 
     30 H           4.7874   50.8442   32.1052 H         1 NOS401      0.0000 
     31 H           3.9339   53.6794   32.6980 H         1 NOS401      0.0000 
@<TRIPOS>BOND
     1    2    1 1    
     2   10    1 1    
     3   15    1 1    
     4    3    2 ar   
     5    8    2 ar   
     6    4    3 ar   
     7    5    4 ar   
     8   20    4 1    
     9    6    5 ar   
    10    7    6 1    
    11    8    6 ar   
    12   28    7 1    
    13    9    8 1    
    14   10    9 2    
    15   21   10 1    
    16   12   11 1    
    17   13   11 1    
    18   22   11 1    
    19   23   11 1    
    20   29   12 1    
    21   14   13 1    
    22   18   13 1    
    23   24   13 1    
    24   15   14 1    
    25   16   15 1    
    26   25   15 1    
    27   17   16 1    
    28   18   16 1    
    29   26   16 1    
    30   30   17 1    
    31   19   18 1    
    32   27   18 1    
    33   31   19 1    
@<TRIPOS>SUBSTRUCTURE
     1 NOS401      1 GROUP   
@<TRIPOS>SET

