#    Name: 4jju_1MB_2_INTS_M
#    Modification time : Tue Mar 25 05:56:50 2014

@<TRIPOS>MOLECULE
4jju_1MB_2_INTS_M
   70     0     6     0     0
SMALL
NO_CHARGES


@<TRIPOS>ATOM
      1 N         -21.3310  -23.3585  -11.3595 N.am      1 SEC2        0.0000 
      2 N         -21.6360  -23.4700  -12.7710 N.am      5 SEL2        0.0000 
      3 N         -21.0260  -23.2470   -9.9480 N.am      3 SEP2        0.0000 
      4 CA        -26.1355  -23.0840  -13.2925 C.3       2 GLC5        0.0000 
      5 CA        -24.8620  -22.8810  -14.6990 C.3       6 GLL5        0.0000 
      6 CA        -27.4090  -23.2870  -11.8860 C.3       4 GLP5        0.0000 
      7 CA        -27.3075  -22.6710  -15.0970 C.3       2 GLC5        0.0000 
      8 CA        -25.3000  -22.7050  -16.0270 C.3       6 GLL5        0.0000 
      9 CA        -29.3150  -22.6370  -14.1670 C.3       4 GLP5        0.0000 
     10 N         -23.6670  -22.5585  -10.8245 N.am      1 SEC2        0.0000 
     11 N         -23.8010  -23.2390  -12.0900 N.am      5 SEL2        0.0000 
     12 N         -23.5330  -21.8780   -9.5590 N.am      3 SEP2        0.0000 
     13 CA        -30.4835  -20.8155  -17.3555 C.3       2 GLC5        0.0000 
     14 CA        -28.4600  -20.5230  -16.8130 C.3       6 GLL5        0.0000 
     15 CA        -32.5070  -21.1080  -17.8980 C.3       4 GLP5        0.0000 
     16 CA        -30.6805  -22.1925  -18.5005 C.3       2 GLC5        0.0000 
     17 CA        -28.8540  -23.2770  -19.1030 C.3       6 GLL5        0.0000 
     18 CA        -19.9440  -17.0910  -19.2780 C.3       2 GLC5        0.0000 
     19 CA        -19.1870  -17.7870  -17.9120 C.3       6 GLL5        0.0000 
     20 CA        -20.7010  -16.3950  -20.6440 C.3       4 GLP5        0.0000 
     21 CA        -17.9100  -18.5570  -18.8700 C.3       2 GLC5        0.0000 
     22 CA        -16.6330  -19.3270  -19.8280 C.3       4 GLP5        0.0000 
     23 CA        -28.9240  -19.4135  -20.2960 C.3       2 GLC5        0.0000 
     24 CA        -29.0820  -20.4060  -18.8800 C.3       6 GLL5        0.0000 
     25 CA        -28.7660  -18.4210  -21.7120 C.3       4 GLP5        0.0000 
     26 CA        -25.9705  -19.4030  -19.8840 C.3       2 GLC5        0.0000 
     27 CA        -26.9510  -20.4340  -18.3900 C.3       6 GLL5        0.0000 
     28 CA        -24.9900  -18.3720  -21.3780 C.3       4 GLP5        0.0000 
     29 CA        -27.8585  -19.4275  -20.0510 C.3       2 GLC5        0.0000 
     30 CA        -19.0910  -21.3990  -12.4390 C.3       2 GLC5        0.0000 
     31 CA        -19.0680  -20.9350  -14.3840 C.3       6 GLL5        0.0000 
     32 CA        -19.1140  -21.8630  -10.4940 C.3       4 GLP5        0.0000 
     33 CA        -20.3010  -19.9705  -13.3395 C.3       2 GLC5        0.0000 
     34 CA        -21.5340  -19.0060  -12.2950 C.3       4 GLP5        0.0000 
     35 CA        -21.1295  -19.5452  -16.0140 C.3       2 GLC5        0.0000 
     36 CA        -19.3050  -20.6790  -15.6760 C.3       6 GLL5        0.0000 
     37 CA        -23.0450  -19.0750  -16.1250 C.3       4 GLP5        0.0000 
     38 CA        -17.3785  -20.1142  -16.7525 C.3       2 GLC5        0.0000 
     39 CA        -19.1230  -19.3520  -16.1300 C.3       6 GLL5        0.0000 
     40 CA        -15.5430  -20.2130  -17.6020 C.3       4 GLP5        0.0000 
     41 CA        -18.9620  -16.5955  -17.4273 C.3       2 GLC5        0.0000 
     42 CA        -19.3650  -19.0430  -17.4870 C.3       6 GLL5        0.0000 
     43 CA        -18.6480  -14.7760  -17.1550 C.3       4 GLP5        0.0000 
     44 CA        -20.6965  -18.4552  -19.0942 C.3       2 GLC5        0.0000 
     45 CA        -21.8120  -17.3700  -20.2480 C.3       4 GLP5        0.0000 
     46 CA        -17.5620  -19.8768  -17.7712 C.3       2 GLC5        0.0000 
     47 CA        -19.7970  -20.0380  -18.3940 C.3       6 GLL5        0.0000 
     48 CA        -20.7440  -21.6005  -19.7575 C.3       2 GLC5        0.0000 
     49 CA        -21.6020  -22.5020  -21.3540 C.3       4 GLP5        0.0000 
     50 CA        -21.4518  -20.3065  -16.6845 C.3       2 GLC5        0.0000 
     51 CA        -19.9750  -21.3600  -17.9280 C.3       6 GLL5        0.0000 
     52 CA        -23.0115  -21.0880  -15.5455 C.3       2 GLC5        0.0000 
     53 CA        -22.4840  -23.1250  -15.4970 C.3       6 GLL5        0.0000 
     54 CA        -25.2455  -20.9710  -15.3230 C.3       2 GLC5        0.0000 
     55 CA        -25.4100  -19.1490  -15.2830 C.3       4 GLP5        0.0000 
     56 CA        -23.3618  -20.9573  -16.5445 C.3       2 GLC5        0.0000 
     57 CA        -24.3700  -22.7380  -17.0970 C.3       6 GLL5        0.0000 
     58 CA        -23.1238  -23.6867  -18.6080 C.3       2 GLC5        0.0000 
     59 CA        -22.9870  -22.9410  -16.8310 C.3       6 GLL5        0.0000 
     60 CA        -22.5690  -24.5340  -20.2520 C.3       4 GLP5        0.0000 
     61 CA        -28.8113  -21.6997  -15.8017 C.3       2 GLC5        0.0000 
     62 CA        -28.5285  -22.7598  -15.9152 C.3       2 GLC5        0.0000 
     63 CA        -28.1290  -22.5150  -18.1300 C.3       6 GLL5        0.0000 
     64 CA        -30.4413  -20.2120  -18.4785 C.3       2 GLC5        0.0000 
     65 CA        -28.1550  -21.0020  -18.0600 C.3       6 GLL5        0.0000 
     66 CA        -32.2640  -19.7200  -18.4870 C.3       4 GLP5        0.0000 
     67 CA        -21.2145  -18.8694  -17.0256 C.3       2 GLC5        0.0000 
     68 CA        -26.5196  -19.8736  -16.5981 C.3       2 GLC5        0.0000 
     69 CA        -28.2109  -18.7801  -17.9546 C.3       2 GLC5        0.0000 
     70 CA        -28.5990  -17.0510  -17.6350 C.3       4 GLP5        0.0000 
@<TRIPOS>BOND
@<TRIPOS>SUBSTRUCTURE
     1 SEC2        1 GROUP        1 X    SEC  0     ROOT SEC X 2
     2 GLC5        4 GROUP        1 X    GLC  0     **** GLC X 6
     3 SEP2        3 GROUP        1 Y    SEP  0     ROOT SEP Y 9
     4 GLP5        6 GROUP        1 Y    GLP  0     **** GLP Y 13
     5 SEL2        2 GROUP        1 Z    SEL  0     ROOT SEL Z 16
     6 GLL5        5 GROUP        1 Z    GLL  0     **** GLL Z 20
@<TRIPOS>SET

