#    Name: 4jju_1MB_2_ligand
#    Modification time : Tue Mar 25 05:56:50 2014

@<TRIPOS>MOLECULE
4jju_1MB_2_ligand
   43    46     1     0     0
SMALL
NO_CHARGES


@<TRIPOS>ATOM
      1 C1        -19.3050  -20.6790  -15.6760 C.ar      1 1MB602      0.0000 
      2 C2        -19.1230  -19.3520  -16.1300 C.ar      1 1MB602      0.0000 
      3 C3        -19.3650  -19.0430  -17.4870 C.ar      1 1MB602      0.0000 
      4 C4        -19.7970  -20.0380  -18.3940 C.ar      1 1MB602      0.0000 
      5 C5        -19.9750  -21.3600  -17.9280 C.ar      1 1MB602      0.0000 
      6 C6        -19.7420  -21.7160  -16.5600 C.ar      1 1MB602      0.0000 
      7 C7        -19.9550  -23.1550  -16.1000 C.3       1 1MB602      0.0000 
      8 N8        -21.6360  -23.4700  -12.7710 N.2       1 1MB602      0.0000 
      9 C9        -20.8110  -23.4940  -13.7800 C.2       1 1MB602      0.0000 
     10 N10       -21.0910  -23.3300  -15.1360 N.pl3     1 1MB602      0.0000 
     11 C11       -22.4840  -23.1250  -15.4970 C.ar      1 1MB602      0.0000 
     12 C12       -23.4720  -23.0770  -14.4350 C.ar      1 1MB602      0.0000 
     13 C13       -24.8620  -22.8810  -14.6990 C.ar      1 1MB602      0.0000 
     14 C14       -25.3000  -22.7050  -16.0270 C.ar      1 1MB602      0.0000 
     15 C15       -24.3700  -22.7380  -17.0970 C.ar      1 1MB602      0.0000 
     16 C16       -22.9870  -22.9410  -16.8310 C.ar      1 1MB602      0.0000 
     17 C17       -22.9900  -23.2710  -13.0240 C.2       1 1MB602      0.0000 
     18 O18       -23.8010  -23.2390  -12.0900 O.2       1 1MB602      0.0000 
     19 F19       -28.4600  -20.5230  -16.8130 F         1 1MB602      0.0000 
     20 O20       -26.6480  -22.5040  -16.2340 O.3       1 1MB602      0.0000 
     21 C21       -27.3550  -23.2500  -17.1970 C.ar      1 1MB602      0.0000 
     22 N22       -27.2750  -24.6350  -17.1910 N.ar      1 1MB602      0.0000 
     23 C23       -27.9880  -25.3290  -18.1460 C.ar      1 1MB602      0.0000 
     24 C24       -28.7860  -24.6980  -19.1150 C.ar      1 1MB602      0.0000 
     25 C25       -28.8540  -23.2770  -19.1030 C.ar      1 1MB602      0.0000 
     26 C26       -28.1290  -22.5150  -18.1300 C.ar      1 1MB602      0.0000 
     27 C27       -28.1550  -21.0020  -18.0600 C.3       1 1MB602      0.0000 
     28 F28       -19.1870  -17.7870  -17.9120 F         1 1MB602      0.0000 
     29 F29       -29.0820  -20.4060  -18.8800 F         1 1MB602      0.0000 
     30 F30       -26.9510  -20.4340  -18.3900 F         1 1MB602      0.0000 
     31 F31       -19.0680  -20.9350  -14.3840 F         1 1MB602      0.0000 
     32 H         -18.8205  -18.6270  -15.4846 H         1 1MB602      0.0000 
     33 H         -19.9763  -19.8058  -19.3644 H         1 1MB602      0.0000 
     34 H         -20.2806  -22.0941  -18.5835 H         1 1MB602      0.0000 
     35 H         -19.0180  -23.5176  -15.6364 H         1 1MB602      0.0000 
     36 H         -20.1269  -23.7869  -16.9920 H         1 1MB602      0.0000 
     37 H         -19.7429  -23.6645  -13.5673 H         1 1MB602      0.0000 
     38 H         -25.5241  -22.8699  -13.9285 H         1 1MB602      0.0000 
     39 H         -24.6896  -22.6167  -18.0561 H         1 1MB602      0.0000 
     40 H         -22.3195  -22.9577  -17.6159 H         1 1MB602      0.0000 
     41 H         -27.9393  -26.3771  -18.1585 H         1 1MB602      0.0000 
     42 H         -29.2976  -25.2282  -19.8009 H         1 1MB602      0.0000 
     43 H         -29.4261  -22.7893  -19.7954 H         1 1MB602      0.0000 
@<TRIPOS>BOND
     1    2    1 ar   
     2    6    1 ar   
     3   31    1 1    
     4    3    2 ar   
     5   32    2 1    
     6    4    3 ar   
     7   28    3 1    
     8    5    4 ar   
     9   33    4 1    
    10    6    5 ar   
    11   34    5 1    
    12    7    6 1    
    13   10    7 1    
    14   35    7 1    
    15   36    7 1    
    16    9    8 2    
    17   17    8 1    
    18   10    9 1    
    19   37    9 1    
    20   11   10 1    
    21   12   11 ar   
    22   16   11 ar   
    23   13   12 ar   
    24   17   12 1    
    25   14   13 ar   
    26   38   13 1    
    27   15   14 ar   
    28   20   14 1    
    29   16   15 ar   
    30   39   15 1    
    31   40   16 1    
    32   18   17 2    
    33   27   19 1    
    34   21   20 1    
    35   22   21 ar   
    36   26   21 ar   
    37   23   22 ar   
    38   24   23 ar   
    39   41   23 1    
    40   25   24 ar   
    41   42   24 1    
    42   26   25 ar   
    43   43   25 1    
    44   27   26 1    
    45   29   27 1    
    46   30   27 1    
@<TRIPOS>SUBSTRUCTURE
     1 1MB602      1 GROUP   
@<TRIPOS>SET

