#    Name: 1r3q_1CP_1_INTS_M
#    Modification time : Tue Mar 25 00:18:52 2014

@<TRIPOS>MOLECULE
1r3q_1CP_1_INTS_M
  106     0    12     0     0
SMALL
NO_CHARGES


@<TRIPOS>ATOM
      1 NZ          3.0670   71.4775   59.9160 N.4       3 LYC4        0.0000 
      2 NZ          4.1530   72.0630   58.9010 N.4      11 LYL4        0.0000 
      3 NZ          2.2150   69.5950   60.8230 N.4       7 LYP4        0.0000 
      4 N           3.4315   71.9020   57.5665 N.am      2 SEC2        0.0000 
      5 N           4.1530   72.0630   58.9010 N.am     10 SEL2        0.0000 
      6 N           2.7100   71.7410   56.2320 N.am      6 SEP2        0.0000 
      7 N           3.7645   70.6245   59.5965 N.am      2 SEC2        0.0000 
      8 N           3.3760   69.1860   60.2920 N.am      6 SEP2        0.0000 
      9 N           3.0670   71.4775   59.9160 N.am      2 SEC2        0.0000 
     10 N           1.9810   70.8920   60.9310 N.am      6 SEP2        0.0000 
     11 CA          6.5525   70.7930   58.9955 C.3       4 GLC5        0.0000 
     12 CA          6.1610   72.6180   60.0020 C.3      12 GLL5        0.0000 
     13 CA          6.9440   68.9680   57.9890 C.3       8 GLP5        0.0000 
     14 CA          6.1985   71.6270   61.7310 C.3       4 GLC5        0.0000 
     15 CA          6.2360   70.6360   63.4600 C.3       8 GLP5        0.0000 
     16 CA         11.3070   71.9935   59.1010 C.3       4 GLC5        0.0000 
     17 CA          9.3920   71.3260   59.5450 C.3      12 GLL5        0.0000 
     18 CA         13.2220   72.6610   58.6570 C.3       8 GLP5        0.0000 
     19 CA          9.7180   70.7060   57.5740 C.3       4 GLC5        0.0000 
     20 CA         10.0440   70.0860   55.6030 C.3       8 GLP5        0.0000 
     21 CA          8.1680   70.1470   58.7670 C.3       4 GLC5        0.0000 
     22 CA          9.0820   69.4820   60.3925 C.3       4 GLC5        0.0000 
     23 CA          8.7720   67.6380   61.2400 C.3       8 GLP5        0.0000 
     24 CA          7.1695   72.5665   63.9890 C.3       4 GLC5        0.0000 
     25 CA          7.4340   74.3660   63.2910 C.3      12 GLL5        0.0000 
     26 CA          6.9050   70.7670   64.6870 C.3       8 GLP5        0.0000 
     27 O           9.4965   72.6025   64.4985 O.2       1 ALC1        0.0000 
     28 O           9.1420   72.4820   63.0800 O.2       9 ALL1        0.0000 
     29 O           9.8510   72.7230   65.9170 O.2       5 ALP1        0.0000 
     30 CA          8.7980   70.6500   63.5465 C.3       4 GLC5        0.0000 
     31 CA         10.6910   70.5330   62.4060 C.3      12 GLL5        0.0000 
     32 CA          9.7315   69.0855   61.8230 C.3       4 GLC5        0.0000 
     33 CA         12.4560   66.7905   62.8645 C.3       4 GLC5        0.0000 
     34 CA         13.2360   68.6780   62.5850 C.3      12 GLL5        0.0000 
     35 CA         11.6760   64.9030   63.1440 C.3       8 GLP5        0.0000 
     36 CA         13.7865   68.6970   64.5830 C.3       4 GLC5        0.0000 
     37 CA         14.3370   68.7160   66.5810 C.3       8 GLP5        0.0000 
     38 CA         15.8625   67.4345   60.9925 C.3       4 GLC5        0.0000 
     39 CA         14.2830   68.3530   61.5440 C.3      12 GLL5        0.0000 
     40 CA         17.4420   66.5160   60.4410 C.3       8 GLP5        0.0000 
     41 N          13.9970   67.7985   57.7500 N.am      2 SEC2        0.0000 
     42 N          14.3760   68.1120   59.1730 N.am     10 SEL2        0.0000 
     43 N          13.6180   67.4850   56.3270 N.am      6 SEP2        0.0000 
     44 CA         17.0595   69.1535   63.5680 C.3       4 GLC5        0.0000 
     45 CA         15.5430   70.4580   64.0260 C.3      12 GLL5        0.0000 
     46 CA         18.5760   67.8490   63.1100 C.3       8 GLP5        0.0000 
     47 CA         14.9400   69.5870   65.3035 C.3       4 GLC5        0.0000 
     48 CA         17.1595   71.0500   64.7380 C.3       4 GLC5        0.0000 
     49 CA         18.7760   71.6420   65.4500 C.3       8 GLP5        0.0000 
     50 CA         14.6505   71.4120   66.0360 C.3       4 GLC5        0.0000 
     51 CA         14.3760   73.1070   64.7640 C.3      12 GLL5        0.0000 
     52 CA         14.9250   69.7170   67.3080 C.3       8 GLP5        0.0000 
     53 O          11.1010   73.6265   65.7340 O.2       1 ALC1        0.0000 
     54 O          12.3510   74.5300   65.5510 O.2       9 ALL1        0.0000 
     55 CA         15.4570   74.5635   66.8530 C.3       4 GLC5        0.0000 
     56 CA         15.8330   75.8620   65.0920 C.3      12 GLL5        0.0000 
     57 CA         15.0810   73.2650   68.6140 C.3       8 GLP5        0.0000 
     58 NZ         17.3630   75.2240   61.8315 N.4       3 LYC4        0.0000 
     59 NZ         17.8610   76.5450   62.4440 N.4      11 LYL4        0.0000 
     60 NZ         15.5870   73.8960   60.9100 N.4       7 LYP4        0.0000 
     61 N          17.3630   75.2240   61.8315 N.am      2 SEC2        0.0000 
     62 N          17.8610   76.5450   62.4440 N.am     10 SEL2        0.0000 
     63 N          16.8650   73.9030   61.2190 N.am      6 SEP2        0.0000 
     64 N          17.9225   78.0305   65.3090 N.am      2 SEC2        0.0000 
     65 N          18.2650   77.7600   64.2330 N.am     10 SEL2        0.0000 
     66 N          17.5800   78.3010   66.3850 N.am      6 SEP2        0.0000 
     67 CA         13.0565   78.9435   67.7130 C.3       4 GLC5        0.0000 
     68 CA         13.7520   77.9150   66.0980 C.3      12 GLL5        0.0000 
     69 CA         12.3610   79.9720   69.3280 C.3       8 GLP5        0.0000 
     70 CA         15.6435   78.8060   66.2870 C.3       4 GLC5        0.0000 
     71 CA         17.5350   79.6970   66.4760 C.3       8 GLP5        0.0000 
     72 CA          9.5990   76.4365   67.9600 C.3       4 GLC5        0.0000 
     73 CA         10.8420   76.3920   66.3780 C.3      12 GLL5        0.0000 
     74 CA          8.3560   76.4810   69.5420 C.3       8 GLP5        0.0000 
     75 O           9.4990   73.9905   65.4085 O.2       1 ALC1        0.0000 
     76 O           9.1470   75.2580   64.9000 O.2       9 ALL1        0.0000 
     77 CA          9.7620   80.3185   66.7935 C.3       4 GLC5        0.0000 
     78 CA          9.3460   79.9200   64.8330 C.3      12 GLL5        0.0000 
     79 CA         10.1780   80.7170   68.7540 C.3       8 GLP5        0.0000 
     80 N          11.2760   81.1875   66.2260 N.am      2 SEC2        0.0000 
     81 N          10.6790   81.9060   65.3480 N.am     10 SEL2        0.0000 
     82 N          11.8730   80.4690   67.1040 N.am      6 SEP2        0.0000 
     83 CA          6.4650   74.8550   64.8555 C.3       4 GLC5        0.0000 
     84 CA          8.3320   75.4640   63.8070 C.3      12 GLL5        0.0000 
     85 CA          5.0470   74.7950   66.1620 C.3       8 GLP5        0.0000 
     86 CA         11.8820   71.8460   61.2015 C.3       4 GLC5        0.0000 
     87 CA          9.7030   71.6310   62.1080 C.3      12 GLL5        0.0000 
     88 CA         13.5670   72.6100   60.1460 C.3       8 GLP5        0.0000 
     89 CA         14.5580   73.4982   66.8030 C.3       4 GLC5        0.0000 
     90 CA         17.6145   75.3405   64.7370 C.3       4 GLC5        0.0000 
     91 CA         19.2970   74.2880   64.9490 C.3       8 GLP5        0.0000 
     92 CA         16.7335   78.0450   65.5005 C.3       4 GLC5        0.0000 
     93 CA         13.9600   76.5460   67.5374 C.3       4 GLC5        0.0000 
     94 CA         14.1120   76.1300   69.2370 C.3       8 GLP5        0.0000 
     95 CA         12.3637   75.5250   67.7488 C.3       4 GLC5        0.0000 
     96 CA         12.1670   75.8440   65.9130 C.3      12 GLL5        0.0000 
     97 CA         13.2230   74.9320   69.3520 C.3       8 GLP5        0.0000 
     98 CA          8.3163   77.7618   65.7985 C.3       4 GLC5        0.0000 
     99 CA          9.8540   76.3660   65.2100 C.3      12 GLL5        0.0000 
    100 CA          6.9480   78.6680   66.8380 C.3       8 GLP5        0.0000 
    101 CA          7.2480   78.1230   64.2092 C.3       4 GLC5        0.0000 
    102 CA          8.5750   76.7470   63.4100 C.3      12 GLL5        0.0000 
    103 CA          6.2620   79.1470   65.5910 C.3       8 GLP5        0.0000 
    104 CA          7.9977   79.2413   65.0542 C.3       4 GLC5        0.0000 
    105 CA         13.3875   71.8056   61.8006 C.3       4 GLC5        0.0000 
    106 CA         12.0070   70.9170   63.0150 C.3      12 GLL5        0.0000 
@<TRIPOS>BOND
@<TRIPOS>SUBSTRUCTURE
     1 ALC1       27 GROUP        1 X    ALC  0     ROOT ALC X 1
     2 SEC2        4 GROUP        1 X    SEC  0     **** SEC X 2
     3 LYC4        1 GROUP        1 X    LYC  0     **** LYC X 4
     4 GLC5       11 GROUP        1 X    GLC  0     **** GLC X 6
     5 ALP1       29 GROUP        1 Y    ALP  0     ROOT ALP Y 8
     6 SEP2        6 GROUP        1 Y    SEP  0     **** SEP Y 9
     7 LYP4        3 GROUP        1 Y    LYP  0     **** LYP Y 11
     8 GLP5       13 GROUP        1 Y    GLP  0     **** GLP Y 13
     9 ALL1       28 GROUP        1 Z    ALL  0     ROOT ALL Z 15
    10 SEL2        5 GROUP        1 Z    SEL  0     **** SEL Z 16
    11 LYL4        2 GROUP        1 Z    LYL  0     **** LYL Z 18
    12 GLL5       12 GROUP        1 Z    GLL  0     **** GLL Z 20
@<TRIPOS>SET

