#    Name: 1r3q_1CP_1_ligand
#    Modification time : Tue Mar 25 00:18:52 2014

@<TRIPOS>MOLECULE
1r3q_1CP_1_ligand
   88    92     1     0     0
SMALL
NO_CHARGES


@<TRIPOS>ATOM
      1 O18         4.1530   72.0630   58.9010 O.co2     1 1CP901      0.0000 
      2 C43         4.9890   72.9760   59.1130 C.2       1 1CP901      0.0000 
      3 O28         4.9030   74.1380   58.6490 O.co2     1 1CP901      0.0000 
      4 C42         6.1610   72.6180   60.0020 C.3       1 1CP901      0.0000 
      5 C41         7.2890   73.6500   60.1050 C.3       1 1CP901      0.0000 
      6 C8          8.1740   73.0050   61.1670 C.2       1 1CP901      0.0000 
      7 C7          9.0820   71.9460   60.9140 C.2       1 1CP901      0.0000 
      8 C7A         9.3920   71.3260   59.5450 C.3       1 1CP901      0.0000 
      9 C9          8.2080   73.3190   62.5030 C.2       1 1CP901      0.0000 
     10 C10         7.4340   74.3660   63.2910 C.3       1 1CP901      0.0000 
     11 N22         9.1420   72.4820   63.0800 N.pl3     1 1CP901      0.0000 
     12 C6          9.7030   71.6310   62.1080 C.2       1 1CP901      0.0000 
     13 C5         10.6910   70.5330   62.4060 C.3       1 1CP901      0.0000 
     14 C4         12.0070   70.9170   63.0150 C.2       1 1CP901      0.0000 
     15 N21        12.2790   72.1160   63.6370 N.pl3     1 1CP901      0.0000 
     16 C3         13.1280   70.1300   63.0490 C.2       1 1CP901      0.0000 
     17 C31        13.2360   68.6780   62.5850 C.3       1 1CP901      0.0000 
     18 C32        14.2830   68.3530   61.5440 C.3       1 1CP901      0.0000 
     19 C33        13.6650   68.4440   60.1620 C.2       1 1CP901      0.0000 
     20 O23        14.3760   68.1120   59.1730 O.co2     1 1CP901      0.0000 
     21 O13        12.4760   68.9150   60.1030 O.co2     1 1CP901      0.0000 
     22 C2         14.1190   70.8850   63.7160 C.2       1 1CP901      0.0000 
     23 C2A        15.5430   70.4580   64.0260 C.3       1 1CP901      0.0000 
     24 C1         13.5780   72.0730   64.0410 C.2       1 1CP901      0.0000 
     25 C20        14.3760   73.1070   64.7640 C.3       1 1CP901      0.0000 
     26 C19        13.6940   74.3560   65.2200 C.2       1 1CP901      0.0000 
     27 N24        12.3510   74.5300   65.5510 N.pl3     1 1CP901      0.0000 
     28 C18        14.3430   75.5440   65.3500 C.2       1 1CP901      0.0000 
     29 C61        15.8330   75.8620   65.0920 C.3       1 1CP901      0.0000 
     30 C62        16.0310   76.9240   63.9580 C.3       1 1CP901      0.0000 
     31 C63        17.4730   77.0910   63.5160 C.2       1 1CP901      0.0000 
     32 O1R        17.8610   76.5450   62.4440 O.co2     1 1CP901      0.0000 
     33 O2R        18.2650   77.7600   64.2330 O.co2     1 1CP901      0.0000 
     34 C17        13.3850   76.4740   65.8050 C.2       1 1CP901      0.0000 
     35 C86        13.7520   77.9150   66.0980 C.3       1 1CP901      0.0000 
     36 C16        12.1670   75.8440   65.9130 C.2       1 1CP901      0.0000 
     37 C15        10.8420   76.3920   66.3780 C.3       1 1CP901      0.0000 
     38 C14         9.8540   76.3660   65.2100 C.2       1 1CP901      0.0000 
     39 N23         9.1470   75.2580   64.9000 N.pl3     1 1CP901      0.0000 
     40 C11         8.3320   75.4640   63.8070 C.2       1 1CP901      0.0000 
     41 C12         8.5750   76.7470   63.4100 C.2       1 1CP901      0.0000 
     42 C81         7.8930   77.4510   62.2450 C.3       1 1CP901      0.0000 
     43 C13         9.5150   77.3450   64.3080 C.2       1 1CP901      0.0000 
     44 C91        10.1210   78.7510   64.2020 C.3       1 1CP901      0.0000 
     45 C92         9.3460   79.9200   64.8330 C.3       1 1CP901      0.0000 
     46 C53         9.9070   81.3180   64.5420 C.2       1 1CP901      0.0000 
     47 O2M         9.5420   81.8740   63.4580 O.co2     1 1CP901      0.0000 
     48 O1M        10.6790   81.9060   65.3480 O.co2     1 1CP901      0.0000 
     49 H           6.6006   71.6541   59.6514 H         1 1CP901      0.0000 
     50 H           5.7843   72.4086   61.0314 H         1 1CP901      0.0000 
     51 H           6.9065   74.5604   60.4593 H         1 1CP901      0.0000 
     52 H           7.8038   73.7060   59.1926 H         1 1CP901      0.0000 
     53 H           6.9314   73.8780   64.1345 H         1 1CP901      0.0000 
     54 H           6.6610   74.7991   62.6451 H         1 1CP901      0.0000 
     55 H           9.3853   72.4697   64.0094 H         1 1CP901      0.0000 
     56 H          10.8867   69.9632   61.4550 H         1 1CP901      0.0000 
     57 H          10.1916   69.7773   63.0744 H         1 1CP901      0.0000 
     58 H          11.6672   72.8326   63.7565 H         1 1CP901      0.0000 
     59 H          12.2334   68.3582   62.2011 H         1 1CP901      0.0000 
     60 H          13.4104   68.0352   63.4858 H         1 1CP901      0.0000 
     61 H          14.6581   67.3470   61.7061 H         1 1CP901      0.0000 
     62 H          15.1037   69.0599   61.6196 H         1 1CP901      0.0000 
     63 H          15.2581   73.3970   64.1166 H         1 1CP901      0.0000 
     64 H          14.8667   72.6197   65.6602 H         1 1CP901      0.0000 
     65 H          11.6866   73.8516   65.5271 H         1 1CP901      0.0000 
     66 H          16.3515   74.9480   64.8032 H         1 1CP901      0.0000 
     67 H          16.2829   76.2463   66.0072 H         1 1CP901      0.0000 
     68 H          15.6403   77.8844   64.3235 H         1 1CP901      0.0000 
     69 H          15.4118   76.6219   63.1012 H         1 1CP901      0.0000 
     70 H          10.9626   77.4139   66.7164 H         1 1CP901      0.0000 
     71 H          10.4522   75.7828   67.1844 H         1 1CP901      0.0000 
     72 H           9.1961   74.4055   65.3825 H         1 1CP901      0.0000 
     73 H          10.2870   78.9834   63.1203 H         1 1CP901      0.0000 
     74 H          11.1465   78.7282   64.6487 H         1 1CP901      0.0000 
     75 H           9.3132   79.7709   65.9299 H         1 1CP901      0.0000 
     76 H           8.2962   79.8778   64.4828 H         1 1CP901      0.0000 
     77 H           9.7617   72.0012   58.9067 H         1 1CP901      0.0000 
     78 H          10.0647   70.5894   59.6146 H         1 1CP901      0.0000 
     79 H           8.5747   70.9373   59.1197 H         1 1CP901      0.0000 
     80 H          16.0571   70.2479   63.1944 H         1 1CP901      0.0000 
     81 H          16.0480   71.1726   64.5101 H         1 1CP901      0.0000 
     82 H          15.5687   69.6402   64.6009 H         1 1CP901      0.0000 
     83 H          14.4494   77.9829   66.8115 H         1 1CP901      0.0000 
     84 H          14.1143   78.3778   65.2890 H         1 1CP901      0.0000 
     85 H          12.9621   78.4436   66.4089 H         1 1CP901      0.0000 
     86 H           8.2224   78.3886   62.1334 H         1 1CP901      0.0000 
     87 H           8.0554   76.9782   61.3789 H         1 1CP901      0.0000 
     88 H           6.9021   77.5014   62.3701 H         1 1CP901      0.0000 
@<TRIPOS>BOND
     1    2    1 ar   
     2    3    2 ar   
     3    4    2 1    
     4    5    4 1    
     5   49    4 1    
     6   50    4 1    
     7    6    5 1    
     8   51    5 1    
     9   52    5 1    
    10    7    6 1    
    11    9    6 2    
    12    8    7 1    
    13   12    7 2    
    14   77    8 1    
    15   78    8 1    
    16   79    8 1    
    17   10    9 1    
    18   11    9 1    
    19   40   10 1    
    20   53   10 1    
    21   54   10 1    
    22   12   11 1    
    23   55   11 1    
    24   13   12 1    
    25   14   13 1    
    26   56   13 1    
    27   57   13 1    
    28   15   14 1    
    29   16   14 2    
    30   24   15 1    
    31   58   15 1    
    32   17   16 1    
    33   22   16 1    
    34   18   17 1    
    35   59   17 1    
    36   60   17 1    
    37   19   18 1    
    38   61   18 1    
    39   62   18 1    
    40   20   19 ar   
    41   21   19 ar   
    42   23   22 1    
    43   24   22 2    
    44   80   23 1    
    45   81   23 1    
    46   82   23 1    
    47   25   24 1    
    48   26   25 1    
    49   63   25 1    
    50   64   25 1    
    51   27   26 1    
    52   28   26 2    
    53   36   27 1    
    54   65   27 1    
    55   29   28 1    
    56   34   28 1    
    57   30   29 1    
    58   66   29 1    
    59   67   29 1    
    60   31   30 1    
    61   68   30 1    
    62   69   30 1    
    63   32   31 ar   
    64   33   31 ar   
    65   35   34 1    
    66   36   34 2    
    67   83   35 1    
    68   84   35 1    
    69   85   35 1    
    70   37   36 1    
    71   38   37 1    
    72   70   37 1    
    73   71   37 1    
    74   39   38 1    
    75   43   38 2    
    76   40   39 1    
    77   72   39 1    
    78   41   40 2    
    79   42   41 1    
    80   43   41 1    
    81   86   42 1    
    82   87   42 1    
    83   88   42 1    
    84   44   43 1    
    85   45   44 1    
    86   73   44 1    
    87   74   44 1    
    88   46   45 1    
    89   75   45 1    
    90   76   45 1    
    91   47   46 ar   
    92   48   46 ar   
@<TRIPOS>SUBSTRUCTURE
     1 1CP901      1 GROUP   
@<TRIPOS>SET

