#    Name: 2nun_ADP_1_INTS_M
#    Modification time : Tue Mar 25 21:36:14 2014

@<TRIPOS>MOLECULE
2nun_ADP_1_INTS_M
   45     0    12     0     0
SMALL
NO_CHARGES


@<TRIPOS>ATOM
      1 N         -84.0135   38.5410   -5.4315 N.am      2 SEC2        0.0000 
      2 N         -82.6170   39.4970   -5.0930 N.am     10 SEL2        0.0000 
      3 N         -85.4100   37.5850   -5.7700 N.am      6 SEP2        0.0000 
      4 NZ        -84.1160   38.4745   -7.4380 N.4       3 LYC4        0.0000 
      5 NZ        -83.9660   39.7890   -7.1610 N.4      11 LYL4        0.0000 
      6 NZ        -85.3060   36.9480   -6.9300 N.4       7 LYP4        0.0000 
      7 N         -84.1160   38.4745   -7.4380 N.am      2 SEC2        0.0000 
      8 N         -83.9660   39.7890   -7.1610 N.am     10 SEL2        0.0000 
      9 N         -84.2660   37.1600   -7.7150 N.am      6 SEP2        0.0000 
     10 N         -85.1785   39.0050   -5.3215 N.am      2 SEC2        0.0000 
     11 N         -84.9470   40.4250   -4.8730 N.am     10 SEL2        0.0000 
     12 N         -85.9220   41.1360   -4.6840 N.am      2 SEC2        0.0000 
     13 N         -86.8970   41.8470   -4.4950 N.am      6 SEP2        0.0000 
     14 N         -83.1365   44.5015   -3.4700 N.am      2 SEC2        0.0000 
     15 N         -82.4640   43.2970   -4.1960 N.am     10 SEL2        0.0000 
     16 N         -83.8090   45.7060   -2.7440 N.am      6 SEP2        0.0000 
     17 CA        -81.1585   45.9975   -5.4235 C.3       4 GLC5        0.0000 
     18 CA        -80.8460   46.0440   -7.4220 C.3      12 GLL5        0.0000 
     19 CA        -81.4710   45.9510   -3.4250 C.3       8 GLP5        0.0000 
     20 CA        -82.6035   47.0970   -6.8065 C.3       4 GLC5        0.0000 
     21 CA        -84.3610   48.1500   -6.1910 C.3       8 GLP5        0.0000 
     22 CA        -82.9730   46.5955  -10.3980 C.3       4 GLC5        0.0000 
     23 CA        -81.6870   46.1640   -8.6950 C.3      12 GLL5        0.0000 
     24 CA        -84.2590   47.0270  -12.1010 C.3       8 GLP5        0.0000 
     25 CA        -83.3725   46.7595   -7.9935 C.3       4 GLC5        0.0000 
     26 CA        -85.0580   47.3550   -7.2920 C.3       8 GLP5        0.0000 
     27 N         -83.3315   47.1640   -9.8780 N.am      2 SEC2        0.0000 
     28 N         -82.1680   47.4800   -8.9980 N.am     10 SEL2        0.0000 
     29 N         -84.4950   46.8480  -10.7580 N.am      6 SEP2        0.0000 
     30 O         -81.1970   48.1645   -9.5720 O.2       1 ALC1        0.0000 
     31 O         -82.1680   47.4800   -8.9980 O.2       9 ALL1        0.0000 
     32 O         -80.2260   48.8490  -10.1460 O.2       5 ALP1        0.0000 
     33 CA        -81.9535   46.7320  -11.1440 C.3       4 GLC5        0.0000 
     34 CA        -80.7170   45.6440   -9.7720 C.3      12 GLL5        0.0000 
     35 CA        -83.1900   47.8200  -12.5160 C.3       8 GLP5        0.0000 
     36 CA        -82.5960   46.0540  -15.3970 C.3       4 GLC5        0.0000 
     37 CA        -81.6710   44.5070  -14.4930 C.3      12 GLL5        0.0000 
     38 CA        -83.5210   47.6010  -16.3010 C.3       8 GLP5        0.0000 
     39 CA        -78.7475   47.4520  -12.6810 C.3       4 GLC5        0.0000 
     40 CA        -79.7380   45.9440  -14.0100 C.3      12 GLL5        0.0000 
     41 CA        -77.7570   48.9600  -11.3520 C.3       8 GLP5        0.0000 
     42 CA        -79.0955   45.9270  -15.9380 C.3       4 GLC5        0.0000 
     43 CA        -78.4530   45.9100  -17.8660 C.3       8 GLP5        0.0000 
     44 CA        -79.6720   48.1335  -14.2485 C.3       4 GLC5        0.0000 
     45 CA        -79.6060   50.3230  -14.4870 C.3       8 GLP5        0.0000 
@<TRIPOS>BOND
@<TRIPOS>SUBSTRUCTURE
     1 ALC1       30 GROUP        1 X    ALC  0     ROOT ALC X 1
     2 SEC2        1 GROUP        1 X    SEC  0     **** SEC X 2
     3 LYC4        4 GROUP        1 X    LYC  0     **** LYC X 4
     4 GLC5       17 GROUP        1 X    GLC  0     **** GLC X 6
     5 ALP1       32 GROUP        1 Y    ALP  0     ROOT ALP Y 8
     6 SEP2        3 GROUP        1 Y    SEP  0     **** SEP Y 9
     7 LYP4        6 GROUP        1 Y    LYP  0     **** LYP Y 11
     8 GLP5       19 GROUP        1 Y    GLP  0     **** GLP Y 13
     9 ALL1       31 GROUP        1 Z    ALL  0     ROOT ALL Z 15
    10 SEL2        2 GROUP        1 Z    SEL  0     **** SEL Z 16
    11 LYL4        5 GROUP        1 Z    LYL  0     **** LYL Z 18
    12 GLL5       18 GROUP        1 Z    GLL  0     **** GLL Z 20
@<TRIPOS>SET

