#    Name: 2nun_ADP_1_ligand
#    Modification time : Tue Mar 25 21:36:14 2014

@<TRIPOS>MOLECULE
2nun_ADP_1_ligand
   38    40     1     0     0
SMALL
NO_CHARGES


@<TRIPOS>ATOM
      1 PB        -83.6720   40.2870   -5.7880 P.3       1 ADP600      0.0000 
      2 O1B       -82.6170   39.4970   -5.0930 O.co2     1 ADP600      0.0000 
      3 O2B       -83.9660   39.7890   -7.1610 O.co2     1 ADP600      0.0000 
      4 O3B       -84.9470   40.4250   -4.8730 O.co2     1 ADP600      0.0000 
      5 PA        -83.0480   43.1420   -5.5530 P.3       1 ADP600      0.0000 
      6 O1A       -84.3970   43.7140   -5.7100 O.co2     1 ADP600      0.0000 
      7 O2A       -82.4640   43.2970   -4.1960 O.co2     1 ADP600      0.0000 
      8 O3A       -82.9380   41.6430   -5.9950 O.3       1 ADP600      0.0000 
      9 O5'       -82.3110   43.7690   -6.8040 O.3       1 ADP600      0.0000 
     10 C5'       -80.9360   43.4600   -7.1580 C.3       1 ADP600      0.0000 
     11 C4'       -80.1810   44.6830   -7.6430 C.3       1 ADP600      0.0000 
     12 O4'       -79.8900   44.7050   -9.0850 O.3       1 ADP600      0.0000 
     13 C3'       -80.8460   46.0440   -7.4220 C.3       1 ADP600      0.0000 
     14 O3'       -79.7640   46.9810   -7.2720 O.3       1 ADP600      0.0000 
     15 C2'       -81.6870   46.1640   -8.6950 C.3       1 ADP600      0.0000 
     16 O2'       -82.1680   47.4800   -8.9980 O.3       1 ADP600      0.0000 
     17 C1'       -80.7170   45.6440   -9.7720 C.3       1 ADP600      0.0000 
     18 N9        -81.3920   45.0360  -10.9750 N.pl3     1 ADP600      0.0000 
     19 C8        -82.4960   44.2340  -11.0300 C.2       1 ADP600      0.0000 
     20 N7        -82.8220   43.8840  -12.2930 N.2       1 ADP600      0.0000 
     21 C5        -81.8790   44.4930  -13.0550 C.ar      1 ADP600      0.0000 
     22 C6        -81.6710   44.5070  -14.4930 C.ar      1 ADP600      0.0000 
     23 N6        -82.3980   43.9050  -15.3750 N.pl3     1 ADP600      0.0000 
     24 N1        -80.5750   45.2600  -14.8970 N.ar      1 ADP600      0.0000 
     25 C2        -79.7380   45.9440  -14.0100 C.ar      1 ADP600      0.0000 
     26 N3        -79.9170   45.9380  -12.6820 N.ar      1 ADP600      0.0000 
     27 C4        -80.9840   45.2110  -12.2570 C.ar      1 ADP600      0.0000 
     28 H         -80.9000   42.6952   -7.9538 H         1 ADP600      0.0000 
     29 H         -80.3940   43.0421   -6.2913 H         1 ADP600      0.0000 
     30 H         -79.2020   44.7420   -7.1192 H         1 ADP600      0.0000 
     31 H         -81.4684   45.9518   -6.5870 H         1 ADP600      0.0000 
     32 H         -82.4773   45.4263   -8.6255 H         1 ADP600      0.0000 
     33 H         -80.1127   46.4977  -10.0843 H         1 ADP600      0.0000 
     34 H         -82.9972   43.9451  -10.2269 H         1 ADP600      0.0000 
     35 H         -78.9324   46.4845  -14.4309 H         1 ADP600      0.0000 
     36 H         -80.1888   47.8824   -7.3565 H         1 ADP600      0.0000 
     37 H         -81.3937   47.9463   -9.4258 H         1 ADP600      0.0000 
     38 H         -81.7742   43.7026  -16.1299 H         1 ADP600      0.0000 
@<TRIPOS>BOND
     1    2    1 ar   
     2    3    1 ar   
     3    4    1 ar   
     4    8    1 1    
     5    6    5 ar   
     6    7    5 ar   
     7    8    5 1    
     8    9    5 1    
     9   10    9 1    
    10   11   10 1    
    11   28   10 1    
    12   29   10 1    
    13   12   11 1    
    14   13   11 1    
    15   30   11 1    
    16   17   12 1    
    17   14   13 1    
    18   15   13 1    
    19   31   13 1    
    20   36   14 1    
    21   16   15 1    
    22   17   15 1    
    23   32   15 1    
    24   37   16 1    
    25   18   17 1    
    26   33   17 1    
    27   19   18 1    
    28   27   18 1    
    29   20   19 2    
    30   34   19 1    
    31   21   20 1    
    32   22   21 ar   
    33   27   21 ar   
    34   23   22 1    
    35   24   22 ar   
    36   38   23 1    
    37   25   24 ar   
    38   26   25 ar   
    39   35   25 1    
    40   27   26 ar   
@<TRIPOS>SUBSTRUCTURE
     1 ADP600      1 GROUP   
@<TRIPOS>SET

