#    Name: 3rlp_3RP_2_INTS_M
#    Modification time : Tue Mar 25 11:38:59 2014

@<TRIPOS>MOLECULE
3rlp_3RP_2_INTS_M
   52     0     6     0     0
SMALL
NO_CHARGES


@<TRIPOS>ATOM
      1 O          17.5290   40.4295   37.9885 O.2       1 ALC1        0.0000 
      2 O          16.4900   40.3460   38.8900 O.2       5 ALL1        0.0000 
      3 O          18.5680   40.5130   37.0870 O.2       3 ALP1        0.0000 
      4 CA         17.7860   34.4870   40.4375 C.3       2 GLC5        0.0000 
      5 CA         16.2690   35.6930   40.1730 C.3       6 GLL5        0.0000 
      6 CA         19.3030   33.2810   40.7020 C.3       4 GLP5        0.0000 
      7 CA         16.7465   34.6200   38.5430 C.3       2 GLC5        0.0000 
      8 CA         17.2240   33.5470   36.9130 C.3       4 GLP5        0.0000 
      9 CA         14.6950   34.7245   39.7450 C.3       2 GLC5        0.0000 
     10 CA         13.1210   33.7560   39.3170 C.3       4 GLP5        0.0000 
     11 CA         10.1825   37.9770   40.7155 C.3       2 GLC5        0.0000 
     12 CA         11.5670   39.4110   40.8130 C.3       6 GLL5        0.0000 
     13 CA          8.7980   36.5430   40.6180 C.3       4 GLP5        0.0000 
     14 CA          9.0580   38.6430   40.8820 C.3       2 GLC5        0.0000 
     15 CA         10.3640   39.6980   41.5120 C.3       6 GLL5        0.0000 
     16 CA          7.7520   37.5880   40.2520 C.3       4 GLP5        0.0000 
     17 CA          9.5440   38.0375   41.7705 C.3       2 GLC5        0.0000 
     18 CA         10.2900   39.5320   42.9230 C.3       6 GLL5        0.0000 
     19 CA         14.8425   40.4300   41.6800 C.3       2 GLC5        0.0000 
     20 CA         13.9980   38.6070   40.8500 C.3       6 GLL5        0.0000 
     21 CA         15.6870   42.2530   42.5100 C.3       4 GLP5        0.0000 
     22 CA         15.7520   40.7910   41.0325 C.3       2 GLC5        0.0000 
     23 CA         15.8170   39.3290   39.5550 C.3       6 GLL5        0.0000 
     24 CA         17.6460   38.4330   40.0770 C.3       2 GLC5        0.0000 
     25 CA         19.4750   37.5370   40.5990 C.3       4 GLP5        0.0000 
     26 CA         15.8005   38.7210   37.6385 C.3       2 GLC5        0.0000 
     27 CA         15.7840   38.1130   35.7220 C.3       4 GLP5        0.0000 
     28 CA         11.8525   37.8870   38.6715 C.3       2 GLC5        0.0000 
     29 CA         11.5590   39.6480   39.0870 C.3       6 GLL5        0.0000 
     30 CA         12.1460   36.1260   38.2560 C.3       4 GLP5        0.0000 
     31 CA          9.7475   38.8415   38.9480 C.3       2 GLC5        0.0000 
     32 CA          7.9360   38.0350   38.8090 C.3       4 GLP5        0.0000 
     33 CA         10.6385   41.2710   39.5535 C.3       2 GLC5        0.0000 
     34 CA          9.7180   42.8940   40.0200 C.3       4 GLP5        0.0000 
     35 CA         11.1725   39.1345   37.1875 C.3       2 GLC5        0.0000 
     36 CA         10.7860   38.6210   35.2880 C.3       4 GLP5        0.0000 
     37 CA         12.9715   39.1795   37.4265 C.3       2 GLC5        0.0000 
     38 CA         14.3840   38.7110   35.7660 C.3       4 GLP5        0.0000 
     39 CA         12.1610   41.1415   37.6100 C.3       2 GLC5        0.0000 
     40 CA         12.7630   42.6350   36.1330 C.3       4 GLP5        0.0000 
     41 CA          8.2650   38.7420   41.9740 C.3       2 GLC5        0.0000 
     42 CA          8.7780   39.8960   43.6960 C.3       6 GLL5        0.0000 
     43 CA          7.0165   40.7545   44.1840 C.3       2 GLC5        0.0000 
     44 CA          5.2550   41.6130   44.6720 C.3       4 GLP5        0.0000 
     45 CA         17.7250   36.9590   40.3917 C.3       2 GLC5        0.0000 
     46 CA         15.6810   37.0690   40.1960 C.3       6 GLL5        0.0000 
     47 CA         12.1475   37.6510   39.7122 C.3       2 GLC5        0.0000 
     48 CA         12.7310   38.9410   41.5240 C.3       6 GLL5        0.0000 
     49 CA         10.2877   41.3182   41.8432 C.3       2 GLC5        0.0000 
     50 CA          9.6100   43.0820   42.5240 C.3       4 GLP5        0.0000 
     51 CA          9.5720   41.3980   42.9168 C.3       2 GLC5        0.0000 
     52 CA         13.3436   37.0097   39.4741 C.3       2 GLC5        0.0000 
@<TRIPOS>BOND
@<TRIPOS>SUBSTRUCTURE
     1 ALC1        1 GROUP        1 X    ALC  0     ROOT ALC X 1
     2 GLC5        4 GROUP        1 X    GLC  0     **** GLC X 6
     3 ALP1        3 GROUP        1 Y    ALP  0     ROOT ALP Y 8
     4 GLP5        6 GROUP        1 Y    GLP  0     **** GLP Y 13
     5 ALL1        2 GROUP        1 Z    ALL  0     ROOT ALL Z 15
     6 GLL5        5 GROUP        1 Z    GLL  0     **** GLL Z 20
@<TRIPOS>SET

