#    Name: 3rlp_3RP_2_ligand
#    Modification time : Tue Mar 25 11:39:00 2014

@<TRIPOS>MOLECULE
3rlp_3RP_2_ligand
   29    30     1     0     0
SMALL
NO_CHARGES


@<TRIPOS>ATOM
      1 N1         16.3550   38.0660   39.5350 N.ar      1 3RP901      0.0000 
      2 N3         16.4900   40.3460   38.8900 N.pl3     1 3RP901      0.0000 
      3 C4         15.6810   37.0690   40.1960 C.ar      1 3RP901      0.0000 
      4 C5         16.2690   35.6930   40.1730 C.3       1 3RP901      0.0000 
      5 C6         12.7310   38.9410   41.5240 C.ar      1 3RP901      0.0000 
      6 C7         11.5670   39.4110   40.8130 C.ar      1 3RP901      0.0000 
      7 C8         10.3640   39.6980   41.5120 C.ar      1 3RP901      0.0000 
      8 C10        11.4300   39.0770   43.6690 C.ar      1 3RP901      0.0000 
      9 C11        12.6350   38.7870   42.9490 C.ar      1 3RP901      0.0000 
     10 C3         14.4880   37.2910   40.8730 C.ar      1 3RP901      0.0000 
     11 C9         10.2900   39.5320   42.9230 C.ar      1 3RP901      0.0000 
     12 C2         13.9980   38.6070   40.8500 C.ar      1 3RP901      0.0000 
     13 C1         15.8170   39.3290   39.5550 C.ar      1 3RP901      0.0000 
     14 C12        12.3550   38.5040   45.8620 C.3       1 3RP901      0.0000 
     15 N2         14.6470   39.6290   40.1990 N.ar      1 3RP901      0.0000 
     16 O1         11.2640   38.9520   45.0440 O.3       1 3RP901      0.0000 
     17 CL1        11.5590   39.6480   39.0870 Cl        1 3RP901      0.0000 
     18 CL2         8.7780   39.8960   43.6960 Cl        1 3RP901      0.0000 
     19 H          17.3144   40.0761   38.3925 H         1 3RP901      0.0000 
     20 H          16.0920   41.2602   38.9662 H         1 3RP901      0.0000 
     21 H           9.5443   40.0265   40.9977 H         1 3RP901      0.0000 
     22 H          13.4598   38.4573   43.4693 H         1 3RP901      0.0000 
     23 H          14.0009   36.5608   41.3512 H         1 3RP901      0.0000 
     24 H          17.1803   35.6716   40.5842 H         1 3RP901      0.0000 
     25 H          15.7045   35.0394   40.6772 H         1 3RP901      0.0000 
     26 H          16.3600   35.3435   39.2405 H         1 3RP901      0.0000 
     27 H          12.6675   37.5917   45.5973 H         1 3RP901      0.0000 
     28 H          13.1441   39.1147   45.7958 H         1 3RP901      0.0000 
     29 H          12.1004   38.4578   46.8279 H         1 3RP901      0.0000 
@<TRIPOS>BOND
     1    3    1 ar   
     2   13    1 ar   
     3   13    2 1    
     4   19    2 1    
     5   20    2 1    
     6    4    3 1    
     7   10    3 ar   
     8   24    4 1    
     9   25    4 1    
    10   26    4 1    
    11    6    5 ar   
    12    9    5 ar   
    13   12    5 1    
    14    7    6 ar   
    15   17    6 1    
    16   11    7 ar   
    17   21    7 1    
    18    9    8 ar   
    19   11    8 ar   
    20   16    8 1    
    21   22    9 1    
    22   12   10 ar   
    23   23   10 1    
    24   18   11 1    
    25   15   12 ar   
    26   15   13 ar   
    27   16   14 1    
    28   27   14 1    
    29   28   14 1    
    30   29   14 1    
@<TRIPOS>SUBSTRUCTURE
     1 3RP901      1 GROUP   
@<TRIPOS>SET

