#    Name: 1kc1_NDP_1_INTS_M
#    Modification time : Tue Mar 25 09:49:24 2014

@<TRIPOS>MOLECULE
1kc1_NDP_1_INTS_M
   90     0     9     0     0
SMALL
NO_CHARGES


@<TRIPOS>ATOM
      1 N           9.5020  -16.5405   14.6675 N.am      2 SEC2        0.0000 
      2 N           9.2960  -15.0820   14.5300 N.am      8 SEL2        0.0000 
      3 N           9.7080  -17.9990   14.8050 N.am      5 SEP2        0.0000 
      4 N           7.5715  -11.4885   15.0100 N.am      2 SEC2        0.0000 
      5 N           7.9670  -12.9180   14.7780 N.am      8 SEL2        0.0000 
      6 N           7.1760  -10.0590   15.2420 N.am      5 SEP2        0.0000 
      7 CA         11.8565  -15.6875   18.2295 C.3       3 GLC5        0.0000 
      8 CA         10.8290  -14.2850   17.0010 C.3       9 GLL5        0.0000 
      9 CA         12.8840  -17.0900   19.4580 C.3       6 GLP5        0.0000 
     10 CA          9.9750  -16.1905   17.0445 C.3       3 GLC5        0.0000 
     11 CA          9.1210  -18.0960   17.0880 C.3       6 GLP5        0.0000 
     12 N          13.2035  -14.9695   18.1900 N.am      2 SEC2        0.0000 
     13 N          13.3240  -14.3010   17.0000 N.am      8 SEL2        0.0000 
     14 N          13.0830  -15.6380   19.3800 N.am      5 SEP2        0.0000 
     15 CA         10.9595  -11.3160   15.4990 C.3       3 GLC5        0.0000 
     16 CA         12.3140  -12.7760   15.5140 C.3       9 GLL5        0.0000 
     17 CA          9.6050   -9.8560   15.4840 C.3       6 GLP5        0.0000 
     18 CA         13.9230  -13.5575   18.1770 C.3       3 GLC5        0.0000 
     19 CA         14.2610  -13.6660   16.0840 C.3       9 GLL5        0.0000 
     20 CA         13.5850  -13.4490   20.2700 C.3       6 GLP5        0.0000 
     21 CA         18.8330  -15.9865   18.4540 C.3       3 GLC5        0.0000 
     22 CA         18.5120  -15.6560   16.4310 C.3       9 GLL5        0.0000 
     23 CA         19.1540  -16.3170   20.4770 C.3       6 GLP5        0.0000 
     24 O          20.8215  -16.0215   16.1900 O.2       1 ALC1        0.0000 
     25 O          19.4040  -16.5900   15.9460 O.2       7 ALL1        0.0000 
     26 O          22.2390  -15.4530   16.4340 O.2       4 ALP1        0.0000 
     27 N          19.9440  -14.9195   18.4945 N.am      2 SEC2        0.0000 
     28 N          18.9080  -14.8680   17.5040 N.am      8 SEL2        0.0000 
     29 N          20.9800  -14.9710   19.4850 N.am      5 SEP2        0.0000 
     30 CA         18.8865  -13.3965   16.5425 C.3       3 GLC5        0.0000 
     31 CA         18.0490  -13.9170   18.0110 C.3       9 GLL5        0.0000 
     32 CA         19.7240  -12.8760   15.0740 C.3       6 GLP5        0.0000 
     33 CA         20.1610  -13.6020   18.1470 C.3       3 GLC5        0.0000 
     34 CA         22.2730  -13.2870   18.2830 C.3       6 GLP5        0.0000 
     35 CA         18.6015  -15.1170   19.2440 C.3       3 GLC5        0.0000 
     36 CA         16.5395  -13.5460   19.1720 C.3       3 GLC5        0.0000 
     37 CA         15.0300  -13.1750   20.3330 C.3       6 GLP5        0.0000 
     38 CA         15.7295  -13.8340   18.4005 C.3       3 GLC5        0.0000 
     39 CA         16.4290  -14.4930   16.4680 C.3       9 GLL5        0.0000 
     40 N           6.4190  -11.2195   17.7890 N.am      2 SEC2        0.0000 
     41 N           7.0770  -12.6170   17.7200 N.am      8 SEL2        0.0000 
     42 N           5.7610   -9.8220   17.8580 N.am      5 SEP2        0.0000 
     43 N           8.1575  -11.9350   18.1415 N.am      2 SEC2        0.0000 
     44 N           9.2380  -11.2530   18.5630 N.am      5 SEP2        0.0000 
     45 N           4.4195  -13.8280   15.7685 N.am      2 SEC2        0.0000 
     46 N           5.1530  -14.1540   16.9120 N.am      8 SEL2        0.0000 
     47 N           3.6860  -13.5020   14.6250 N.am      5 SEP2        0.0000 
     48 CA          5.9325  -12.9665   19.8180 C.3       3 GLC5        0.0000 
     49 CA          7.4000  -14.5590   19.7560 C.3       9 GLL5        0.0000 
     50 CA          4.4650  -11.3740   19.8800 C.3       6 GLP5        0.0000 
     51 CA          9.8055  -16.9265   20.7405 C.3       3 GLC5        0.0000 
     52 CA          8.0080  -16.4930   21.3250 C.3       9 GLL5        0.0000 
     53 CA         11.6030  -17.3600   20.1560 C.3       6 GLP5        0.0000 
     54 N           8.6885  -18.1045   22.7935 N.am      2 SEC2        0.0000 
     55 N           7.9800  -17.0170   22.6120 N.am      8 SEL2        0.0000 
     56 N           9.3970  -19.1920   22.9750 N.am      5 SEP2        0.0000 
     57 CA          8.1215  -17.7360   18.8420 C.3       3 GLC5        0.0000 
     58 CA          7.1220  -17.3760   20.5960 C.3       9 GLL5        0.0000 
     59 CA          8.0260  -19.0035   21.8440 C.3       3 GLC5        0.0000 
     60 CA          8.9300  -20.6310   23.0920 C.3       6 GLP5        0.0000 
     61 N           8.3800  -18.9595   21.8255 N.am      2 SEC2        0.0000 
     62 N           7.3630  -18.7270   20.6760 N.am      8 SEL2        0.0000 
     63 O           6.6465  -19.7855   20.1000 O.2       1 ALC1        0.0000 
     64 O           7.3630  -18.7270   20.6760 O.2       7 ALL1        0.0000 
     65 O           5.9300  -20.8440   19.5240 O.2       4 ALP1        0.0000 
     66 CA          6.2625  -16.1340   22.9600 C.3       3 GLC5        0.0000 
     67 CA          5.8470  -17.0040   21.2320 C.3       9 GLL5        0.0000 
     68 CA          6.6780  -15.2640   24.6880 C.3       6 GLP5        0.0000 
     69 CA          3.9145  -16.6380   22.0840 C.3       3 GLC5        0.0000 
     70 CA          1.9820  -16.2720   22.9360 C.3       6 GLP5        0.0000 
     71 CA          2.9140  -16.4480   19.3730 C.3       3 GLC5        0.0000 
     72 CA          4.5470  -17.4370   18.9140 C.3       9 GLL5        0.0000 
     73 CA          1.2810  -15.4590   19.8320 C.3       6 GLP5        0.0000 
     74 CA          2.4840  -16.5865   18.2070 C.3       3 GLC5        0.0000 
     75 CA          3.5830  -18.1180   18.1550 C.3       9 GLL5        0.0000 
     76 CA          1.3850  -15.0550   18.2590 C.3       6 GLP5        0.0000 
     77 CA         12.5355  -13.6658   18.5998 C.3       3 GLC5        0.0000 
     78 CA         17.4348  -17.5042   16.5875 C.3       3 GLC5        0.0000 
     79 CA         16.9920  -19.4510   17.0030 C.3       6 GLP5        0.0000 
     80 CA         18.4386  -13.9506   15.6970 C.3       3 GLC5        0.0000 
     81 CA         17.2430  -15.4590   15.9130 C.3       9 GLL5        0.0000 
     82 CA          7.1338  -15.5665   22.9485 C.3       3 GLC5        0.0000 
     83 CA          0.8912  -19.2300   20.1680 C.3       3 GLC5        0.0000 
     84 CA          3.0460  -19.4260   20.2710 C.3       9 GLL5        0.0000 
     85 CA         -1.1000  -19.1530   20.7990 C.3       6 GLP5        0.0000 
     86 CA          3.8432  -20.6805   21.5565 C.3       3 GLC5        0.0000 
     87 CA          4.1570  -22.3350   22.5960 C.3       6 GLP5        0.0000 
     88 CA          2.7557  -17.6490   21.7265 C.3       3 GLC5        0.0000 
     89 CA          2.3644  -17.2127   19.9910 C.3       3 GLC5        0.0000 
     90 CA          4.0130  -18.6260   20.7630 C.3       9 GLL5        0.0000 
@<TRIPOS>BOND
@<TRIPOS>SUBSTRUCTURE
     1 ALC1       24 GROUP        1 X    ALC  0     ROOT ALC X 1
     2 SEC2        1 GROUP        1 X    SEC  0     **** SEC X 2
     3 GLC5        7 GROUP        1 X    GLC  0     **** GLC X 6
     4 ALP1       26 GROUP        1 Y    ALP  0     ROOT ALP Y 8
     5 SEP2        3 GROUP        1 Y    SEP  0     **** SEP Y 9
     6 GLP5        9 GROUP        1 Y    GLP  0     **** GLP Y 13
     7 ALL1       25 GROUP        1 Z    ALL  0     ROOT ALL Z 15
     8 SEL2        2 GROUP        1 Z    SEL  0     **** SEL Z 16
     9 GLL5        8 GROUP        1 Z    GLL  0     **** GLL Z 20
@<TRIPOS>SET

