#    Name: 1kc1_NDP_1_ligand
#    Modification time : Tue Mar 25 09:49:25 2014

@<TRIPOS>MOLECULE
1kc1_NDP_1_ligand
   74    78     1     0     0
SMALL
NO_CHARGES


@<TRIPOS>ATOM
      1 PA          8.5690  -14.0910   15.4410 P.3       1 NDP901      0.0000 
      2 O1A         9.2960  -15.0820   14.5300 O.co2     1 NDP901      0.0000 
      3 O2A         7.9670  -12.9180   14.7780 O.co2     1 NDP901      0.0000 
      4 O5B         9.7020  -13.6070   16.4790 O.3       1 NDP901      0.0000 
      5 C5B        10.8290  -14.2850   17.0010 C.3       1 NDP901      0.0000 
      6 C4B        12.1430  -13.4800   16.8580 C.3       1 NDP901      0.0000 
      7 O4B        13.3240  -14.3010   17.0000 O.3       1 NDP901      0.0000 
      8 C3B        12.3140  -12.7760   15.5140 C.3       1 NDP901      0.0000 
      9 O3B        12.8910  -11.4980   15.6180 O.3       1 NDP901      0.0000 
     10 C2B        13.4030  -13.5840   14.9100 C.3       1 NDP901      0.0000 
     11 O2B        13.8430  -12.9130   13.7260 O.3       1 NDP901      0.0000 
     12 C1B        14.2610  -13.6660   16.0840 C.3       1 NDP901      0.0000 
     13 N9A        15.3170  -14.5220   15.7880 N.pl3     1 NDP901      0.0000 
     14 C8A        15.4120  -15.4990   14.8240 C.2       1 NDP901      0.0000 
     15 N7A        16.6110  -16.0640   14.9160 N.2       1 NDP901      0.0000 
     16 C5A        17.2430  -15.4590   15.9130 C.ar      1 NDP901      0.0000 
     17 C6A        18.5120  -15.6560   16.4310 C.ar      1 NDP901      0.0000 
     18 N6A        19.4040  -16.5900   15.9460 N.pl3     1 NDP901      0.0000 
     19 N1A        18.9080  -14.8680   17.5040 N.ar      1 NDP901      0.0000 
     20 C2A        18.0490  -13.9170   18.0110 C.ar      1 NDP901      0.0000 
     21 N3A        16.7870  -13.7170   17.4930 N.ar      1 NDP901      0.0000 
     22 C4A        16.4290  -14.4930   16.4680 C.ar      1 NDP901      0.0000 
     23 O3          7.5100  -14.7990   16.3240 O.3       1 NDP901      0.0000 
     24 PN          6.5910  -14.0070   17.3460 P.3       1 NDP901      0.0000 
     25 O1N         7.0770  -12.6170   17.7200 O.co2     1 NDP901      0.0000 
     26 O2N         5.1530  -14.1540   16.9120 O.co2     1 NDP901      0.0000 
     27 O5D         6.6290  -14.9890   18.6090 O.3       1 NDP901      0.0000 
     28 C5D         7.4000  -14.5590   19.7560 C.3       1 NDP901      0.0000 
     29 C4D         7.1710  -15.2450   21.0930 C.3       1 NDP901      0.0000 
     30 O4D         5.8190  -15.6530   21.1460 O.3       1 NDP901      0.0000 
     31 C3D         8.0080  -16.4930   21.3250 C.3       1 NDP901      0.0000 
     32 O3D         7.9800  -17.0170   22.6120 O.3       1 NDP901      0.0000 
     33 C2D         7.1220  -17.3760   20.5960 C.3       1 NDP901      0.0000 
     34 O2D         7.3630  -18.7270   20.6760 O.3       1 NDP901      0.0000 
     35 C1D         5.8470  -17.0040   21.2320 C.3       1 NDP901      0.0000 
     36 N1N         4.8350  -17.6400   20.3460 N.pl3     1 NDP901      0.0000 
     37 C2N         4.5470  -17.4370   18.9140 C.2       1 NDP901      0.0000 
     38 C3N         3.5830  -18.1180   18.1550 C.2       1 NDP901      0.0000 
     39 C7N         3.2040  -18.0170   16.6880 C.2       1 NDP901      0.0000 
     40 O7N         2.2500  -18.6830   16.2440 O.2       1 NDP901      0.0000 
     41 N7N         3.9090  -17.2640   15.7960 N.am      1 NDP901      0.0000 
     42 C4N         2.7190  -19.1880   18.8030 C.3       1 NDP901      0.0000 
     43 C5N         3.0460  -19.4260   20.2710 C.2       1 NDP901      0.0000 
     44 C6N         4.0130  -18.6260   20.7630 C.2       1 NDP901      0.0000 
     45 P2B        13.7640  -13.4450   12.1650 P.3       1 NDP901      0.0000 
     46 O1X        13.8640  -12.1860   11.3170 O.co2     1 NDP901      0.0000 
     47 O2X        12.4210  -14.1500   11.9620 O.co2     1 NDP901      0.0000 
     48 O3X        14.9670  -14.3740   12.0690 O.co2     1 NDP901      0.0000 
     49 H          10.9962  -15.2609   16.4985 H         1 NDP901      0.0000 
     50 H          10.7118  -14.5155   18.0808 H         1 NDP901      0.0000 
     51 H          12.1573  -12.7017   17.6297 H         1 NDP901      0.0000 
     52 H          11.4693  -12.8520   14.9458 H         1 NDP901      0.0000 
     53 H          12.9684  -14.5528   14.7152 H         1 NDP901      0.0000 
     54 H          14.5153  -12.7207   16.4098 H         1 NDP901      0.0000 
     55 H          14.7101  -15.7165   14.1989 H         1 NDP901      0.0000 
     56 H          20.3735  -16.3785   16.0700 H         1 NDP901      0.0000 
     57 H          19.0036  -17.3973   15.5126 H         1 NDP901      0.0000 
     58 H          18.3650  -13.3266   18.8164 H         1 NDP901      0.0000 
     59 H           7.2561  -13.4462   19.9230 H         1 NDP901      0.0000 
     60 H           8.5085  -14.6357   19.5271 H         1 NDP901      0.0000 
     61 H           7.3763  -14.5409   21.8880 H         1 NDP901      0.0000 
     62 H           8.8993  -16.4243   20.8462 H         1 NDP901      0.0000 
     63 H           7.0571  -17.0022   19.5669 H         1 NDP901      0.0000 
     64 H           5.8079  -17.4064   22.1880 H         1 NDP901      0.0000 
     65 H           5.1394  -16.7001   18.4364 H         1 NDP901      0.0000 
     66 H           3.5547  -17.2429   14.8611 H         1 NDP901      0.0000 
     67 H           4.7182  -16.7991   16.1553 H         1 NDP901      0.0000 
     68 H           2.8423  -20.1333   18.2508 H         1 NDP901      0.0000 
     69 H           1.6599  -18.8977   18.7145 H         1 NDP901      0.0000 
     70 H           2.5472  -20.1216   20.7416 H         1 NDP901      0.0000 
     71 H           4.1969  -18.8576   21.9041 H         1 NDP901      0.0000 
     72 H          13.3967  -11.3722   14.7645 H         1 NDP901      0.0000 
     73 H           8.7556  -16.5940   23.0805 H         1 NDP901      0.0000 
     74 H           6.6169  -19.1536   20.1648 H         1 NDP901      0.0000 
@<TRIPOS>BOND
     1    2    1 ar   
     2    3    1 ar   
     3    4    1 1    
     4   23    1 1    
     5    5    4 1    
     6    6    5 1    
     7   49    5 1    
     8   50    5 1    
     9    7    6 1    
    10    8    6 1    
    11   51    6 1    
    12   12    7 1    
    13    9    8 1    
    14   10    8 1    
    15   52    8 1    
    16   72    9 1    
    17   11   10 1    
    18   12   10 1    
    19   53   10 1    
    20   45   11 1    
    21   13   12 1    
    22   54   12 1    
    23   14   13 1    
    24   22   13 1    
    25   15   14 2    
    26   55   14 1    
    27   16   15 1    
    28   17   16 ar   
    29   22   16 ar   
    30   18   17 1    
    31   19   17 ar   
    32   56   18 1    
    33   57   18 1    
    34   20   19 ar   
    35   21   20 ar   
    36   58   20 1    
    37   22   21 ar   
    38   24   23 1    
    39   25   24 ar   
    40   26   24 ar   
    41   27   24 1    
    42   28   27 1    
    43   29   28 1    
    44   59   28 1    
    45   60   28 1    
    46   30   29 1    
    47   31   29 1    
    48   61   29 1    
    49   35   30 1    
    50   32   31 1    
    51   33   31 1    
    52   62   31 1    
    53   73   32 1    
    54   34   33 1    
    55   35   33 1    
    56   63   33 1    
    57   74   34 1    
    58   36   35 1    
    59   64   35 1    
    60   37   36 1    
    61   44   36 1    
    62   38   37 2    
    63   65   37 1    
    64   39   38 1    
    65   42   38 1    
    66   40   39 2    
    67   41   39 am   
    68   66   41 1    
    69   67   41 1    
    70   43   42 1    
    71   68   42 1    
    72   69   42 1    
    73   44   43 2    
    74   70   43 1    
    75   71   44 1    
    76   46   45 ar   
    77   47   45 ar   
    78   48   45 ar   
@<TRIPOS>SUBSTRUCTURE
     1 NDP901      1 GROUP   
@<TRIPOS>SET

