#    Name: 3h6v_NS6_2_INTS_M
#    Modification time : Tue Mar 25 13:43:01 2014

@<TRIPOS>MOLECULE
3h6v_NS6_2_INTS_M
   49     0     6     0     0
SMALL
NO_CHARGES


@<TRIPOS>ATOM
      1 CA         76.8860   19.8950   41.1870 C.3       2 GLC5        0.0000 
      2 CA         75.8290   18.1650   41.1530 C.3       6 GLL5        0.0000 
      3 CA         77.9430   21.6250   41.2210 C.3       4 GLP5        0.0000 
      4 CA         75.8190   15.1395   39.1940 C.3       2 GLC5        0.0000 
      5 CA         75.9010   16.7880   40.4840 C.3       6 GLL5        0.0000 
      6 CA         75.7370   13.4910   37.9040 C.3       4 GLP5        0.0000 
      7 CA         75.1670   15.6430   38.3175 C.3       2 GLC5        0.0000 
      8 CA         74.5510   16.6790   39.7740 C.3       6 GLL5        0.0000 
      9 CA         75.7830   14.6070   36.8610 C.3       4 GLP5        0.0000 
     10 CA         73.4175   16.8830   37.9760 C.3       2 GLC5        0.0000 
     11 CA         72.2840   17.0870   36.1780 C.3       4 GLP5        0.0000 
     12 CA         71.5740   17.7990   40.7105 C.3       2 GLC5        0.0000 
     13 CA         73.6410   17.1320   40.9160 C.3       6 GLL5        0.0000 
     14 CA         69.5070   18.4660   40.5050 C.3       4 GLP5        0.0000 
     15 CA         76.2605   20.9980   42.0510 C.3       2 GLC5        0.0000 
     16 CA         74.5780   20.3710   42.8810 C.3       6 GLL5        0.0000 
     17 CA         70.5870   20.4840   46.5535 C.3       2 GLC5        0.0000 
     18 CA         72.5340   21.3790   45.9790 C.3       6 GLL5        0.0000 
     19 CA         68.6400   19.5890   47.1280 C.3       4 GLP5        0.0000 
     20 CA         75.3590   24.1940   44.8905 C.3       2 GLC5        0.0000 
     21 CA         74.5440   22.6960   45.8870 C.3       6 GLL5        0.0000 
     22 CA         76.1740   25.6920   43.8940 C.3       4 GLP5        0.0000 
     23 N          70.0755   22.5685   47.0250 N.am      1 SEC2        0.0000 
     24 N          71.3350   23.3320   47.9620 N.am      5 SEL2        0.0000 
     25 N          68.8160   21.8050   46.0880 N.am      3 SEP2        0.0000 
     26 CA         72.9825   25.3535   50.4220 C.3       2 GLC5        0.0000 
     27 CA         73.6440   23.3330   50.3530 C.3       6 GLL5        0.0000 
     28 CA         72.3210   27.3740   50.4910 C.3       4 GLP5        0.0000 
     29 CA         76.3225   16.4428   42.2903 C.3       2 GLC5        0.0000 
     30 CA         76.7800   15.4090   43.7620 C.3       4 GLP5        0.0000 
     31 CA         75.7720   17.9159   38.6181 C.3       2 GLC5        0.0000 
     32 CA         76.3360   18.7540   36.9400 C.3       4 GLP5        0.0000 
     33 CA         74.6723   17.0771   43.1009 C.3       2 GLC5        0.0000 
     34 CA         74.3290   18.4510   41.2710 C.3       6 GLL5        0.0000 
     35 CA         75.4020   15.7480   44.3430 C.3       4 GLP5        0.0000 
     36 CA         73.9103   19.9647   46.6365 C.3       2 GLC5        0.0000 
     37 CA         72.9310   20.7140   44.8250 C.3       6 GLL5        0.0000 
     38 CA         75.0880   18.8830   47.8710 C.3       4 GLP5        0.0000 
     39 CA         74.8077   20.2035   46.1665 C.3       2 GLC5        0.0000 
     40 CA         74.1250   21.0250   44.1880 C.3       6 GLL5        0.0000 
     41 CA         75.0279   22.8893   43.0126 C.3       2 GLC5        0.0000 
     42 CA         74.9300   22.0230   44.7360 C.3       6 GLL5        0.0000 
     43 CA         75.4150   24.4180   41.8900 C.3       4 GLP5        0.0000 
     44 CA         74.5152   20.7097   47.0353 C.3       2 GLC5        0.0000 
     45 CA         71.3979   22.5864   45.2645 C.3       2 GLC5        0.0000 
     46 CA         73.3410   22.3770   46.5120 C.3       6 GLL5        0.0000 
     47 CA         69.7590   23.4610   44.5720 C.3       4 GLP5        0.0000 
     48 CA         73.7865   19.9850   49.0925 C.3       2 GLC5        0.0000 
     49 CA         72.2570   21.4740   49.6950 C.3       6 GLL5        0.0000 
@<TRIPOS>BOND
@<TRIPOS>SUBSTRUCTURE
     1 SEC2       23 GROUP        1 X    SEC  0     ROOT SEC X 2
     2 GLC5        1 GROUP        1 X    GLC  0     **** GLC X 6
     3 SEP2       25 GROUP        1 Y    SEP  0     ROOT SEP Y 9
     4 GLP5        3 GROUP        1 Y    GLP  0     **** GLP Y 13
     5 SEL2       24 GROUP        1 Z    SEL  0     ROOT SEL Z 16
     6 GLL5        2 GROUP        1 Z    GLL  0     **** GLL Z 20
@<TRIPOS>SET

