#    Name: 3h6v_NS6_2_ligand
#    Modification time : Tue Mar 25 13:43:01 2014

@<TRIPOS>MOLECULE
3h6v_NS6_2_ligand
   55    58     1     0     0
SMALL
NO_CHARGES


@<TRIPOS>ATOM
      1 C2         75.8290   18.1650   41.1530 C.3       1 NS6265      0.0000 
      2 C3         75.9010   16.7880   40.4840 C.3       1 NS6265      0.0000 
      3 C4         74.5510   16.6790   39.7740 C.3       1 NS6265      0.0000 
      4 C5         73.6410   17.1320   40.9160 C.3       1 NS6265      0.0000 
      5 C1         74.3290   18.4510   41.2710 C.3       1 NS6265      0.0000 
      6 C6         73.9000   19.0210   42.6240 C.3       1 NS6265      0.0000 
      7 C9         74.5780   20.3710   42.8810 C.3       1 NS6265      0.0000 
      8 N1         72.4380   19.1770   42.6210 N.pl3     1 NS6265      0.0000 
      9 S1         71.9240   19.4610   44.1400 S.o2      1 NS6265      0.0000 
     10 O2         70.4960   19.9170   44.1150 O.2       1 NS6265      0.0000 
     11 O1         72.0540   18.2140   44.9630 O.2       1 NS6265      0.0000 
     12 C7         72.9310   20.7140   44.8250 C.ar      1 NS6265      0.0000 
     13 C10        72.5340   21.3790   45.9790 C.ar      1 NS6265      0.0000 
     14 C8         74.1250   21.0250   44.1880 C.ar      1 NS6265      0.0000 
     15 C13        74.9300   22.0230   44.7360 C.ar      1 NS6265      0.0000 
     16 C12        74.5440   22.6960   45.8870 C.ar      1 NS6265      0.0000 
     17 C11        73.3410   22.3770   46.5120 C.ar      1 NS6265      0.0000 
     18 S2         72.8310   23.2260   47.9550 S.o2      1 NS6265      0.0000 
     19 O3         71.3350   23.3320   47.9620 O.2       1 NS6265      0.0000 
     20 O4         73.4310   24.6010   47.9700 O.2       1 NS6265      0.0000 
     21 N2         73.3220   22.3940   49.2680 N.pl3     1 NS6265      0.0000 
     22 C14        72.2570   21.4740   49.6950 C.3       1 NS6265      0.0000 
     23 C15        72.7130   20.7000   50.9330 C.3       1 NS6265      0.0000 
     24 N3         73.0200   21.6480   52.0140 N.4       1 NS6265      0.0000 
     25 C18        73.4400   20.9110   53.2150 C.3       1 NS6265      0.0000 
     26 C16        74.0980   22.5510   51.5880 C.3       1 NS6265      0.0000 
     27 C17        73.6440   23.3330   50.3530 C.3       1 NS6265      0.0000 
     28 H          76.2846   18.8913   40.5274 H         1 NS6265      0.0000 
     29 H          76.2622   18.1161   42.1207 H         1 NS6265      0.0000 
     30 H          75.9808   16.0361   41.2221 H         1 NS6265      0.0000 
     31 H          76.6829   16.7767   39.7734 H         1 NS6265      0.0000 
     32 H          74.3538   15.6839   39.5341 H         1 NS6265      0.0000 
     33 H          74.5051   17.3630   38.9886 H         1 NS6265      0.0000 
     34 H          73.7132   16.4658   41.7155 H         1 NS6265      0.0000 
     35 H          72.6801   17.3172   40.5546 H         1 NS6265      0.0000 
     36 H          74.0759   19.1646   40.4786 H         1 NS6265      0.0000 
     37 H          74.1981   18.3313   43.3929 H         1 NS6265      0.0000 
     38 H          74.3551   21.0467   42.0462 H         1 NS6265      0.0000 
     39 H          75.6646   20.2243   42.9116 H         1 NS6265      0.0000 
     40 H          71.8514   19.1376   41.9434 H         1 NS6265      0.0000 
     41 H          71.6478   21.1339   46.4360 H         1 NS6265      0.0000 
     42 H          75.8250   22.2626   44.2773 H         1 NS6265      0.0000 
     43 H          75.1460   23.4318   46.2806 H         1 NS6265      0.0000 
     44 H          72.0256   20.7575   48.9068 H         1 NS6265      0.0000 
     45 H          71.3495   22.0229   49.9469 H         1 NS6265      0.0000 
     46 H          73.5931   20.1155   50.6690 H         1 NS6265      0.0000 
     47 H          71.9143   20.0213   51.2284 H         1 NS6265      0.0000 
     48 H          72.1360   22.2289   52.2421 H         1 NS6265      0.0000 
     49 H          74.9945   21.9900   51.3292 H         1 NS6265      0.0000 
     50 H          74.3417   23.2627   52.3751 H         1 NS6265      0.0000 
     51 H          72.7712   23.9264   50.6234 H         1 NS6265      0.0000 
     52 H          74.4483   24.0057   50.0570 H         1 NS6265      0.0000 
     53 H          74.2540   20.3558   53.0443 H         1 NS6265      0.0000 
     54 H          73.6590   21.5274   53.9714 H         1 NS6265      0.0000 
     55 H          72.7253   20.2913   53.5394 H         1 NS6265      0.0000 
@<TRIPOS>BOND
     1    2    1 1    
     2    5    1 1    
     3   28    1 1    
     4   29    1 1    
     5    3    2 1    
     6   30    2 1    
     7   31    2 1    
     8    4    3 1    
     9   32    3 1    
    10   33    3 1    
    11    5    4 1    
    12   34    4 1    
    13   35    4 1    
    14    6    5 1    
    15   36    5 1    
    16    7    6 1    
    17    8    6 1    
    18   37    6 1    
    19   14    7 1    
    20   38    7 1    
    21   39    7 1    
    22    9    8 1    
    23   40    8 1    
    24   10    9 2    
    25   11    9 2    
    26   12    9 1    
    27   13   12 ar   
    28   14   12 ar   
    29   17   13 ar   
    30   41   13 1    
    31   15   14 ar   
    32   16   15 ar   
    33   42   15 1    
    34   17   16 ar   
    35   43   16 1    
    36   18   17 1    
    37   19   18 2    
    38   20   18 2    
    39   21   18 1    
    40   22   21 1    
    41   27   21 1    
    42   23   22 1    
    43   44   22 1    
    44   45   22 1    
    45   24   23 1    
    46   46   23 1    
    47   47   23 1    
    48   25   24 1    
    49   26   24 1    
    50   48   24 1    
    51   53   25 1    
    52   54   25 1    
    53   55   25 1    
    54   27   26 1    
    55   49   26 1    
    56   50   26 1    
    57   51   27 1    
    58   52   27 1    
@<TRIPOS>SUBSTRUCTURE
     1 NS6265      1 GROUP   
@<TRIPOS>SET

