#    Name: 3pww_ROC_1_INTS_M
#    Modification time : Tue Mar 25 08:39:40 2014

@<TRIPOS>MOLECULE
3pww_ROC_1_INTS_M
   89     0    12     0     0
SMALL
NO_CHARGES


@<TRIPOS>ATOM
      1 N          -2.5295    3.0855    4.2895 N.am      2 SEC2        0.0000 
      2 N          -3.4140    3.3890    5.3210 N.am     10 SEL2        0.0000 
      3 N          -1.6450    2.7820    3.2580 N.am      6 SEP2        0.0000 
      4 N          -3.6610    2.2970    4.3030 N.am      2 SEC2        0.0000 
      5 N          -3.9080    1.2050    3.2850 N.am      6 SEP2        0.0000 
      6 CA         -1.6375    4.2860    6.3910 C.3       4 GLC5        0.0000 
      7 CA         -3.1770    4.8980    7.8610 C.3      12 GLL5        0.0000 
      8 CA         -0.0980    3.6740    4.9210 C.3       8 GLP5        0.0000 
      9 N          -2.6155    7.0550   10.9070 N.am      2 SEC2        0.0000 
     10 N          -2.6590    5.9510    9.9580 N.am     10 SEL2        0.0000 
     11 N          -2.5720    8.1590   11.8560 N.am      6 SEP2        0.0000 
     12 CA         -5.7275    6.5195    8.9700 C.3       4 GLC5        0.0000 
     13 CA         -4.2870    5.9570    7.8020 C.3      12 GLL5        0.0000 
     14 CA         -7.1680    7.0820   10.1380 C.3       8 GLP5        0.0000 
     15 O           2.3885    3.6280   11.3330 O.2       1 ALC1        0.0000 
     16 O           1.7150    4.7790   11.1660 O.2       9 ALL1        0.0000 
     17 O           3.0620    2.4770   11.5000 O.2       5 ALP1        0.0000 
     18 O          -0.7940    3.1360    8.1380 O.2       1 ALC1        0.0000 
     19 O          -1.2060    4.1270    9.0320 O.2       9 ALL1        0.0000 
     20 O          -0.3820    2.1450    7.2440 O.2       5 ALP1        0.0000 
     21 CA          0.9145    1.9920    8.9310 C.3       4 GLC5        0.0000 
     22 CA         -0.0480    2.5940   10.6310 C.3      12 GLL5        0.0000 
     23 CA          1.8770    1.3900    7.2310 C.3       8 GLP5        0.0000 
     24 CA         -2.4060    4.0405   12.4840 C.3       4 GLC5        0.0000 
     25 CA         -2.4380    2.3340   11.4900 C.3      12 GLL5        0.0000 
     26 CA         -2.3740    5.7470   13.4780 C.3       8 GLP5        0.0000 
     27 CA         -3.3000   -2.3055   10.0630 C.3       4 GLC5        0.0000 
     28 CA         -2.6290   -0.2520   10.4680 C.3      12 GLL5        0.0000 
     29 CA         -3.9710   -4.3590    9.6580 C.3       8 GLP5        0.0000 
     30 CA         -1.6290   -1.0490   12.1080 C.3       4 GLC5        0.0000 
     31 CA         -0.6290   -1.8460   13.7480 C.3       8 GLP5        0.0000 
     32 OD1         2.2110    6.7395    8.2260 O.co2     3 ASC3        0.0000 
     33 OD1         1.6050    7.2440    9.4440 O.co2    11 ASL3        0.0000 
     34 OD1         2.8170    6.2350    7.0080 O.co2     7 ASP3        0.0000 
     35 O           2.2110    6.7395    8.2260 O.2       1 ALC1        0.0000 
     36 O           1.6050    7.2440    9.4440 O.2       9 ALL1        0.0000 
     37 O           2.8170    6.2350    7.0080 O.2       5 ALP1        0.0000 
     38 CA          5.1915    9.1270   10.6385 C.3       4 GLC5        0.0000 
     39 CA          3.7160    8.4030    9.9380 C.3      12 GLL5        0.0000 
     40 CA          6.6670    9.8510   11.3390 C.3       8 GLP5        0.0000 
     41 CA         -0.9665    8.8505    9.9465 C.3       4 GLC5        0.0000 
     42 CA          1.0290    8.5180    8.9910 C.3      12 GLL5        0.0000 
     43 CA         -2.9620    9.1830   10.9020 C.3       8 GLP5        0.0000 
     44 O           4.4050    7.0700   12.2145 O.2       1 ALC1        0.0000 
     45 O           3.3120    7.7420   12.7660 O.2       9 ALL1        0.0000 
     46 O           5.4980    6.3980   11.6630 O.2       5 ALP1        0.0000 
     47 CA          6.4575    8.3440   14.4835 C.3       4 GLC5        0.0000 
     48 CA          4.4580    7.9090   14.8570 C.3      12 GLL5        0.0000 
     49 CA          8.4570    8.7790   14.1100 C.3       8 GLP5        0.0000 
     50 CA          2.2430    6.0555   16.3260 C.3       4 GLC5        0.0000 
     51 CA          2.0700    7.3580   14.8740 C.3      12 GLL5        0.0000 
     52 CA          2.4160    4.7530   17.7780 C.3       8 GLP5        0.0000 
     53 CA          0.9415    5.9785   14.4345 C.3       4 GLC5        0.0000 
     54 CA         -0.1870    4.5990   13.9950 C.3       8 GLP5        0.0000 
     55 CA         -6.8495   -3.6398    6.0557 C.3       4 GLC5        0.0000 
     56 CA         -6.9150   -1.7640    6.5690 C.3      12 GLL5        0.0000 
     57 CA         -6.2480   -5.4600    5.9810 C.3       8 GLP5        0.0000 
     58 CA         -7.0375   -2.2633    4.4158 C.3       4 GLC5        0.0000 
     59 CA         -6.6240   -2.7070    2.7010 C.3       8 GLP5        0.0000 
     60 CA         -4.5578   -2.2635    6.2773 C.3       4 GLC5        0.0000 
     61 CA         -2.8580   -3.3790    5.7640 C.3       8 GLP5        0.0000 
     62 CA         -7.2640   -1.4815    3.7643 C.3       4 GLC5        0.0000 
     63 CA         -7.5120    0.3330    4.8280 C.3      12 GLL5        0.0000 
     64 CA         -6.4582   -1.3927    4.4200 C.3       4 GLC5        0.0000 
     65 CA         -6.4490    0.4400    5.7000 C.3      12 GLL5        0.0000 
     66 CA         -0.0335    4.0665   12.1875 C.3       4 GLC5        0.0000 
     67 CA         -0.3360    4.0370   10.2270 C.3      12 GLL5        0.0000 
     68 CA         -0.3543    0.7913   12.0648 C.3       4 GLC5        0.0000 
     69 CA          0.8010    0.2010   13.4220 C.3       8 GLP5        0.0000 
     70 CA          4.5853    6.5178    9.9563 C.3       4 GLC5        0.0000 
     71 CA          2.6830    7.4200   10.4590 C.3      12 GLL5        0.0000 
     72 CA          5.9710    5.1240    9.7140 C.3       8 GLP5        0.0000 
     73 CA          4.4377   11.1202   10.6813 C.3       4 GLC5        0.0000 
     74 CA          3.1960    9.7200    9.4160 C.3      12 GLL5        0.0000 
     75 CA          6.2600   11.1700   11.3120 C.3       8 GLP5        0.0000 
     76 CA          0.3700   12.6077    7.3747 C.3       4 GLC5        0.0000 
     77 CA          1.0770   11.7350    9.1480 C.3      12 GLL5        0.0000 
     78 CA         -0.5160   13.9550    6.1750 C.3       8 GLP5        0.0000 
     79 CA          2.4752   12.5486    7.5168 C.3       4 GLC5        0.0000 
     80 CA          1.4350   10.7860    8.0010 C.3      12 GLL5        0.0000 
     81 CA          3.4050   13.7830    6.2190 C.3       8 GLP5        0.0000 
     82 CA          1.1445   10.1682    6.4253 C.3       4 GLC5        0.0000 
     83 CA          0.5290   10.1970    4.6320 C.3       8 GLP5        0.0000 
     84 CA          4.1543    9.2981    7.8818 C.3       4 GLC5        0.0000 
     85 CA          2.0850    9.4930    8.4360 C.3      12 GLL5        0.0000 
     86 CA          5.5380    9.3190    6.7070 C.3       8 GLP5        0.0000 
     87 CA          3.7252    5.8600   14.3074 C.3       4 GLC5        0.0000 
     88 CA          3.1440    8.1630   14.1980 C.3      12 GLL5        0.0000 
     89 CA          4.5150    4.0230   13.9140 C.3       8 GLP5        0.0000 
@<TRIPOS>BOND
@<TRIPOS>SUBSTRUCTURE
     1 ALC1       15 GROUP        1 X    ALC  0     ROOT ALC X 1
     2 SEC2        1 GROUP        1 X    SEC  0     **** SEC X 2
     3 ASC3       32 GROUP        1 X    ASC  0     **** ASC X 3
     4 GLC5        6 GROUP        1 X    GLC  0     **** GLC X 6
     5 ALP1       17 GROUP        1 Y    ALP  0     ROOT ALP Y 8
     6 SEP2        3 GROUP        1 Y    SEP  0     **** SEP Y 9
     7 ASP3       34 GROUP        1 Y    ASP  0     **** ASP Y 10
     8 GLP5        8 GROUP        1 Y    GLP  0     **** GLP Y 13
     9 ALL1       16 GROUP        1 Z    ALL  0     ROOT ALL Z 15
    10 SEL2        2 GROUP        1 Z    SEL  0     **** SEL Z 16
    11 ASL3       33 GROUP        1 Z    ASL  0     **** ASL Z 17
    12 GLL5        7 GROUP        1 Z    GLL  0     **** GLL Z 20
@<TRIPOS>SET

