#    Name: 3pww_ROC_1_ligand
#    Modification time : Tue Mar 25 08:39:40 2014

@<TRIPOS>MOLECULE
3pww_ROC_1_ligand
  100   104     1     0     0
SMALL
NO_CHARGES


@<TRIPOS>ATOM
      1 C          -3.8230    3.0390    6.5360 C.2       1 ROC1001     0.0000 
      2 O          -3.4140    3.3890    5.3210 O.2       1 ROC1001     0.0000 
      3 N1         -5.6860    1.5970    5.7010 N.ar      1 ROC1001     0.0000 
      4 C2         -4.6260    1.7350    6.5600 C.ar      1 ROC1001     0.0000 
      5 C3         -4.3070    0.6970    7.4450 C.ar      1 ROC1001     0.0000 
      6 C4         -5.0640   -0.4670    7.4460 C.ar      1 ROC1001     0.0000 
      7 C5         -6.9150   -1.7640    6.5690 C.ar      1 ROC1001     0.0000 
      8 C6         -7.9870   -1.8750    5.6920 C.ar      1 ROC1001     0.0000 
      9 C7         -8.2960   -0.8450    4.8270 C.ar      1 ROC1001     0.0000 
     10 C8         -7.5120    0.3330    4.8280 C.ar      1 ROC1001     0.0000 
     11 C4A        -6.1360   -0.5970    6.5780 C.ar      1 ROC1001     0.0000 
     12 C8A        -6.4490    0.4400    5.7000 C.ar      1 ROC1001     0.0000 
     13 N          -3.7350    3.5710    7.7830 N.am      1 ROC1001     0.0000 
     14 CA         -3.1770    4.8980    7.8610 C.3       1 ROC1001     0.0000 
     15 C1         -2.2680    5.0170    9.0860 C.2       1 ROC1001     0.0000 
     16 O1         -2.6590    5.9510    9.9580 O.2       1 ROC1001     0.0000 
     17 CB         -4.2870    5.9570    7.8020 C.3       1 ROC1001     0.0000 
     18 CG         -4.8080    6.1730    6.3620 C.2       1 ROC1001     0.0000 
     19 OD1        -3.8630    6.6760    5.5290 O.2       1 ROC1001     0.0000 
     20 ND2        -6.1180    5.8030    6.2770 N.am      1 ROC1001     0.0000 
     21 C9          0.9120    4.9110   10.0310 C.3       1 ROC1001     0.0000 
     22 O2          1.7150    4.7790   11.1660 O.3       1 ROC1001     0.0000 
     23 CA1        -0.3360    4.0370   10.2270 C.3       1 ROC1001     0.0000 
     24 N2         -1.2060    4.1270    9.0320 N.am      1 ROC1001     0.0000 
     25 CB1        -0.0480    2.5940   10.6310 C.3       1 ROC1001     0.0000 
     26 CG1        -1.3570    1.7950   10.8180 C.ar      1 ROC1001     0.0000 
     27 CD1        -2.4380    2.3340   11.4900 C.ar      1 ROC1001     0.0000 
     28 CD2        -1.4490    0.4990   10.3080 C.ar      1 ROC1001     0.0000 
     29 CE1        -3.6220    1.5790   11.6540 C.ar      1 ROC1001     0.0000 
     30 CE2        -2.6290   -0.2520   10.4680 C.ar      1 ROC1001     0.0000 
     31 CZ         -3.7080    0.2910   11.1390 C.ar      1 ROC1001     0.0000 
     32 N11         1.6050    7.2440    9.4440 N.4       1 ROC1001     0.0000 
     33 CM          0.5110    6.3500    9.8860 C.3       1 ROC1001     0.0000 
     34 C21         2.6830    7.4200   10.4590 C.3       1 ROC1001     0.0000 
     35 CC          2.2520    7.8100   11.8650 C.2       1 ROC1001     0.0000 
     36 O3          0.9860    8.1400   12.0230 O.2       1 ROC1001     0.0000 
     37 C31         3.7160    8.4030    9.9380 C.3       1 ROC1001     0.0000 
     38 C3A         3.1960    9.7200    9.4160 C.3       1 ROC1001     0.0000 
     39 C41         2.7960   10.6620   10.5700 C.3       1 ROC1001     0.0000 
     40 C51         2.2350   11.9500   10.1080 C.3       1 ROC1001     0.0000 
     41 C61         1.0770   11.7350    9.1480 C.3       1 ROC1001     0.0000 
     42 C71         1.4350   10.7860    8.0010 C.3       1 ROC1001     0.0000 
     43 C7A         2.0850    9.4930    8.4360 C.3       1 ROC1001     0.0000 
     44 C81         1.0290    8.5180    8.9910 C.3       1 ROC1001     0.0000 
     45 N3          3.3120    7.7420   12.7660 N.am      1 ROC1001     0.0000 
     46 CD          3.1440    8.1630   14.1980 C.3       1 ROC1001     0.0000 
     47 C11         4.4580    7.9090   14.8570 C.3       1 ROC1001     0.0000 
     48 C22         2.0700    7.3580   14.8740 C.3       1 ROC1001     0.0000 
     49 C32         2.8060    9.6380   14.2990 C.3       1 ROC1001     0.0000 
     50 H          -3.5151    0.8019    8.0885 H         1 ROC1001     0.0000 
     51 H          -4.8276   -1.2327    8.0923 H         1 ROC1001     0.0000 
     52 H          -6.6884   -2.5309    7.2115 H         1 ROC1001     0.0000 
     53 H          -8.5558   -2.7388    5.6906 H         1 ROC1001     0.0000 
     54 H          -9.0873   -0.9178    4.1802 H         1 ROC1001     0.0000 
     55 H          -7.7450    1.0898    4.1810 H         1 ROC1001     0.0000 
     56 H          -4.0261    3.1070    8.6155 H         1 ROC1001     0.0000 
     57 H          -2.5329    5.0611    6.9683 H         1 ROC1001     0.0000 
     58 H          -3.9013    6.9043    8.1824 H         1 ROC1001     0.0000 
     59 H          -5.1191    5.6418    8.4337 H         1 ROC1001     0.0000 
     60 H          -6.5489    5.9125    5.3813 H         1 ROC1001     0.0000 
     61 H          -6.5323    5.4548    7.1179 H         1 ROC1001     0.0000 
     62 H           1.4072    4.5882    9.1414 H         1 ROC1001     0.0000 
     63 H          -0.9057    4.5041   11.0783 H         1 ROC1001     0.0000 
     64 H          -1.0000    3.5540    8.2452 H         1 ROC1001     0.0000 
     65 H           0.5070    2.5818   11.5674 H         1 ROC1001     0.0000 
     66 H           0.5497    2.1121    9.8593 H         1 ROC1001     0.0000 
     67 H          -2.3948    3.2848   11.8766 H         1 ROC1001     0.0000 
     68 H          -0.6502    0.0840    9.8098 H         1 ROC1001     0.0000 
     69 H          -4.4151    1.9931   12.1569 H         1 ROC1001     0.0000 
     70 H          -2.6763   -1.2024   10.0818 H         1 ROC1001     0.0000 
     71 H          -4.5723   -0.2525   11.2586 H         1 ROC1001     0.0000 
     72 H           2.0703    6.7606    8.5424 H         1 ROC1001     0.0000 
     73 H           0.1079    6.7081   10.8582 H         1 ROC1001     0.0000 
     74 H          -0.3350    6.4143    9.1677 H         1 ROC1001     0.0000 
     75 H           3.2300    6.4409   10.5462 H         1 ROC1001     0.0000 
     76 H           4.3059    7.9027    9.1311 H         1 ROC1001     0.0000 
     77 H           4.4557    8.6041   10.7515 H         1 ROC1001     0.0000 
     78 H           4.0310   10.2103    8.8764 H         1 ROC1001     0.0000 
     79 H           3.6913   10.8341   11.1922 H         1 ROC1001     0.0000 
     80 H           2.0653   10.1299   11.2034 H         1 ROC1001     0.0000 
     81 H           3.0074   12.5398    9.5987 H         1 ROC1001     0.0000 
     82 H           1.8769   12.5367   10.9632 H         1 ROC1001     0.0000 
     83 H           0.7702   12.7000    8.7273 H         1 ROC1001     0.0000 
     84 H           0.2224   11.3216    9.6968 H         1 ROC1001     0.0000 
     85 H           2.1094   11.3173    7.3032 H         1 ROC1001     0.0000 
     86 H           0.5133   10.5586    7.4328 H         1 ROC1001     0.0000 
     87 H           2.5116    9.0149    7.5347 H         1 ROC1001     0.0000 
     88 H           0.5058    9.0242    9.8203 H         1 ROC1001     0.0000 
     89 H           0.2802    8.3457    8.1990 H         1 ROC1001     0.0000 
     90 H           4.2357    7.4075   12.4947 H         1 ROC1001     0.0000 
     91 H           5.1951    8.4327   14.4299 H         1 ROC1001     0.0000 
     92 H           4.4428    8.1601   15.8248 H         1 ROC1001     0.0000 
     93 H           4.7175    6.9445   14.8085 H         1 ROC1001     0.0000 
     94 H           2.2794    6.3802   14.8680 H         1 ROC1001     0.0000 
     95 H           1.9509    7.6263   15.8299 H         1 ROC1001     0.0000 
     96 H           1.1835    7.4706   14.4253 H         1 ROC1001     0.0000 
     97 H           3.5222   10.2112   13.9009 H         1 ROC1001     0.0000 
     98 H           1.9554    9.8577   13.8213 H         1 ROC1001     0.0000 
     99 H           2.6921    9.9287   15.2490 H         1 ROC1001     0.0000 
    100 H           2.0973    3.8569   11.1066 H         1 ROC1001     0.0000 
@<TRIPOS>BOND
     1    2    1 2    
     2    4    1 1    
     3   13    1 am   
     4    4    3 ar   
     5   12    3 ar   
     6    5    4 ar   
     7    6    5 ar   
     8   50    5 1    
     9   11    6 ar   
    10   51    6 1    
    11    8    7 ar   
    12   11    7 ar   
    13   52    7 1    
    14    9    8 ar   
    15   53    8 1    
    16   10    9 ar   
    17   54    9 1    
    18   12   10 ar   
    19   55   10 1    
    20   12   11 ar   
    21   14   13 1    
    22   56   13 1    
    23   15   14 1    
    24   17   14 1    
    25   57   14 1    
    26   16   15 2    
    27   24   15 am   
    28   18   17 1    
    29   58   17 1    
    30   59   17 1    
    31   19   18 2    
    32   20   18 am   
    33   60   20 1    
    34   61   20 1    
    35   22   21 1    
    36   23   21 1    
    37   33   21 1    
    38   62   21 1    
    39  100   22 1    
    40   24   23 1    
    41   25   23 1    
    42   63   23 1    
    43   64   24 1    
    44   26   25 1    
    45   65   25 1    
    46   66   25 1    
    47   27   26 ar   
    48   28   26 ar   
    49   29   27 ar   
    50   67   27 1    
    51   30   28 ar   
    52   68   28 1    
    53   31   29 ar   
    54   69   29 1    
    55   31   30 ar   
    56   70   30 1    
    57   71   31 1    
    58   33   32 1    
    59   34   32 1    
    60   44   32 1    
    61   72   32 1    
    62   73   33 1    
    63   74   33 1    
    64   35   34 1    
    65   37   34 1    
    66   75   34 1    
    67   36   35 2    
    68   45   35 am   
    69   38   37 1    
    70   76   37 1    
    71   77   37 1    
    72   39   38 1    
    73   43   38 1    
    74   78   38 1    
    75   40   39 1    
    76   79   39 1    
    77   80   39 1    
    78   41   40 1    
    79   81   40 1    
    80   82   40 1    
    81   42   41 1    
    82   83   41 1    
    83   84   41 1    
    84   43   42 1    
    85   85   42 1    
    86   86   42 1    
    87   44   43 1    
    88   87   43 1    
    89   88   44 1    
    90   89   44 1    
    91   46   45 1    
    92   90   45 1    
    93   47   46 1    
    94   48   46 1    
    95   49   46 1    
    96   91   47 1    
    97   92   47 1    
    98   93   47 1    
    99   94   48 1    
   100   95   48 1    
   101   96   48 1    
   102   97   49 1    
   103   98   49 1    
   104   99   49 1    
@<TRIPOS>SUBSTRUCTURE
     1 ROC1001     1 GROUP   
@<TRIPOS>SET

