#    Name: 1bdb_NAD_1_INTS_M
#    Modification time : Mon Mar 24 19:31:01 2014

@<TRIPOS>MOLECULE
1bdb_NAD_1_INTS_M
  101     0     9     0     0
SMALL
NO_CHARGES


@<TRIPOS>ATOM
      1 N          20.7890   48.2465   12.2420 N.am      2 SEC2        0.0000 
      2 N          21.9150   48.9050   12.2370 N.am      8 SEL2        0.0000 
      3 N          19.6630   47.5880   12.2470 N.am      5 SEP2        0.0000 
      4 N          22.1285   49.1850   13.8520 N.am      2 SEC2        0.0000 
      5 N          22.3420   49.4650   15.4670 N.am      5 SEP2        0.0000 
      6 CA         21.6825   46.8320    6.3820 C.3       3 GLC5        0.0000 
      7 CA         22.2450   46.6740    8.1770 C.3       9 GLL5        0.0000 
      8 CA         21.1200   46.9900    4.5870 C.3       6 GLP5        0.0000 
      9 CA         20.1795   46.3325   10.1565 C.3       3 GLC5        0.0000 
     10 CA         21.5700   45.5860    9.0290 C.3       9 GLL5        0.0000 
     11 CA         18.7890   47.0790   11.2840 C.3       6 GLP5        0.0000 
     12 O          19.8710   44.1025    7.8680 O.2       1 ALC1        0.0000 
     13 O          20.1780   45.4500    8.7780 O.2       7 ALL1        0.0000 
     14 O          19.5640   42.7550    6.9580 O.2       4 ALP1        0.0000 
     15 O          19.7645   45.1430    7.5680 O.2       1 ALC1        0.0000 
     16 O          19.3510   44.8360    6.3580 O.2       4 ALP1        0.0000 
     17 N          21.0020   42.8865   10.0910 N.am      2 SEC2        0.0000 
     18 N          21.6550   43.1080    8.7860 N.am      8 SEL2        0.0000 
     19 N          20.3490   42.6650   11.3960 N.am      5 SEP2        0.0000 
     20 O          20.6095   42.9315    7.8720 O.2       1 ALC1        0.0000 
     21 O          21.6550   43.1080    8.7860 O.2       7 ALL1        0.0000 
     22 CA         21.8950   45.8155    5.8745 C.3       3 GLC5        0.0000 
     23 CA         22.6700   44.6410    7.1620 C.3       9 GLL5        0.0000 
     24 CA         23.7325   45.6365    5.4900 C.3       3 GLC5        0.0000 
     25 CA         24.7950   46.6320    3.8180 C.3       6 GLP5        0.0000 
     26 CA         26.2660   42.6210    3.0360 C.3       3 GLC5        0.0000 
     27 CA         25.5930   41.7580    4.5650 C.3       9 GLL5        0.0000 
     28 CA         26.9390   43.4840    1.5070 C.3       6 GLP5        0.0000 
     29 O          26.9495   40.2165    3.2730 O.2       1 ALC1        0.0000 
     30 O          26.7960   41.1720    4.4720 O.2       7 ALL1        0.0000 
     31 O          27.1030   39.2610    2.0740 O.2       4 ALP1        0.0000 
     32 N          24.9505   41.3880    2.1580 N.am      2 SEC2        0.0000 
     33 N          24.6500   41.5670    3.6130 N.am      8 SEL2        0.0000 
     34 N          25.2510   41.2090    0.7030 N.am      5 SEP2        0.0000 
     35 CA         21.3950   42.3430    3.7690 C.3       3 GLC5        0.0000 
     36 CA         23.4230   42.1680    3.7210 C.3       9 GLL5        0.0000 
     37 CA         19.3670   42.5180    3.8170 C.3       6 GLP5        0.0000 
     38 CA         22.8165   40.6240    4.7215 C.3       3 GLC5        0.0000 
     39 CA         22.2100   39.0800    5.7220 C.3       6 GLP5        0.0000 
     40 CA         23.8620   40.5780    2.4735 C.3       3 GLC5        0.0000 
     41 CA         24.3010   38.9880    1.2260 C.3       6 GLP5        0.0000 
     42 CA         24.0350   43.1980    2.2560 C.3       3 GLC5        0.0000 
     43 CA         24.6470   44.2280    0.7910 C.3       6 GLP5        0.0000 
     44 N          21.7795   41.8450    4.8330 N.am      2 SEC2        0.0000 
     45 N          23.0030   42.9450    4.6660 N.am      8 SEL2        0.0000 
     46 N          20.5560   40.7450    5.0000 N.am      5 SEP2        0.0000 
     47 CA         23.2685   41.4130    6.3360 C.3       3 GLC5        0.0000 
     48 CA         23.9570   43.1190    5.6110 C.3       9 GLL5        0.0000 
     49 CA         22.5800   39.7070    7.0610 C.3       6 GLP5        0.0000 
     50 N          24.0620   51.8850   12.9025 N.am      2 SEC2        0.0000 
     51 N          24.3090   52.1980   11.6850 N.am      8 SEL2        0.0000 
     52 N          23.8150   51.5720   14.1200 N.am      5 SEP2        0.0000 
     53 N          21.4025   52.4140   10.2085 N.am      2 SEC2        0.0000 
     54 N          22.5530   51.6700   10.1270 N.am      8 SEL2        0.0000 
     55 N          20.2520   53.1580   10.2900 N.am      5 SEP2        0.0000 
     56 CA         22.8610   53.2780    8.4375 C.3       3 GLC5        0.0000 
     57 CA         24.3840   51.7550    8.0610 C.3       9 GLL5        0.0000 
     58 CA         21.3380   54.8010    8.8140 C.3       6 GLP5        0.0000 
     59 CA         27.5145   49.8780    6.8025 C.3       3 GLC5        0.0000 
     60 CA         26.7820   51.6920    7.1750 C.3       9 GLL5        0.0000 
     61 CA         28.2470   48.0640    6.4300 C.3       6 GLP5        0.0000 
     62 N          28.7490   52.4505    5.5200 N.am      2 SEC2        0.0000 
     63 N          27.4180   51.9080    5.9250 N.am      8 SEL2        0.0000 
     64 N          30.0800   52.9930    5.1150 N.am      5 SEP2        0.0000 
     65 O          26.3140   51.3165    5.3595 O.2       1 ALC1        0.0000 
     66 O          27.4180   51.9080    5.9250 O.2       7 ALL1        0.0000 
     67 O          25.2100   50.7250    4.7940 O.2       4 ALP1        0.0000 
     68 CA         29.4520   52.7370    7.1455 C.3       3 GLC5        0.0000 
     69 CA         27.6160   52.2950    8.3120 C.3       9 GLL5        0.0000 
     70 CA         31.2880   53.1790    5.9790 C.3       6 GLP5        0.0000 
     71 CA         27.6220   50.8570    9.8175 C.3       3 GLC5        0.0000 
     72 CA         27.6280   49.4190   11.3230 C.3       6 GLP5        0.0000 
     73 N          29.5420   52.5760    6.5480 N.am      2 SEC2        0.0000 
     74 N          29.0040   52.1590    7.9810 N.am      8 SEL2        0.0000 
     75 O          29.9965   52.6680    8.6575 O.2       1 ALC1        0.0000 
     76 O          29.0040   52.1590    7.9810 O.2       7 ALL1        0.0000 
     77 O          30.9890   53.1770    9.3340 O.2       4 ALP1        0.0000 
     78 CA         26.5330   54.5330    6.6830 C.3       3 GLC5        0.0000 
     79 CA         27.1400   53.7420    8.2510 C.3       9 GLL5        0.0000 
     80 CA         25.9260   55.3240    5.1150 C.3       6 GLP5        0.0000 
     81 N          26.3160   56.4225   14.4770 N.am      2 SEC2        0.0000 
     82 N          27.4830   55.3850   14.0840 N.am      8 SEL2        0.0000 
     83 N          25.1490   57.4600   14.8700 N.am      5 SEP2        0.0000 
     84 CA         27.5115   57.5440   13.1310 C.3       3 GLC5        0.0000 
     85 CA         27.9650   56.1980   11.6360 C.3       9 GLL5        0.0000 
     86 CA         27.0580   58.8900   14.6260 C.3       6 GLP5        0.0000 
     87 CA         24.7505   40.8178    6.1928 C.3       3 GLC5        0.0000 
     88 CA         25.2350   42.5870    5.6320 C.3       9 GLL5        0.0000 
     89 CA         24.0870   39.4630    7.2870 C.3       6 GLP5        0.0000 
     90 CA         24.6955   44.7425    4.7197 C.3       3 GLC5        0.0000 
     91 CA         26.0237   53.7017    6.1697 C.3       3 GLC5        0.0000 
     92 CA         25.6073   55.3167   11.3453 C.3       3 GLC5        0.0000 
     93 CA         26.9920   54.1710   10.6510 C.3       9 GLL5        0.0000 
     94 CA         24.0780   56.0690   11.4980 C.3       6 GLP5        0.0000 
     95 CA         27.9108   52.8732   11.9662 C.3       3 GLC5        0.0000 
     96 CA         27.2810   54.9580   11.7340 C.3       9 GLL5        0.0000 
     97 CA         28.6850   51.1820   12.7400 C.3       6 GLP5        0.0000 
     98 CA         26.0932   56.2235   11.2390 C.3       3 GLC5        0.0000 
     99 CA         29.3862   56.6315    8.8347 C.3       3 GLC5        0.0000 
    100 CA         28.2520   56.5580   10.3240 C.3       9 GLL5        0.0000 
    101 CA         30.6450   57.0690    7.9130 C.3       6 GLP5        0.0000 
@<TRIPOS>BOND
@<TRIPOS>SUBSTRUCTURE
     1 ALC1       12 GROUP        1 X    ALC  0     ROOT ALC X 1
     2 SEC2        1 GROUP        1 X    SEC  0     **** SEC X 2
     3 GLC5        6 GROUP        1 X    GLC  0     **** GLC X 6
     4 ALP1       14 GROUP        1 Y    ALP  0     ROOT ALP Y 8
     5 SEP2        3 GROUP        1 Y    SEP  0     **** SEP Y 9
     6 GLP5        8 GROUP        1 Y    GLP  0     **** GLP Y 13
     7 ALL1       13 GROUP        1 Z    ALL  0     ROOT ALL Z 15
     8 SEL2        2 GROUP        1 Z    SEL  0     **** SEL Z 16
     9 GLL5        7 GROUP        1 Z    GLL  0     **** GLL Z 20
@<TRIPOS>SET

