#    Name: 1bdb_NAD_1_ligand
#    Modification time : Mon Mar 24 19:31:01 2014

@<TRIPOS>MOLECULE
1bdb_NAD_1_ligand
   70    74     1     0     0
SMALL
NO_CHARGES


@<TRIPOS>ATOM
      1 PA         23.0600   48.6050   11.3550 P.3       1 NAD300      0.0000 
      2 O1A        23.8540   47.4610   11.8600 O.co2     1 NAD300      0.0000 
      3 O2A        21.9150   48.9050   12.2370 O.co2     1 NAD300      0.0000 
      4 O5B        22.5090   48.2970    9.9030 O.3       1 NAD300      0.0000 
      5 C5B        23.2930   47.4560    8.9970 C.3       1 NAD300      0.0000 
      6 C4B        22.2450   46.6740    8.1770 C.3       1 NAD300      0.0000 
      7 O4B        23.0630   45.9980    7.1750 O.3       1 NAD300      0.0000 
      8 C3B        21.5700   45.5860    9.0290 C.3       1 NAD300      0.0000 
      9 O3B        20.1780   45.4500    8.7780 O.3       1 NAD300      0.0000 
     10 C2B        22.3610   44.3380    8.6530 C.3       1 NAD300      0.0000 
     11 O2B        21.6550   43.1080    8.7860 O.3       1 NAD300      0.0000 
     12 C1B        22.6700   44.6410    7.1620 C.3       1 NAD300      0.0000 
     13 N9A        23.8700   43.8920    6.7460 N.pl3     1 NAD300      0.0000 
     14 C8A        25.0650   43.7740    7.3980 C.2       1 NAD300      0.0000 
     15 N7A        25.9310   43.0020    6.7380 N.2       1 NAD300      0.0000 
     16 C5A        25.2350   42.5870    5.6320 C.ar      1 NAD300      0.0000 
     17 C6A        25.5930   41.7580    4.5650 C.ar      1 NAD300      0.0000 
     18 N6A        26.7960   41.1720    4.4720 N.pl3     1 NAD300      0.0000 
     19 N1A        24.6500   41.5670    3.6130 N.ar      1 NAD300      0.0000 
     20 C2A        23.4230   42.1680    3.7210 C.ar      1 NAD300      0.0000 
     21 N3A        23.0030   42.9450    4.6660 N.ar      1 NAD300      0.0000 
     22 C4A        23.9570   43.1190    5.6110 C.ar      1 NAD300      0.0000 
     23 O3         24.0460   49.8250   11.0790 O.3       1 NAD300      0.0000 
     24 PN         23.9080   51.3290   10.5660 P.3       1 NAD300      0.0000 
     25 O1N        24.3090   52.1980   11.6850 O.co2     1 NAD300      0.0000 
     26 O2N        22.5530   51.6700   10.1270 O.co2     1 NAD300      0.0000 
     27 O5D        24.9460   51.3450    9.3430 O.3       1 NAD300      0.0000 
     28 C5D        24.3840   51.7550    8.0610 C.3       1 NAD300      0.0000 
     29 C4D        25.4610   52.4670    7.2740 C.3       1 NAD300      0.0000 
     30 O4D        25.7390   53.6780    8.0330 O.3       1 NAD300      0.0000 
     31 C3D        26.7820   51.6920    7.1750 C.3       1 NAD300      0.0000 
     32 O3D        27.4180   51.9080    5.9250 O.3       1 NAD300      0.0000 
     33 C2D        27.6160   52.2950    8.3120 C.3       1 NAD300      0.0000 
     34 O2D        29.0040   52.1590    7.9810 O.3       1 NAD300      0.0000 
     35 C1D        27.1400   53.7420    8.2510 C.3       1 NAD300      0.0000 
     36 N1N        27.3880   54.5730    9.4180 N.pl3     1 NAD300      0.0000 
     37 C2N        26.9920   54.1710   10.6510 C.ar      1 NAD300      0.0000 
     38 C3N        27.2810   54.9580   11.7340 C.ar      1 NAD300      0.0000 
     39 C7N        26.9240   54.6850   13.2330 C.2       1 NAD300      0.0000 
     40 O7N        27.4830   55.3850   14.0840 O.2       1 NAD300      0.0000 
     41 N7N        26.0190   53.7310   13.4840 N.am      1 NAD300      0.0000 
     42 C4N        27.9650   56.1980   11.6360 C.ar      1 NAD300      0.0000 
     43 C5N        28.2520   56.5580   10.3240 C.ar      1 NAD300      0.0000 
     44 C6N        28.0030   55.8300    9.1890 C.ar      1 NAD300      0.0000 
     45 H          23.8944   46.7520    9.5340 H         1 NAD300      0.0000 
     46 H          23.8791   48.0441    8.3214 H         1 NAD300      0.0000 
     47 H          21.5634   47.3157    7.7565 H         1 NAD300      0.0000 
     48 H          21.8037   45.8078   10.0586 H         1 NAD300      0.0000 
     49 H          23.2966   44.3734    9.1630 H         1 NAD300      0.0000 
     50 H          21.8498   44.4511    6.5861 H         1 NAD300      0.0000 
     51 H          25.2514   44.2189    8.2639 H         1 NAD300      0.0000 
     52 H          27.4283   41.3430    5.2276 H         1 NAD300      0.0000 
     53 H          26.9529   40.6165    3.6554 H         1 NAD300      0.0000 
     54 H          22.7342   41.9453    2.8914 H         1 NAD300      0.0000 
     55 H          23.5466   52.4354    8.2033 H         1 NAD300      0.0000 
     56 H          24.0462   50.8919    7.4906 H         1 NAD300      0.0000 
     57 H          25.1098   52.7142    6.3091 H         1 NAD300      0.0000 
     58 H          26.5932   50.6812    7.4056 H         1 NAD300      0.0000 
     59 H          27.3183   51.8636    9.2030 H         1 NAD300      0.0000 
     60 H          27.6020   54.1958    7.3613 H         1 NAD300      0.0000 
     61 H          26.4793   53.2848   10.7782 H         1 NAD300      0.0000 
     62 H          25.8149   53.5608   14.4480 H         1 NAD300      0.0000 
     63 H          25.6282   53.2741   12.6850 H         1 NAD300      0.0000 
     64 H          28.2023   56.7309   12.4171 H         1 NAD300      0.0000 
     65 H          28.7254   57.5233   10.1911 H         1 NAD300      0.0000 
     66 H          28.2253   56.1359    8.2746 H         1 NAD300      0.0000 
     67 H          20.1116   45.2181    7.8075 H         1 NAD300      0.0000 
     68 H          20.9349   43.1469    8.0933 H         1 NAD300      0.0000 
     69 H          26.6705   52.0318    5.2724 H         1 NAD300      0.0000 
     70 H          29.4921   52.6366    8.7115 H         1 NAD300      0.0000 
@<TRIPOS>BOND
     1    2    1 ar   
     2    3    1 ar   
     3    4    1 1    
     4   23    1 1    
     5    5    4 1    
     6    6    5 1    
     7   45    5 1    
     8   46    5 1    
     9    7    6 1    
    10    8    6 1    
    11   47    6 1    
    12   12    7 1    
    13    9    8 1    
    14   10    8 1    
    15   48    8 1    
    16   67    9 1    
    17   11   10 1    
    18   12   10 1    
    19   49   10 1    
    20   68   11 1    
    21   13   12 1    
    22   50   12 1    
    23   14   13 1    
    24   22   13 1    
    25   15   14 2    
    26   51   14 1    
    27   16   15 1    
    28   17   16 ar   
    29   22   16 ar   
    30   18   17 1    
    31   19   17 ar   
    32   52   18 1    
    33   53   18 1    
    34   20   19 ar   
    35   21   20 ar   
    36   54   20 1    
    37   22   21 ar   
    38   24   23 1    
    39   25   24 ar   
    40   26   24 ar   
    41   27   24 1    
    42   28   27 1    
    43   29   28 1    
    44   55   28 1    
    45   56   28 1    
    46   30   29 1    
    47   31   29 1    
    48   57   29 1    
    49   35   30 1    
    50   32   31 1    
    51   33   31 1    
    52   58   31 1    
    53   69   32 1    
    54   34   33 1    
    55   35   33 1    
    56   59   33 1    
    57   70   34 1    
    58   36   35 1    
    59   60   35 1    
    60   37   36 ar   
    61   44   36 ar   
    62   38   37 ar   
    63   61   37 1    
    64   39   38 1    
    65   42   38 ar   
    66   40   39 2    
    67   41   39 am   
    68   62   41 1    
    69   63   41 1    
    70   43   42 ar   
    71   64   42 1    
    72   44   43 ar   
    73   65   43 1    
    74   66   44 1    
@<TRIPOS>SUBSTRUCTURE
     1 NAD300      1 GROUP   
@<TRIPOS>SET

