#    Name: 4JZ7_4_CAVITY_N1_6.mol2
#    Modification time : Tue Mar 11 09:28:21 2014

@<TRIPOS>MOLECULE
4JZ7_4_CAVITY_N1_6.mol2
   79     0     5     0     0
SMALL
NO_CHARGES


@<TRIPOS>ATOM
      1 O          43.3143   59.6313   17.8916 O.2       1 ALA2        0.0000 
      2 CA         43.8409   59.2648   16.5358 C.3       4 GLY6        0.0000 
      3 CA         42.6185   58.5437   19.5748 C.3       4 GLY6        0.0000 
      4 N          43.1452   58.1772   18.2190 N.2       1 ALA2        0.0000 
      5 O          43.6719   57.8107   16.8631 O.2       1 ALA2        0.0000 
      6 CA         42.9761   56.7232   18.5463 C.3       4 GLY6        0.0000 
      7 N          43.5028   56.3567   17.1905 N.2       1 ALA2        0.0000 
      8 DU         49.5871   60.5673   18.4159 H         5 CUB7        0.0000 
      9 OD1        50.1138   60.2008   17.0600 O.3       2 ASP3        0.0000 
     10 DU         49.4181   59.1132   18.7432 H         5 CUB7        0.0000 
     11 OD1        49.9447   58.7467   17.3874 O.3       2 ASP3        0.0000 
     12 N          49.2490   57.6592   19.0706 N.2       1 ALA2        0.0000 
     13 N          49.7757   57.2927   17.7147 N.2       1 ALA2        0.0000 
     14 CA         45.2158   63.9555   17.4614 C.3       4 GLY6        0.0000 
     15 O          44.5200   62.8680   19.1446 O.2       1 ALA2        0.0000 
     16 CA         45.0467   62.5015   17.7888 C.3       4 GLY6        0.0000 
     17 CA         45.5734   62.1350   16.4329 C.3       4 GLY6        0.0000 
     18 O          44.3509   61.4139   19.4719 O.2       1 ALA2        0.0000 
     19 CA         44.8776   61.0474   18.1161 C.3       4 GLY6        0.0000 
     20 CA         45.4043   60.6809   16.7603 C.3       4 GLY6        0.0000 
     21 CA         44.1819   59.9599   19.7993 C.3       4 GLY6        0.0000 
     22 O          44.7085   59.5934   18.4435 O.2       1 ALA2        0.0000 
     23 CA         45.2352   59.2269   17.0876 C.3       4 GLY6        0.0000 
     24 CA         45.7619   58.8604   15.7318 C.3       4 GLY6        0.0000 
     25 CA         43.4861   58.8723   21.4825 C.3       4 GLY6        0.0000 
     26 CA         44.0128   58.5058   20.1267 C.3       4 GLY6        0.0000 
     27 DU         44.5395   58.1393   18.7708 H         5 CUB7        0.0000 
     28 DU         45.0661   57.7728   17.4150 H         5 CUB7        0.0000 
     29 NZ         45.5928   57.4064   16.0592 N.2       3 LYS4        0.0000 
     30 DU         43.8437   57.0518   20.4540 H         5 CUB7        0.0000 
     31 DU         44.3704   56.6853   19.0982 H         5 CUB7        0.0000 
     32 NZ         44.8971   56.3188   17.7424 N.2       3 LYS4        0.0000 
     33 NZ         44.7280   54.8648   18.0697 N.2       3 LYS4        0.0000 
     34 CA         45.5567   64.6506   20.7249 C.3       4 GLY6        0.0000 
     35 CA         45.9143   62.8301   19.6964 C.3       4 GLY6        0.0000 
     36 O          46.4410   62.4636   18.3406 O.2       1 ALA2        0.0000 
     37 O          46.9677   62.0971   16.9848 O.2       1 ALA2        0.0000 
     38 CA         45.7452   61.3760   20.0238 C.3       4 GLY6        0.0000 
     39 DU         46.2719   61.0095   18.6680 H         5 CUB7        0.0000 
     40 DU         46.7986   60.6430   17.3121 H         5 CUB7        0.0000 
     41 OD1        47.3253   60.2766   15.9563 O.3       2 ASP3        0.0000 
     42 CA         45.5761   59.9220   20.3512 C.3       4 GLY6        0.0000 
     43 DU         46.1028   59.5555   18.9953 H         5 CUB7        0.0000 
     44 DU         46.6295   59.1890   17.6395 H         5 CUB7        0.0000 
     45 CA         47.1562   58.8225   16.2837 C.3       4 GLY6        0.0000 
     46 NZ         47.6829   58.4560   14.9278 N.2       3 LYS4        0.0000 
     47 CA         44.8804   58.8344   22.0344 C.3       4 GLY6        0.0000 
     48 DU         45.4071   58.4680   20.6785 H         5 CUB7        0.0000 
     49 DU         46.4604   57.7350   17.9669 H         5 CUB7        0.0000 
     50 NZ         46.9871   57.3685   16.6110 N.2       3 LYS4        0.0000 
     51 NZ         47.5138   57.0020   15.2552 N.2       3 LYS4        0.0000 
     52 CA         45.2380   57.0139   21.0059 C.3       4 GLY6        0.0000 
     53 DU         45.7647   56.6474   19.6501 H         5 CUB7        0.0000 
     54 NZ         46.2913   56.2809   18.2942 N.2       3 LYS4        0.0000 
     55 CA         45.5956   55.1934   19.9774 C.3       4 GLY6        0.0000 
     56 NZ         46.1223   54.8269   18.6216 N.2       3 LYS4        0.0000 
     57 CA         46.5934   66.4333   22.3053 C.3       4 GLY6        0.0000 
     58 CA         46.9510   64.6127   21.2768 C.3       4 GLY6        0.0000 
     59 CA         47.3086   62.7922   20.2483 C.3       4 GLY6        0.0000 
     60 O          47.8353   62.4257   18.8925 O.2       1 ALA2        0.0000 
     61 O          48.3620   62.0592   17.5366 O.2       1 ALA2        0.0000 
     62 DU         47.6662   60.9717   19.2198 H         5 CUB7        0.0000 
     63 DU         48.1929   60.6052   17.8640 H         5 CUB7        0.0000 
     64 OD1        48.7196   60.2387   16.5082 O.3       2 ASP3        0.0000 
     65 DU         48.0238   59.1511   18.1914 H         5 CUB7        0.0000 
     66 OD1        48.5505   58.7846   16.8355 O.3       2 ASP3        0.0000 
     67 DU         46.8013   58.4301   21.2304 H         5 CUB7        0.0000 
     68 DU         47.3280   58.0636   19.8746 H         5 CUB7        0.0000 
     69 N          47.8547   57.6971   18.5187 N.2       1 ALA2        0.0000 
     70 N          48.3814   57.3306   17.1629 N.2       1 ALA2        0.0000 
     71 OD1        48.9081   56.9641   15.8071 O.3       2 ASP3        0.0000 
     72 OD1        46.6323   56.9760   21.5578 O.3       2 ASP3        0.0000 
     73 N          47.1589   56.6095   20.2019 N.2       1 ALA2        0.0000 
     74 N          47.6856   56.2430   18.8461 N.2       1 ALA2        0.0000 
     75 N          48.2123   55.8765   17.4902 N.2       1 ALA2        0.0000 
     76 OD1        46.9899   55.1555   20.5293 O.3       2 ASP3        0.0000 
     77 N          47.5165   54.7890   19.1734 N.2       1 ALA2        0.0000 
     78 N          48.0432   54.4225   17.8176 N.2       1 ALA2        0.0000 
     79 CA         51.3390   58.7088   17.9392 C.3       4 GLY6        0.0000 
@<TRIPOS>BOND
@<TRIPOS>SUBSTRUCTURE
     1 ALA2        1 GROUP   
     2 ASP3        9 GROUP   
     3 LYS4       29 GROUP   
     4 GLY6        2 GROUP   
     5 CUB7        8 GROUP   
@<TRIPOS>SET

