#    Name: 4jz7_ANP_4_INTS_M
#    Modification time : Tue Mar 25 06:43:10 2014

@<TRIPOS>MOLECULE
4jz7_ANP_4_INTS_M
   54     0    12     0     0
SMALL
NO_CHARGES


@<TRIPOS>ATOM
      1 NZ         47.2100   61.5550   14.6375 N.4       3 LYC4        0.0000 
      2 NZ         46.8270   61.7400   16.0880 N.4      11 LYL4        0.0000 
      3 NZ         47.5930   61.3700   13.1870 N.4       7 LYP4        0.0000 
      4 N          47.2100   61.5550   14.6375 N.am      2 SEC2        0.0000 
      5 N          46.8270   61.7400   16.0880 N.am     10 SEL2        0.0000 
      6 N          47.5930   61.3700   13.1870 N.am      6 SEP2        0.0000 
      7 NZ         50.8935   60.8810   14.7560 N.4       3 LYC4        0.0000 
      8 NZ         50.9650   62.7380   15.4930 N.4      11 LYL4        0.0000 
      9 NZ         50.8220   59.0240   14.0190 N.4       7 LYP4        0.0000 
     10 N          52.3545   62.7365   15.0655 N.am      2 SEC2        0.0000 
     11 N          50.9650   62.7380   15.4930 N.am     10 SEL2        0.0000 
     12 N          53.7440   62.7350   14.6380 N.am      6 SEP2        0.0000 
     13 NZ         50.5895   59.6595   14.9510 N.4       3 LYC4        0.0000 
     14 NZ         50.3570   60.2950   15.8830 N.4      11 LYL4        0.0000 
     15 N          50.5895   59.6595   14.9510 N.am      2 SEC2        0.0000 
     16 N          50.3570   60.2950   15.8830 N.am     10 SEL2        0.0000 
     17 N          50.8220   59.0240   14.0190 N.am      6 SEP2        0.0000 
     18 O          56.0195   63.2570   18.0110 O.2       1 ALC1        0.0000 
     19 O          56.6900   62.4680   18.5950 O.2       9 ALL1        0.0000 
     20 O          55.3490   64.0460   17.4270 O.2       5 ALP1        0.0000 
     21 CA         55.8535   57.8165   18.8275 C.3       4 GLC5        0.0000 
     22 CA         57.4170   59.1350   18.8100 C.3      12 GLL5        0.0000 
     23 CA         54.2900   56.4980   18.8450 C.3       8 GLP5        0.0000 
     24 CA         58.6065   56.3675   14.5495 C.3       4 GLC5        0.0000 
     25 CA         60.1940   56.7440   15.6230 C.3      12 GLL5        0.0000 
     26 CA         57.0190   55.9910   13.4760 C.3       8 GLP5        0.0000 
     27 O          61.8470   55.1400   14.2860 O.2       1 ALC1        0.0000 
     28 O          60.7270   55.4280   15.2360 O.2       9 ALL1        0.0000 
     29 O          62.9670   54.8520   13.3360 O.2       5 ALP1        0.0000 
     30 N          61.5230   57.6575   13.6525 N.am      2 SEC2        0.0000 
     31 N          60.4920   57.8620   14.9100 N.am     10 SEL2        0.0000 
     32 N          62.5540   57.4530   12.3950 N.am      6 SEP2        0.0000 
     33 CA         59.4245   60.6750   14.7115 C.3       4 GLC5        0.0000 
     34 CA         60.0250   59.0880   15.2430 C.3      12 GLL5        0.0000 
     35 CA         58.8240   62.2620   14.1800 C.3       8 GLP5        0.0000 
     36 CA         60.3830   58.7675   13.1565 C.3       4 GLC5        0.0000 
     37 CA         60.7410   58.4470   11.0700 C.3       8 GLP5        0.0000 
     38 CA         62.1450   59.2475   14.6095 C.3       4 GLC5        0.0000 
     39 CA         64.2650   59.4070   13.9760 C.3       8 GLP5        0.0000 
     40 CA         58.6040   58.9450   14.2605 C.3       4 GLC5        0.0000 
     41 CA         57.1830   58.8020   13.2780 C.3       8 GLP5        0.0000 
     42 CA         54.7458   58.4775   18.2035 C.3       4 GLC5        0.0000 
     43 CA         55.6940   60.4090   18.1080 C.3      12 GLL5        0.0000 
     44 CA         58.3353   62.1227   17.3725 C.3       4 GLC5        0.0000 
     45 CA         56.9160   61.2530   17.9740 C.3      12 GLL5        0.0000 
     46 CA         59.2550   63.3600   16.4000 C.3       8 GLP5        0.0000 
     47 CA         59.5635   59.4318   19.3035 C.3       4 GLC5        0.0000 
     48 CA         57.9150   60.5180   18.7160 C.3      12 GLL5        0.0000 
     49 CA         61.4610   59.0370   19.8440 C.3       8 GLP5        0.0000 
     50 CA         61.5030   56.4830   17.1240 C.3       4 GLC5        0.0000 
     51 CA         59.3620   56.8940   16.7450 C.3      12 GLL5        0.0000 
     52 CA         63.2280   56.1470   18.0640 C.3       8 GLP5        0.0000 
     53 CA         57.7470   56.7545   15.8865 C.3       4 GLC5        0.0000 
     54 CA         56.3690   55.9730   14.8670 C.3       8 GLP5        0.0000 
@<TRIPOS>BOND
@<TRIPOS>SUBSTRUCTURE
     1 ALC1       18 GROUP        1 X    ALC  0     ROOT ALC X 1
     2 SEC2        4 GROUP        1 X    SEC  0     **** SEC X 2
     3 LYC4        1 GROUP        1 X    LYC  0     **** LYC X 4
     4 GLC5       21 GROUP        1 X    GLC  0     **** GLC X 6
     5 ALP1       20 GROUP        1 Y    ALP  0     ROOT ALP Y 8
     6 SEP2        6 GROUP        1 Y    SEP  0     **** SEP Y 9
     7 LYP4        3 GROUP        1 Y    LYP  0     **** LYP Y 11
     8 GLP5       23 GROUP        1 Y    GLP  0     **** GLP Y 13
     9 ALL1       19 GROUP        1 Z    ALL  0     ROOT ALL Z 15
    10 SEL2        5 GROUP        1 Z    SEL  0     **** SEL Z 16
    11 LYL4        2 GROUP        1 Z    LYL  0     **** LYL Z 18
    12 GLL5       22 GROUP        1 Z    GLL  0     **** GLL Z 20
@<TRIPOS>SET

