#    Name: 4jz7_ANP_4_ligand
#    Modification time : Tue Mar 25 06:43:11 2014

@<TRIPOS>MOLECULE
4jz7_ANP_4_ligand
   43    45     1     0     0
SMALL
NO_CHARGES


@<TRIPOS>ATOM
      1 PG         47.6540   61.4130   17.4040 P.3       1 ANP401      0.0000 
      2 O1G        46.9020   61.9150   18.6170 O.co2     1 ANP401      0.0000 
      3 O2G        46.8270   61.7400   16.0880 O.co2     1 ANP401      0.0000 
      4 O3G        47.8270   59.8340   17.5010 O.co2     1 ANP401      0.0000 
      5 PB         50.5730   61.6890   16.5650 P.3       1 ANP401      0.0000 
      6 O1B        50.9650   62.7380   15.4930 O.co2     1 ANP401      0.0000 
      7 O2B        50.3570   60.2950   15.8830 O.co2     1 ANP401      0.0000 
      8 N3B        49.1660   62.0920   17.3340 N.4       1 ANP401      0.0000 
      9 PA         52.3440   60.1890   18.0890 P.3       1 ANP401      0.0000 
     10 O1A        52.7470   60.3670   19.5500 O.co2     1 ANP401      0.0000 
     11 O2A        51.2850   59.0990   18.0470 O.co2     1 ANP401      0.0000 
     12 O3A        51.7660   61.5630   17.5660 O.3       1 ANP401      0.0000 
     13 O5'        53.5590   59.6940   17.1830 O.3       1 ANP401      0.0000 
     14 C5'        54.7090   60.5050   17.0160 C.3       1 ANP401      0.0000 
     15 C4'        55.6940   60.4090   18.1080 C.3       1 ANP401      0.0000 
     16 O4'        56.1550   59.1240   18.1050 O.3       1 ANP401      0.0000 
     17 C3'        56.9160   61.2530   17.9740 C.3       1 ANP401      0.0000 
     18 O3'        56.6900   62.4680   18.5950 O.3       1 ANP401      0.0000 
     19 C2'        57.9150   60.5180   18.7160 C.3       1 ANP401      0.0000 
     20 O2'        58.0240   61.0640   19.9920 O.3       1 ANP401      0.0000 
     21 C1'        57.4170   59.1350   18.8100 C.3       1 ANP401      0.0000 
     22 N9         58.1480   58.0220   18.1810 N.pl3     1 ANP401      0.0000 
     23 C8         58.1100   56.7260   18.5320 C.2       1 ANP401      0.0000 
     24 N7         58.8620   56.0350   17.6640 N.2       1 ANP401      0.0000 
     25 C5         59.3620   56.8940   16.7450 C.ar      1 ANP401      0.0000 
     26 C6         60.1940   56.7440   15.6230 C.ar      1 ANP401      0.0000 
     27 N6         60.7270   55.4280   15.2360 N.pl3     1 ANP401      0.0000 
     28 N1         60.4920   57.8620   14.9100 N.ar      1 ANP401      0.0000 
     29 C2         60.0250   59.0880   15.2430 C.ar      1 ANP401      0.0000 
     30 N3         59.2240   59.2580   16.3160 N.ar      1 ANP401      0.0000 
     31 C4         58.8880   58.1780   17.0670 C.ar      1 ANP401      0.0000 
     32 H          54.4163   61.5838   16.8998 H         1 ANP401      0.0000 
     33 H          55.2284   60.2574   16.0506 H         1 ANP401      0.0000 
     34 H          55.2167   60.6342   19.0538 H         1 ANP401      0.0000 
     35 H          57.1789   61.3209   16.9604 H         1 ANP401      0.0000 
     36 H          58.8396   60.5226   18.1843 H         1 ANP401      0.0000 
     37 H          57.1936   58.8827   19.8477 H         1 ANP401      0.0000 
     38 H          57.6234   56.3568   19.2820 H         1 ANP401      0.0000 
     39 H          61.2877   55.4064   14.4082 H         1 ANP401      0.0000 
     40 H          60.4851   54.6626   15.8323 H         1 ANP401      0.0000 
     41 H          60.2901   59.9161   14.6583 H         1 ANP401      0.0000 
     42 H          56.6146   63.1297   17.8490 H         1 ANP401      0.0000 
     43 H          57.4593   61.8890   19.9695 H         1 ANP401      0.0000 
@<TRIPOS>BOND
     1    2    1 ar   
     2    3    1 ar   
     3    4    1 ar   
     4    8    1 1    
     5    6    5 ar   
     6    7    5 ar   
     7    8    5 1    
     8   12    5 1    
     9   10    9 ar   
    10   11    9 ar   
    11   12    9 1    
    12   13    9 1    
    13   14   13 1    
    14   15   14 1    
    15   32   14 1    
    16   33   14 1    
    17   16   15 1    
    18   17   15 1    
    19   34   15 1    
    20   21   16 1    
    21   18   17 1    
    22   19   17 1    
    23   35   17 1    
    24   42   18 1    
    25   20   19 1    
    26   21   19 1    
    27   36   19 1    
    28   43   20 1    
    29   22   21 1    
    30   37   21 1    
    31   23   22 1    
    32   31   22 1    
    33   24   23 2    
    34   38   23 1    
    35   25   24 1    
    36   26   25 ar   
    37   31   25 ar   
    38   27   26 1    
    39   28   26 ar   
    40   39   27 1    
    41   40   27 1    
    42   29   28 ar   
    43   30   29 ar   
    44   41   29 1    
    45   31   30 ar   
@<TRIPOS>SUBSTRUCTURE
     1 ANP401      1 GROUP   
@<TRIPOS>SET

