#    Name: 3ctj_320_1_INTS_M
#    Modification time : Mon Mar 24 22:19:00 2014

@<TRIPOS>MOLECULE
3ctj_320_1_INTS_M
   80     0     9     0     0
SMALL
NO_CHARGES


@<TRIPOS>ATOM
      1 CA         -1.5240   -2.5405   56.8175 C.3       3 GLC5        0.0000 
      2 CA         -1.0960   -1.0490   56.2250 C.3       9 GLL5        0.0000 
      3 CA         -1.9520   -4.0320   57.4100 C.3       6 GLP5        0.0000 
      4 CA         -0.7315   -2.5865   54.7915 C.3       3 GLC5        0.0000 
      5 CA         -0.3670   -4.1240   53.3580 C.3       6 GLP5        0.0000 
      6 CA         -3.8710    0.1435   56.1495 C.3       3 GLC5        0.0000 
      7 CA         -2.1630    0.8240   55.1270 C.3       9 GLL5        0.0000 
      8 CA         -5.5790   -0.5370   57.1720 C.3       6 GLP5        0.0000 
      9 CA         -2.5355    3.2790   51.5725 C.3       3 GLC5        0.0000 
     10 CA         -0.8740    2.5940   51.8870 C.3       9 GLL5        0.0000 
     11 CA         -4.1970    3.9640   51.2580 C.3       6 GLP5        0.0000 
     12 N           0.7705    3.7100   54.7010 N.am      2 SEC2        0.0000 
     13 N          -0.2000    4.1990   53.7470 N.am      8 SEL2        0.0000 
     14 N           1.7410    3.2210   55.6550 N.am      5 SEP2        0.0000 
     15 O           1.3855    5.6215   53.3295 O.2       1 ALC1        0.0000 
     16 O           0.2320    6.5520   53.3870 O.2       7 ALL1        0.0000 
     17 O           2.5390    4.6910   53.2720 O.2       4 ALP1        0.0000 
     18 CA          0.4310   12.6635   52.1665 C.3       3 GLC5        0.0000 
     19 CA         -0.1760   11.3710   53.1470 C.3       9 GLL5        0.0000 
     20 CA          1.0380   13.9560   51.1860 C.3       6 GLP5        0.0000 
     21 CA         -0.5765   11.2900   50.9825 C.3       3 GLC5        0.0000 
     22 CA         -0.9770   11.2090   48.8180 C.3       6 GLP5        0.0000 
     23 CA          0.3125    6.0930   56.4395 C.3       3 GLC5        0.0000 
     24 CA          0.7350    7.8700   55.3610 C.3       9 GLL5        0.0000 
     25 CA         -0.1100    4.3160   57.5180 C.3       6 GLP5        0.0000 
     26 CA          0.8655    8.8425   57.9240 C.3       3 GLC5        0.0000 
     27 CA          0.8580    9.1280   55.9880 C.3       9 GLL5        0.0000 
     28 CA          0.8730    8.5570   59.8600 C.3       6 GLP5        0.0000 
     29 CA         -4.4815   12.7670   58.0500 C.3       3 GLC5        0.0000 
     30 CA         -2.7320   12.0560   57.5340 C.3       9 GLL5        0.0000 
     31 CA         -6.2310   13.4780   58.5660 C.3       6 GLP5        0.0000 
     32 CA         -3.2270   11.1265   58.9810 C.3       3 GLC5        0.0000 
     33 CA         -3.7220   10.1970   60.4280 C.3       6 GLP5        0.0000 
     34 N          -3.4920   12.8565   59.4265 N.am      2 SEC2        0.0000 
     35 N          -2.3260   12.7950   58.5140 N.am      8 SEL2        0.0000 
     36 N          -4.6580   12.9180   60.3390 N.am      5 SEP2        0.0000 
     37 CA         -2.1415   12.2320   60.0390 C.3       3 GLC5        0.0000 
     38 CA         -1.0660   13.2130   58.6890 C.3       9 GLL5        0.0000 
     39 CA         -3.2170   11.2510   61.3890 C.3       6 GLP5        0.0000 
     40 CA         -0.4930   14.8825   56.9670 C.3       3 GLC5        0.0000 
     41 CA         -0.1370   12.8550   57.8180 C.3       9 GLL5        0.0000 
     42 CA         -0.8490   16.9100   56.1160 C.3       6 GLP5        0.0000 
     43 O          -1.4550   13.9325   60.9700 O.2       1 ALC1        0.0000 
     44 O          -0.4930   14.0150   59.7410 O.2       7 ALL1        0.0000 
     45 O          -2.4170   13.8500   62.1990 O.2       4 ALP1        0.0000 
     46 CA          1.0340   13.2685   61.2100 C.3       3 GLC5        0.0000 
     47 CA          0.9310   14.1050   59.4250 C.3       9 GLL5        0.0000 
     48 CA          1.1370   12.4320   62.9950 C.3       6 GLP5        0.0000 
     49 CA         -0.6548   -0.7565   57.5555 C.3       3 GLC5        0.0000 
     50 CA         -0.2090   -0.8970   59.3890 C.3       6 GLP5        0.0000 
     51 CA         -1.0067    2.0290   55.9873 C.3       3 GLC5        0.0000 
     52 CA          0.1080    2.8070   57.3650 C.3       6 GLP5        0.0000 
     53 CA         -3.1135    1.9570   52.5542 C.3       3 GLC5        0.0000 
     54 CA         -2.0800    1.6780   54.0920 C.3       9 GLL5        0.0000 
     55 CA         -4.7040    2.2720   51.5200 C.3       6 GLP5        0.0000 
     56 CA          0.7504   -1.3790   55.9900 C.3       3 GLC5        0.0000 
     57 CA         -1.1050   -0.1830   55.2190 C.3       9 GLL5        0.0000 
     58 CA          2.1010   -2.3150   56.9550 C.3       6 GLP5        0.0000 
     59 CA         -0.2461    1.1820   56.1950 C.3       3 GLC5        0.0000 
     60 CA         -1.8530    1.2325   50.9400 C.3       3 GLC5        0.0000 
     61 CA         -0.9660    1.6060   53.0850 C.3       9 GLL5        0.0000 
     62 CA         -2.7860    0.3650   49.3940 C.3       6 GLP5        0.0000 
     63 CA          1.2891    1.4225   53.7390 C.3       3 GLC5        0.0000 
     64 CA          3.1030    1.9390   54.0430 C.3       6 GLP5        0.0000 
     65 CA         -1.1215    7.1132   55.3560 C.3       3 GLC5        0.0000 
     66 CA          0.3570    7.7970   54.0550 C.3       9 GLL5        0.0000 
     67 CA         -2.7890    6.3930   56.0040 C.3       6 GLP5        0.0000 
     68 CA         -1.5325    8.6357   53.1833 C.3       3 GLC5        0.0000 
     69 CA         -3.2680    8.8860   52.7090 C.3       6 GLP5        0.0000 
     70 CA          2.5080    7.1753   54.3945 C.3       3 GLC5        0.0000 
     71 CA          4.4700    6.5170   54.0810 C.3       6 GLP5        0.0000 
     72 CA         -1.6458    9.8330   53.1055 C.3       3 GLC5        0.0000 
     73 CA          0.1290   10.1890   53.8570 C.3       9 GLL5        0.0000 
     74 CA         -2.8675   12.9913   55.8298 C.3       3 GLC5        0.0000 
     75 CA         -1.7500   11.6440   56.5310 C.3       9 GLL5        0.0000 
     76 CA         -3.8190   14.0350   54.5900 C.3       6 GLP5        0.0000 
     77 CA         -0.8005   11.1282   58.5748 C.3       3 GLC5        0.0000 
     78 CA          0.3150   10.3090   60.0800 C.3       6 GLP5        0.0000 
     79 CA          0.2687   11.8541   59.3125 C.3       3 GLC5        0.0000 
     80 CA          1.1620   13.4240   58.2480 C.3       9 GLL5        0.0000 
@<TRIPOS>BOND
@<TRIPOS>SUBSTRUCTURE
     1 ALC1       15 GROUP        1 X    ALC  0     ROOT ALC X 1
     2 SEC2       12 GROUP        1 X    SEC  0     **** SEC X 2
     3 GLC5        1 GROUP        1 X    GLC  0     **** GLC X 6
     4 ALP1       17 GROUP        1 Y    ALP  0     ROOT ALP Y 8
     5 SEP2       14 GROUP        1 Y    SEP  0     **** SEP Y 9
     6 GLP5        3 GROUP        1 Y    GLP  0     **** GLP Y 13
     7 ALL1       16 GROUP        1 Z    ALL  0     ROOT ALL Z 15
     8 SEL2       13 GROUP        1 Z    SEL  0     **** SEL Z 16
     9 GLL5        2 GROUP        1 Z    GLL  0     **** GLL Z 20
@<TRIPOS>SET

