#    Name: 3ctj_320_1_ligand
#    Modification time : Mon Mar 24 22:19:00 2014

@<TRIPOS>MOLECULE
3ctj_320_1_ligand
   47    50     1     0     0
SMALL
NO_CHARGES


@<TRIPOS>ATOM
      1 F31        -1.0960   -1.0490   56.2250 F         1 3202001     0.0000 
      2 C28        -1.1050   -0.1830   55.2190 C.ar      1 3202001     0.0000 
      3 C29        -2.1630    0.8240   55.1270 C.ar      1 3202001     0.0000 
      4 C30        -2.0800    1.6780   54.0920 C.ar      1 3202001     0.0000 
      5 C27        -0.1000   -0.2700   54.3280 C.ar      1 3202001     0.0000 
      6 C26        -0.0670    0.6820   53.2420 C.ar      1 3202001     0.0000 
      7 C23        -0.9660    1.6060   53.0850 C.ar      1 3202001     0.0000 
      8 C22        -0.8740    2.5940   51.8870 C.3       1 3202001     0.0000 
      9 C21        -0.6090    3.9750   52.5600 C.2       1 3202001     0.0000 
     10 O25        -0.2000    4.1990   53.7470 O.2       1 3202001     0.0000 
     11 N20        -0.8940    5.1480   51.8540 N.am      1 3202001     0.0000 
     12 C19        -0.4000    6.3580   52.1530 C.2       1 3202001     0.0000 
     13 O24        -0.5430    7.1670   51.2690 O.2       1 3202001     0.0000 
     14 N18         0.2320    6.5520   53.3870 N.am      1 3202001     0.0000 
     15 C14         0.3570    7.7970   54.0550 C.ar      1 3202001     0.0000 
     16 C15         0.0490    8.9740   53.2600 C.ar      1 3202001     0.0000 
     17 C16         0.1290   10.1890   53.8570 C.ar      1 3202001     0.0000 
     18 F17        -0.1760   11.3710   53.1470 F         1 3202001     0.0000 
     19 C13         0.7350    7.8700   55.3610 C.ar      1 3202001     0.0000 
     20 C12         0.8580    9.1280   55.9880 C.ar      1 3202001     0.0000 
     21 C11         0.5670   10.2740   55.2860 C.ar      1 3202001     0.0000 
     22 O10         0.6310   11.6750   55.7670 O.3       1 3202001     0.0000 
     23 C6         -0.4500   12.0340   56.6790 C.ar      1 3202001     0.0000 
     24 C5         -1.7500   11.6440   56.5310 C.ar      1 3202001     0.0000 
     25 C4         -2.7320   12.0560   57.5340 C.ar      1 3202001     0.0000 
     26 N3         -2.3260   12.7950   58.5140 N.ar      1 3202001     0.0000 
     27 C2         -1.0660   13.2130   58.6890 C.ar      1 3202001     0.0000 
     28 C1         -0.1370   12.8550   57.8180 C.ar      1 3202001     0.0000 
     29 N9         -0.4930   14.0150   59.7410 N.pl3     1 3202001     0.0000 
     30 C8          0.9310   14.1050   59.4250 C.2       1 3202001     0.0000 
     31 C7          1.1620   13.4240   58.2480 C.2       1 3202001     0.0000 
     32 H          -2.8800    0.8286   55.8218 H         1 3202001     0.0000 
     33 H          -2.7699    2.4305   53.9249 H         1 3202001     0.0000 
     34 H           0.6355   -0.9676   54.3775 H         1 3202001     0.0000 
     35 H           0.7487    0.5711   52.5788 H         1 3202001     0.0000 
     36 H          -1.7981    2.6221   51.3807 H         1 3202001     0.0000 
     37 H          -0.0522    2.3365   51.2792 H         1 3202001     0.0000 
     38 H          -1.5550    5.0487   51.0205 H         1 3202001     0.0000 
     39 H           0.6528    5.7058   53.8660 H         1 3202001     0.0000 
     40 H          -0.2134    8.8430   52.2917 H         1 3202001     0.0000 
     41 H           0.9356    7.0222   55.9088 H         1 3202001     0.0000 
     42 H           1.1652    9.1706   56.9666 H         1 3202001     0.0000 
     43 H          -2.0740   11.0780   55.7544 H         1 3202001     0.0000 
     44 H          -3.6895   11.7282   57.3931 H         1 3202001     0.0000 
     45 H          -0.9142   14.3879   60.4496 H         1 3202001     0.0000 
     46 H           1.5494   14.5622   59.9645 H         1 3202001     0.0000 
     47 H           1.9478   13.3099   57.7736 H         1 3202001     0.0000 
@<TRIPOS>BOND
     1    2    1 1    
     2    3    2 ar   
     3    5    2 ar   
     4    4    3 ar   
     5   32    3 1    
     6    7    4 ar   
     7   33    4 1    
     8    6    5 ar   
     9   34    5 1    
    10    7    6 ar   
    11   35    6 1    
    12    8    7 1    
    13    9    8 1    
    14   36    8 1    
    15   37    8 1    
    16   10    9 2    
    17   11    9 1    
    18   12   11 1    
    19   38   11 1    
    20   13   12 2    
    21   14   12 1    
    22   15   14 1    
    23   39   14 1    
    24   16   15 ar   
    25   19   15 ar   
    26   17   16 ar   
    27   40   16 1    
    28   18   17 1    
    29   21   17 ar   
    30   20   19 ar   
    31   41   19 1    
    32   21   20 ar   
    33   42   20 1    
    34   22   21 1    
    35   23   22 1    
    36   24   23 ar   
    37   28   23 ar   
    38   25   24 ar   
    39   43   24 1    
    40   26   25 ar   
    41   44   25 1    
    42   27   26 ar   
    43   28   27 ar   
    44   29   27 1    
    45   31   28 1    
    46   30   29 1    
    47   45   29 1    
    48   31   30 2    
    49   46   30 1    
    50   47   31 1    
@<TRIPOS>SUBSTRUCTURE
     1 3202001     1 GROUP   
@<TRIPOS>SET

