#    Name: 3hec_STI_1_INTS_M
#    Modification time : Tue Mar 25 14:11:03 2014

@<TRIPOS>MOLECULE
3hec_STI_1_INTS_M
   87     0     9     0     0
SMALL
NO_CHARGES


@<TRIPOS>ATOM
      1 CA         20.3125    2.4860  -26.3625 C.3       3 GLC5        0.0000 
      2 CA         18.7860    1.9450  -25.2700 C.3       9 GLL5        0.0000 
      3 CA         21.8390    3.0270  -27.4550 C.3       6 GLP5        0.0000 
      4 CA         17.3430    1.7695  -26.5175 C.3       3 GLC5        0.0000 
      5 CA         15.9000    1.5940  -27.7650 C.3       6 GLP5        0.0000 
      6 N          18.4965    2.2805  -27.3975 N.am      2 SEC2        0.0000 
      7 N          18.7590    2.8520  -26.2740 N.am      8 SEL2        0.0000 
      8 N          18.2340    1.7090  -28.5210 N.am      5 SEP2        0.0000 
      9 CA         17.8205    3.0915  -27.4685 C.3       3 GLC5        0.0000 
     10 CA         18.7860    4.1760  -26.0450 C.3       9 GLL5        0.0000 
     11 CA         16.8550    2.0070  -28.8920 C.3       6 GLP5        0.0000 
     12 CA         20.4720    1.4695  -19.6055 C.3       3 GLC5        0.0000 
     13 CA         18.5400    0.8440  -20.4390 C.3       9 GLL5        0.0000 
     14 CA         22.4040    2.0950  -18.7720 C.3       6 GLP5        0.0000 
     15 CA         20.7360   -0.2940  -23.4245 C.3       3 GLC5        0.0000 
     16 CA         19.1550   -0.7870  -21.9670 C.3       9 GLL5        0.0000 
     17 CA         22.3170    0.1990  -24.8820 C.3       6 GLP5        0.0000 
     18 CA         17.2130   -1.1790  -22.7540 C.3       3 GLC5        0.0000 
     19 CA         15.2710   -1.5710  -23.5410 C.3       6 GLP5        0.0000 
     20 O          20.0090   -2.6320  -23.5495 O.2       1 ALC1        0.0000 
     21 O          19.4620   -2.0470  -22.2580 O.2       7 ALL1        0.0000 
     22 O          20.5560   -3.2170  -24.8410 O.2       4 ALP1        0.0000 
     23 CA         20.9060   -3.3920  -18.0705 C.3       3 GLC5        0.0000 
     24 CA         20.4150   -4.8210  -19.4210 C.3       9 GLL5        0.0000 
     25 CA         21.3970   -1.9630  -16.7200 C.3       6 GLP5        0.0000 
     26 CA         19.6950   -4.5535  -22.3325 C.3       3 GLC5        0.0000 
     27 CA         18.7120   -3.6320  -20.5960 C.3       9 GLL5        0.0000 
     28 CA         20.6780   -5.4750  -24.0690 C.3       6 GLP5        0.0000 
     29 O          18.7220   -5.6545  -17.6155 O.2       1 ALC1        0.0000 
     30 O          18.1240   -5.3040  -18.8480 O.2       7 ALL1        0.0000 
     31 O          19.3200   -6.0050  -16.3830 O.2       4 ALP1        0.0000 
     32 CA         13.8490   -5.3705  -20.2500 C.3       3 GLC5        0.0000 
     33 CA         14.7180   -6.8240  -19.1900 C.3       9 GLL5        0.0000 
     34 CA         12.9800   -3.9170  -21.3100 C.3       6 GLP5        0.0000 
     35 CA         10.9590   -7.4185  -17.2930 C.3       3 GLC5        0.0000 
     36 CA         12.6320   -8.6050  -16.6020 C.3       9 GLL5        0.0000 
     37 CA          9.2860   -6.2320  -17.9840 C.3       6 GLP5        0.0000 
     38 CA         14.2255   -9.4200  -14.8395 C.3       3 GLC5        0.0000 
     39 CA         12.9640   -7.5860  -14.5590 C.3       9 GLL5        0.0000 
     40 CA         15.4870  -11.2540  -15.1200 C.3       6 GLP5        0.0000 
     41 CA         13.2225   -5.8140  -15.6540 C.3       3 GLC5        0.0000 
     42 CA         13.4810   -4.0420  -16.7490 C.3       6 GLP5        0.0000 
     43 CA          9.5460   -7.8910  -10.2890 C.3       3 GLC5        0.0000 
     44 CA         11.3590   -8.0920  -11.2850 C.3       9 GLL5        0.0000 
     45 CA          7.7330   -7.6900   -9.2930 C.3       6 GLP5        0.0000 
     46 N          15.0020   -4.0750  -19.5560 N.am      2 SEC2        0.0000 
     47 N          16.2940   -4.7560  -20.0070 N.am      8 SEL2        0.0000 
     48 N          13.7100   -3.3940  -19.1050 N.am      5 SEP2        0.0000 
     49 CA         22.2625   -1.1440  -23.3710 C.3       3 GLC5        0.0000 
     50 CA         22.2080   -2.4870  -21.8600 C.3       9 GLL5        0.0000 
     51 CA         21.4430   -3.9810  -22.9645 C.3       3 GLC5        0.0000 
     52 CA         20.2847    5.0020  -23.4793 C.3       3 GLC5        0.0000 
     53 CA         18.8750    3.7470  -23.6800 C.3       9 GLL5        0.0000 
     54 CA         21.7080    5.8030  -22.7470 C.3       6 GLP5        0.0000 
     55 CA         20.3280    3.7213  -26.4245 C.3       3 GLC5        0.0000 
     56 CA         18.8480    4.6550  -24.7430 C.3       9 GLL5        0.0000 
     57 CA         20.7473    1.9607  -21.7175 C.3       3 GLC5        0.0000 
     58 CA         18.8550    1.3750  -22.7930 C.3       9 GLL5        0.0000 
     59 CA         22.8020    2.3530  -21.2970 C.3       6 GLP5        0.0000 
     60 CA         20.5764    0.9825  -24.2897 C.3       3 GLC5        0.0000 
     61 CA         18.1740   -3.7435  -22.5343 C.3       3 GLC5        0.0000 
     62 CA         19.7220   -2.9540  -21.3070 C.3       9 GLL5        0.0000 
     63 CA         17.1310   -4.1940  -24.1170 C.3       6 GLP5        0.0000 
     64 CA         22.2730   -5.5047  -18.8545 C.3       3 GLC5        0.0000 
     65 CA         23.6180   -6.5100  -17.9380 C.3       6 GLP5        0.0000 
     66 CA         20.8079   -4.5545  -22.3622 C.3       3 GLC5        0.0000 
     67 CA         21.4410   -4.1780  -20.1210 C.3       9 GLL5        0.0000 
     68 CA         19.9680   -6.2901  -20.3820 C.3       3 GLC5        0.0000 
     69 CA         19.9510   -8.0370  -21.0710 C.3       6 GLP5        0.0000 
     70 CA         15.4618   -6.7240  -20.7955 C.3       3 GLC5        0.0000 
     71 CA         15.7970   -6.2940  -18.4300 C.3       9 GLL5        0.0000 
     72 CA         15.6660   -6.8890  -22.7810 C.3       6 GLP5        0.0000 
     73 CA         14.6500   -5.2192  -17.2435 C.3       3 GLC5        0.0000 
     74 CA         13.8670   -5.7790  -16.8075 C.3       3 GLC5        0.0000 
     75 CA         14.7940   -7.2450  -16.4810 C.3       9 GLL5        0.0000 
     76 CA         13.8385   -5.6223  -17.8297 C.3       3 GLC5        0.0000 
     77 CA         13.6740   -7.5810  -18.6310 C.3       9 GLL5        0.0000 
     78 CA         16.8543   -7.7111  -18.8610 C.3       3 GLC5        0.0000 
     79 CA         18.4400   -8.8120  -19.2580 C.3       6 GLP5        0.0000 
     80 CA         14.4647   -9.6573  -15.9270 C.3       3 GLC5        0.0000 
     81 CA         13.6925  -10.5407  -14.5023 C.3       3 GLC5        0.0000 
     82 CA         11.9100   -9.8850  -14.6580 C.3       9 GLL5        0.0000 
     83 CA         11.2665  -11.3063  -15.0413 C.3       3 GLC5        0.0000 
     84 CA         10.6350  -12.7850  -16.1980 C.3       6 GLP5        0.0000 
     85 CA         22.9485   -2.4908  -19.9258 C.3       3 GLC5        0.0000 
     86 CA         21.1470   -3.2260  -21.0730 C.3       9 GLL5        0.0000 
     87 CA         24.1460   -1.8870  -18.6230 C.3       6 GLP5        0.0000 
@<TRIPOS>BOND
@<TRIPOS>SUBSTRUCTURE
     1 ALC1       20 GROUP        1 X    ALC  0     ROOT ALC X 1
     2 SEC2        6 GROUP        1 X    SEC  0     **** SEC X 2
     3 GLC5        1 GROUP        1 X    GLC  0     **** GLC X 6
     4 ALP1       22 GROUP        1 Y    ALP  0     ROOT ALP Y 8
     5 SEP2        8 GROUP        1 Y    SEP  0     **** SEP Y 9
     6 GLP5        3 GROUP        1 Y    GLP  0     **** GLP Y 13
     7 ALL1       21 GROUP        1 Z    ALL  0     ROOT ALL Z 15
     8 SEL2        7 GROUP        1 Z    SEL  0     **** SEL Z 16
     9 GLL5        2 GROUP        1 Z    GLL  0     **** GLL Z 20
@<TRIPOS>SET

