#    Name: 3hec_STI_1_ligand
#    Modification time : Tue Mar 25 14:11:03 2014

@<TRIPOS>MOLECULE
3hec_STI_1_ligand
   69    73     1     0     0
SMALL
NO_CHARGES


@<TRIPOS>ATOM
      1 C1         18.8480    4.6550  -24.7430 C.ar      1 STI1        0.0000 
      2 C6         18.8750    3.7470  -23.6800 C.ar      1 STI1        0.0000 
      3 C5         18.8470    2.3690  -23.9340 C.ar      1 STI1        0.0000 
      4 C4         18.7860    1.9450  -25.2700 C.ar      1 STI1        0.0000 
      5 N3         18.7590    2.8520  -26.2740 N.ar      1 STI1        0.0000 
      6 C2         18.7860    4.1760  -26.0450 C.ar      1 STI1        0.0000 
      7 C7         18.8550    1.3750  -22.7930 C.ar      1 STI1        0.0000 
      8 C12        18.5300    1.7620  -21.4830 C.ar      1 STI1        0.0000 
      9 C11        18.5400    0.8440  -20.4390 C.ar      1 STI1        0.0000 
     10 N10        18.8500   -0.4240  -20.6970 N.ar      1 STI1        0.0000 
     11 C9         19.1550   -0.7870  -21.9670 C.ar      1 STI1        0.0000 
     12 N8         19.1500    0.0720  -23.0060 N.ar      1 STI1        0.0000 
     13 N13        19.4620   -2.0470  -22.2580 N.pl3     1 STI1        0.0000 
     14 C14        19.7220   -2.9540  -21.3070 C.ar      1 STI1        0.0000 
     15 C19        21.1470   -3.2260  -21.0730 C.ar      1 STI1        0.0000 
     16 C18        21.4410   -4.1780  -20.1210 C.ar      1 STI1        0.0000 
     17 C17        20.4150   -4.8210  -19.4210 C.ar      1 STI1        0.0000 
     18 C16        19.0420   -4.5870  -19.6150 C.ar      1 STI1        0.0000 
     19 C15        18.7120   -3.6320  -20.5960 C.ar      1 STI1        0.0000 
     20 N21        18.1240   -5.3040  -18.8480 N.am      1 STI1        0.0000 
     21 C22        16.8210   -5.4380  -19.1430 C.2       1 STI1        0.0000 
     22 C23        15.7970   -6.2940  -18.4300 C.ar      1 STI1        0.0000 
     23 C25        15.8410   -6.4990  -17.0460 C.ar      1 STI1        0.0000 
     24 C26        14.7940   -7.2450  -16.4810 C.ar      1 STI1        0.0000 
     25 C27        13.7120   -7.7870  -17.2510 C.ar      1 STI1        0.0000 
     26 C28        13.6740   -7.5810  -18.6310 C.ar      1 STI1        0.0000 
     27 C29        14.7180   -6.8240  -19.1900 C.ar      1 STI1        0.0000 
     28 C46        12.6320   -8.6050  -16.6020 C.3       1 STI1        0.0000 
     29 N48        12.5470   -8.7480  -15.3390 N.3       1 STI1        0.0000 
     30 C53        12.9640   -7.5860  -14.5590 C.3       1 STI1        0.0000 
     31 C52        11.8340   -7.2450  -13.5950 C.3       1 STI1        0.0000 
     32 N51        11.6980   -8.3900  -12.6710 N.4       1 STI1        0.0000 
     33 C54        11.3590   -8.0920  -11.2850 C.3       1 STI1        0.0000 
     34 C50        11.8860   -9.7700  -13.1110 C.3       1 STI1        0.0000 
     35 C49        11.9100   -9.8850  -14.6580 C.3       1 STI1        0.0000 
     36 O29        16.2940   -4.7560  -20.0070 O.2       1 STI1        0.0000 
     37 C20        22.2080   -2.4870  -21.8600 C.3       1 STI1        0.0000 
     38 H          18.8738    5.6605  -24.5590 H         1 STI1        0.0000 
     39 H          18.9153    4.0880  -22.7139 H         1 STI1        0.0000 
     40 H          18.7624    0.9291  -25.4657 H         1 STI1        0.0000 
     41 H          18.7613    4.8564  -26.8269 H         1 STI1        0.0000 
     42 H          18.2798    2.7481  -21.2978 H         1 STI1        0.0000 
     43 H          18.3064    1.1685  -19.4875 H         1 STI1        0.0000 
     44 H          19.5036   -2.3486  -23.2745 H         1 STI1        0.0000 
     45 H          22.4223   -4.4246  -19.9165 H         1 STI1        0.0000 
     46 H          20.6890   -5.5369  -18.6909 H         1 STI1        0.0000 
     47 H          17.7256   -3.4275  -20.7953 H         1 STI1        0.0000 
     48 H          18.5053   -5.7726  -17.9666 H         1 STI1        0.0000 
     49 H          16.5844   -6.1313  -16.4826 H         1 STI1        0.0000 
     50 H          14.7918   -7.4200  -15.4542 H         1 STI1        0.0000 
     51 H          12.9378   -7.9540  -19.2014 H         1 STI1        0.0000 
     52 H          14.7070   -6.6368  -20.2186 H         1 STI1        0.0000 
     53 H          12.6721   -9.6317  -17.1716 H         1 STI1        0.0000 
     54 H          11.6396   -8.1946  -17.0784 H         1 STI1        0.0000 
     55 H          13.1423   -6.7291  -15.1987 H         1 STI1        0.0000 
     56 H          13.8563   -7.8018  -13.9823 H         1 STI1        0.0000 
     57 H          10.9261   -7.0978  -14.1586 H         1 STI1        0.0000 
     58 H          12.0929   -6.3470  -13.0565 H         1 STI1        0.0000 
     59 H          13.1018   -8.2867  -12.3441 H         1 STI1        0.0000 
     60 H          11.0769  -10.4163  -12.7441 H         1 STI1        0.0000 
     61 H          12.8331  -10.1802  -12.7344 H         1 STI1        0.0000 
     62 H          12.4278  -10.8310  -14.9118 H         1 STI1        0.0000 
     63 H          10.8623  -10.0053  -14.9975 H         1 STI1        0.0000 
     64 H          11.2907   -8.9227  -10.7325 H         1 STI1        0.0000 
     65 H          12.0455   -7.5077  -10.8521 H         1 STI1        0.0000 
     66 H          10.4817   -7.6178  -11.2109 H         1 STI1        0.0000 
     67 H          23.1302   -2.7708  -21.5974 H         1 STI1        0.0000 
     68 H          22.1206   -2.6478  -22.8431 H         1 STI1        0.0000 
     69 H          22.1541   -1.4985  -21.7188 H         1 STI1        0.0000 
@<TRIPOS>BOND
     1    2    1 ar   
     2    6    1 ar   
     3   38    1 1    
     4    3    2 ar   
     5   39    2 1    
     6    4    3 ar   
     7    7    3 1    
     8    5    4 ar   
     9   40    4 1    
    10    6    5 ar   
    11   41    6 1    
    12    8    7 ar   
    13   12    7 ar   
    14    9    8 ar   
    15   42    8 1    
    16   10    9 ar   
    17   43    9 1    
    18   11   10 ar   
    19   12   11 ar   
    20   13   11 1    
    21   14   13 1    
    22   44   13 1    
    23   15   14 ar   
    24   19   14 ar   
    25   16   15 ar   
    26   37   15 1    
    27   17   16 ar   
    28   45   16 1    
    29   18   17 ar   
    30   46   17 1    
    31   19   18 ar   
    32   20   18 1    
    33   47   19 1    
    34   21   20 am   
    35   48   20 1    
    36   22   21 1    
    37   36   21 2    
    38   23   22 ar   
    39   27   22 ar   
    40   24   23 ar   
    41   49   23 1    
    42   25   24 ar   
    43   50   24 1    
    44   26   25 ar   
    45   28   25 1    
    46   27   26 ar   
    47   51   26 1    
    48   52   27 1    
    49   29   28 1    
    50   53   28 1    
    51   54   28 1    
    52   30   29 1    
    53   35   29 1    
    54   31   30 1    
    55   55   30 1    
    56   56   30 1    
    57   32   31 1    
    58   57   31 1    
    59   58   31 1    
    60   33   32 1    
    61   34   32 1    
    62   59   32 1    
    63   64   33 1    
    64   65   33 1    
    65   66   33 1    
    66   35   34 1    
    67   60   34 1    
    68   61   34 1    
    69   62   35 1    
    70   63   35 1    
    71   67   37 1    
    72   68   37 1    
    73   69   37 1    
@<TRIPOS>SUBSTRUCTURE
     1 STI1        1 GROUP   
@<TRIPOS>SET

