#    Name: 2bxi_AZQ_2_INTS_M
#    Modification time : Mon Mar 24 21:54:15 2014

@<TRIPOS>MOLECULE
2bxi_AZQ_2_INTS_M
   44     0     6     0     0
SMALL
NO_CHARGES


@<TRIPOS>ATOM
      1 N          33.2665   14.3715   31.2015 N.am      1 SEC2        0.0000 
      2 N          32.0580   13.4910   31.2490 N.am      5 SEL2        0.0000 
      3 N          34.4750   15.2520   31.1540 N.am      3 SEP2        0.0000 
      4 CA         30.0455   13.2375   30.4585 C.3       2 GLC5        0.0000 
      5 CA         32.1160   12.5350   30.1760 C.3       6 GLL5        0.0000 
      6 CA         27.9750   13.9400   30.7410 C.3       4 GLP5        0.0000 
      7 CA         27.6910   10.0935   32.4770 C.3       2 GLC5        0.0000 
      8 CA         28.3250    8.1870   32.8510 C.3       6 GLL5        0.0000 
      9 CA         27.0570   12.0000   32.1030 C.3       4 GLP5        0.0000 
     10 CA         33.6635   14.2925   34.0645 C.3       2 GLC5        0.0000 
     11 CA         32.0260   13.9710   34.8240 C.3       6 GLL5        0.0000 
     12 CA         35.3010   14.6140   33.3050 C.3       4 GLP5        0.0000 
     13 CA         33.1445   15.6515   34.9620 C.3       2 GLC5        0.0000 
     14 CA         34.2630   17.3320   35.1000 C.3       4 GLP5        0.0000 
     15 CA         33.1630   15.0645   33.2070 C.3       2 GLC5        0.0000 
     16 CA         31.0250   15.5150   33.1090 C.3       6 GLL5        0.0000 
     17 CA         32.6440   16.4235   34.1045 C.3       2 GLC5        0.0000 
     18 CA         30.9425   17.1455   34.4285 C.3       2 GLC5        0.0000 
     19 CA         30.8600   18.7760   35.7480 C.3       4 GLP5        0.0000 
     20 CA         30.3900   16.7185   31.9120 C.3       2 GLC5        0.0000 
     21 CA         29.7550   17.9220   30.7150 C.3       4 GLP5        0.0000 
     22 CA         29.5000   14.7275   31.9250 C.3       2 GLC5        0.0000 
     23 CA         32.8860   10.0995   25.1660 C.3       2 GLC5        0.0000 
     24 CA         32.2920    9.5830   26.9870 C.3       6 GLL5        0.0000 
     25 CA         33.4800   10.6160   23.3450 C.3       4 GLP5        0.0000 
     26 CA         31.5980    8.7790   25.4185 C.3       2 GLC5        0.0000 
     27 CA         30.9040    7.9750   23.8500 C.3       4 GLP5        0.0000 
     28 CA         28.3650   10.7330   32.8860 C.3       2 GLC5        0.0000 
     29 CA         30.1190    9.9660   33.3180 C.3       6 GLL5        0.0000 
     30 CA         33.4648   11.2703   31.2862 C.3       2 GLC5        0.0000 
     31 CA         31.9370   11.1460   30.4850 C.3       6 GLL5        0.0000 
     32 CA         34.9030   10.7000   32.2420 C.3       4 GLP5        0.0000 
     33 CA         31.1125   12.7632   27.2583 C.3       2 GLC5        0.0000 
     34 CA         32.3510   12.9470   28.8460 C.3       6 GLL5        0.0000 
     35 CA         29.8470   13.0690   26.1800 C.3       4 GLP5        0.0000 
     36 CA         31.0553   11.5840   26.8562 C.3       2 GLC5        0.0000 
     37 CA         34.0677   10.5181   29.0851 C.3       2 GLC5        0.0000 
     38 CA         32.4050   11.9680   27.8270 C.3       6 GLL5        0.0000 
     39 CA         35.9760   10.2890   29.4820 C.3       4 GLP5        0.0000 
     40 CA         27.3275    8.4547   31.4990 C.3       2 GLC5        0.0000 
     41 CA         26.5320    9.2440   29.8600 C.3       4 GLP5        0.0000 
     42 CA         33.1887    8.5185   28.2220 C.3       2 GLC5        0.0000 
     43 CA         32.2350   10.6150   28.0780 C.3       6 GLL5        0.0000 
     44 CA         34.1730    7.0410   28.5750 C.3       4 GLP5        0.0000 
@<TRIPOS>BOND
@<TRIPOS>SUBSTRUCTURE
     1 SEC2        1 GROUP        1 X    SEC  0     ROOT SEC X 2
     2 GLC5        4 GROUP        1 X    GLC  0     **** GLC X 6
     3 SEP2        3 GROUP        1 Y    SEP  0     ROOT SEP Y 9
     4 GLP5        6 GROUP        1 Y    GLP  0     **** GLP Y 13
     5 SEL2        2 GROUP        1 Z    SEL  0     ROOT SEL Z 16
     6 GLL5        5 GROUP        1 Z    GLL  0     **** GLL Z 20
@<TRIPOS>SET

