#    Name: 2bxi_AZQ_2_ligand
#    Modification time : Mon Mar 24 21:54:15 2014

@<TRIPOS>MOLECULE
2bxi_AZQ_2_ligand
   38    40     1     0     0
SMALL
NO_CHARGES


@<TRIPOS>ATOM
      1 C1         31.0480    9.6290   32.3290 C.2       1 AZQ2002     0.0000 
      2 C2         30.1190    9.9660   33.3180 C.3       1 AZQ2002     0.0000 
      3 C3         30.1110   11.3250   33.5760 C.2       1 AZQ2002     0.0000 
      4 N1         31.1310   11.9150   32.6760 N.am      1 AZQ2002     0.0000 
      5 C4         31.5850   13.2230   32.4670 C.2       1 AZQ2002     0.0000 
      6 N2         32.0580   13.4910   31.2490 N.2       1 AZQ2002     0.0000 
      7 C5         32.1160   12.5350   30.1760 C.ar      1 AZQ2002     0.0000 
      8 C6         32.3510   12.9470   28.8460 C.ar      1 AZQ2002     0.0000 
      9 C7         32.4050   11.9680   27.8270 C.ar      1 AZQ2002     0.0000 
     10 C8         32.2350   10.6150   28.0780 C.ar      1 AZQ2002     0.0000 
     11 C9         31.9990   10.2030   29.4240 C.ar      1 AZQ2002     0.0000 
     12 C10        31.9370   11.1460   30.4850 C.ar      1 AZQ2002     0.0000 
     13 N3         31.7190   10.8340   31.8950 N.am      1 AZQ2002     0.0000 
     14 O1         31.3560    8.5260   31.8240 O.2       1 AZQ2002     0.0000 
     15 C11        29.2270    8.9660   34.0200 C.3       1 AZQ2002     0.0000 
     16 C12        28.3250    8.1870   32.8510 C.2       1 AZQ2002     0.0000 
     17 C13        27.9210    7.1440   33.4250 C.2       1 AZQ2002     0.0000 
     18 O2         29.4670   12.0400   34.3580 O.2       1 AZQ2002     0.0000 
     19 N4         31.5500   14.1640   33.4300 N.pl3     1 AZQ2002     0.0000 
     20 C14        32.0260   13.9710   34.8240 C.3       1 AZQ2002     0.0000 
     21 C15        31.0250   15.5150   33.1090 C.3       1 AZQ2002     0.0000 
     22 C16        32.2920    9.5830   26.9870 C.3       1 AZQ2002     0.0000 
     23 H          31.1367    9.7825   34.3282 H         1 AZQ2002     0.0000 
     24 H          32.4789   13.9271   28.6246 H         1 AZQ2002     0.0000 
     25 H          32.5808   12.2889   26.8488 H         1 AZQ2002     0.0000 
     26 H          31.8718    9.2047   29.6268 H         1 AZQ2002     0.0000 
     27 H          28.5233    9.4389   34.6618 H         1 AZQ2002     0.0000 
     28 H          29.7862    8.2053   34.5093 H         1 AZQ2002     0.0000 
     29 H          28.2853    8.6257   32.0515 H         1 AZQ2002     0.0000 
     30 H          32.9970   13.7340   34.8554 H         1 AZQ2002     0.0000 
     31 H          31.9080   14.7975   35.3745 H         1 AZQ2002     0.0000 
     32 H          31.5300   13.2368   35.2875 H         1 AZQ2002     0.0000 
     33 H          31.0491   16.1213   33.9038 H         1 AZQ2002     0.0000 
     34 H          31.5559   15.9577   32.3864 H         1 AZQ2002     0.0000 
     35 H          30.0759   15.4799   32.7959 H         1 AZQ2002     0.0000 
     36 H          33.1774    9.5825   26.5222 H         1 AZQ2002     0.0000 
     37 H          32.1466    8.6593   27.3415 H         1 AZQ2002     0.0000 
     38 H          31.5943    9.7421   26.2885 H         1 AZQ2002     0.0000 
@<TRIPOS>BOND
     1    2    1 1    
     2   13    1 am   
     3   14    1 2    
     4    3    2 1    
     5   15    2 1    
     6   23    2 1    
     7    4    3 am   
     8   18    3 2    
     9    5    4 1    
    10   13    4 1    
    11    6    5 2    
    12   19    5 1    
    13    7    6 1    
    14    8    7 ar   
    15   12    7 ar   
    16    9    8 ar   
    17   24    8 1    
    18   10    9 ar   
    19   25    9 1    
    20   11   10 ar   
    21   22   10 1    
    22   12   11 ar   
    23   26   11 1    
    24   13   12 1    
    25   16   15 1    
    26   27   15 1    
    27   28   15 1    
    28   17   16 2    
    29   29   16 1    
    30   20   19 1    
    31   21   19 1    
    32   30   20 1    
    33   31   20 1    
    34   32   20 1    
    35   33   21 1    
    36   34   21 1    
    37   35   21 1    
    38   36   22 1    
    39   37   22 1    
    40   38   22 1    
@<TRIPOS>SUBSTRUCTURE
     1 AZQ2002     1 GROUP   
@<TRIPOS>SET

