#    Name: 3vhi_VHI_2_INTS_M
#    Modification time : Tue Mar 25 00:51:29 2014

@<TRIPOS>MOLECULE
3vhi_VHI_2_INTS_M
   79     0     9     0     0
SMALL
NO_CHARGES


@<TRIPOS>ATOM
      1 CA        -27.5120   -1.7695   -9.7765 C.3       3 GLC5        0.0000 
      2 CA        -26.9990   -2.8770   -8.2660 C.3       9 GLL5        0.0000 
      3 CA        -28.0250   -0.6620  -11.2870 C.3       6 GLP5        0.0000 
      4 CA        -24.1625   -3.5030   -9.0010 C.3       3 GLC5        0.0000 
      5 CA        -25.6330   -3.7310   -7.3300 C.3       9 GLL5        0.0000 
      6 CA        -22.6920   -3.2750  -10.6720 C.3       6 GLP5        0.0000 
      7 O         -26.5990   -3.8715   -4.2850 O.2       1 ALC1        0.0000 
      8 O         -27.0700   -4.4340   -5.4740 O.2       7 ALL1        0.0000 
      9 O         -26.1280   -3.3090   -3.0960 O.2       4 ALP1        0.0000 
     10 N         -29.0655   -4.8460   -3.3670 N.am      2 SEC2        0.0000 
     11 N         -29.0690   -4.6890   -4.7220 N.am      8 SEL2        0.0000 
     12 N         -29.0620   -5.0030   -2.0120 N.am      5 SEP2        0.0000 
     13 N         -30.0435   -3.8660   -4.9580 N.am      2 SEC2        0.0000 
     14 N         -31.0180   -3.0430   -5.1940 N.am      5 SEP2        0.0000 
     15 CA        -25.6315   -5.8815   -5.3230 C.3       3 GLC5        0.0000 
     16 CA        -26.2670   -4.8440   -6.6710 C.3       9 GLL5        0.0000 
     17 CA        -24.9960   -6.9190   -3.9750 C.3       6 GLP5        0.0000 
     18 CA        -27.7595   -7.1675   -6.3670 C.3       3 GLC5        0.0000 
     19 CA        -27.2670   -5.4200   -7.6730 C.3       9 GLL5        0.0000 
     20 CA        -28.2520   -8.9150   -5.0610 C.3       6 GLP5        0.0000 
     21 CA        -27.3365   -6.3430   -9.4945 C.3       3 GLC5        0.0000 
     22 CA        -27.4060   -7.2660  -11.3160 C.3       6 GLP5        0.0000 
     23 CA        -25.8330   -6.4470   -8.1405 C.3       3 GLC5        0.0000 
     24 CA        -24.3990   -7.4740   -8.6080 C.3       6 GLP5        0.0000 
     25 CA        -28.0660   -5.4570  -10.1165 C.3       3 GLC5        0.0000 
     26 CA        -27.5700   -4.4690   -8.7630 C.3       9 GLL5        0.0000 
     27 CA        -28.5620   -6.4450  -11.4700 C.3       6 GLP5        0.0000 
     28 CA        -25.6075   -5.3620   -8.6640 C.3       3 GLC5        0.0000 
     29 CA        -23.6450   -6.2550   -8.5650 C.3       6 GLP5        0.0000 
     30 CA        -25.6515   -2.3645   -4.4555 C.3       3 GLC5        0.0000 
     31 CA        -24.9090   -2.6970   -6.4100 C.3       9 GLL5        0.0000 
     32 CA        -26.3940   -2.0320   -2.5010 C.3       6 GLP5        0.0000 
     33 CA        -23.2800   -2.6090   -8.9495 C.3       3 GLC5        0.0000 
     34 CA        -23.8680   -1.9430   -7.2270 C.3       9 GLL5        0.0000 
     35 CA        -24.0970   -1.1655   -4.2040 C.3       3 GLC5        0.0000 
     36 CA        -23.2160   -1.0160   -6.1390 C.3       9 GLL5        0.0000 
     37 CA        -24.9780   -1.3150   -2.2690 C.3       6 GLP5        0.0000 
     38 CA        -22.0860   -2.6265   -5.1750 C.3       3 GLC5        0.0000 
     39 CA        -20.9560   -4.2370   -4.2110 C.3       6 GLP5        0.0000 
     40 CA        -23.5635    1.2145   -6.5830 C.3       3 GLC5        0.0000 
     41 CA        -22.2510    0.0010   -6.8290 C.3       9 GLL5        0.0000 
     42 CA        -24.8760    2.4280   -6.3370 C.3       6 GLP5        0.0000 
     43 CA        -22.6425   -0.3910   -8.9450 C.3       3 GLC5        0.0000 
     44 CA        -23.0340   -0.7830  -11.0610 C.3       6 GLP5        0.0000 
     45 N         -20.1825   -1.9700   -5.6045 N.am      2 SEC2        0.0000 
     46 N         -20.7140   -1.8030   -6.8890 N.am      8 SEL2        0.0000 
     47 N         -19.6510   -2.1370   -4.3200 N.am      5 SEP2        0.0000 
     48 N         -20.1360   -3.0680   -6.5360 N.am      2 SEC2        0.0000 
     49 N         -19.5580   -4.3330   -6.1830 N.am      5 SEP2        0.0000 
     50 CA        -32.3440   -6.9945   -7.6820 C.3       3 GLC5        0.0000 
     51 CA        -31.2880   -7.7240   -6.7300 C.3       9 GLL5        0.0000 
     52 CA        -33.4000   -6.2650   -8.6340 C.3       6 GLP5        0.0000 
     53 CA        -26.3605   -1.3475   -7.3565 C.3       3 GLC5        0.0000 
     54 CA        -26.4050    0.6090   -6.9150 C.3       6 GLP5        0.0000 
     55 CA        -29.0707   -2.8170   -8.6672 C.3       3 GLC5        0.0000 
     56 CA        -30.8570   -1.9610   -8.8200 C.3       6 GLP5        0.0000 
     57 CA        -24.7975   -5.2713   -7.7828 C.3       3 GLC5        0.0000 
     58 CA        -23.5328   -4.1815   -7.1852 C.3       3 GLC5        0.0000 
     59 CA        -22.6770   -6.0430   -7.5520 C.3       6 GLP5        0.0000 
     60 CA        -25.1036   -0.5295   -6.6969 C.3       3 GLC5        0.0000 
     61 CA        -22.5397    0.2737   -4.7450 C.3       3 GLC5        0.0000 
     62 CA        -22.3460    1.0550   -3.0060 C.3       6 GLP5        0.0000 
     63 CA        -32.8455   -7.9430   -5.0165 C.3       3 GLC5        0.0000 
     64 CA        -34.1460   -7.4970   -3.4640 C.3       6 GLP5        0.0000 
     65 CA        -29.8985   -8.6520   -5.8150 C.3       3 GLC5        0.0000 
     66 CA        -31.8020   -9.0540   -6.4080 C.3       9 GLL5        0.0000 
     67 CA        -33.8678   -8.5765   -4.9507 C.3       3 GLC5        0.0000 
     68 CA        -33.2250   -9.0980   -6.5300 C.3       9 GLL5        0.0000 
     69 CA        -35.4578   -9.1095   -6.9642 C.3       3 GLC5        0.0000 
     70 CA        -37.3260   -8.5630   -7.4910 C.3       6 GLP5        0.0000 
     71 CA        -33.6039   -8.6625   -7.6840 C.3       3 GLC5        0.0000 
     72 CA        -33.9540  -10.2140   -6.3450 C.3       9 GLL5        0.0000 
     73 CA        -33.9740   -7.6800   -8.9610 C.3       6 GLP5        0.0000 
     74 CA        -33.0555  -12.0295   -4.2033 C.3       3 GLC5        0.0000 
     75 CA        -33.2040  -11.3410   -5.9610 C.3       9 GLL5        0.0000 
     76 CA        -33.6080  -12.7080   -2.5070 C.3       6 GLP5        0.0000 
     77 CA        -30.0012  -11.0480   -5.1960 C.3       3 GLC5        0.0000 
     78 CA        -31.8020  -11.3610   -5.8380 C.3       9 GLL5        0.0000 
     79 CA        -28.5850  -11.3210   -4.4430 C.3       6 GLP5        0.0000 
@<TRIPOS>BOND
@<TRIPOS>SUBSTRUCTURE
     1 ALC1        7 GROUP        1 X    ALC  0     ROOT ALC X 1
     2 SEC2       10 GROUP        1 X    SEC  0     **** SEC X 2
     3 GLC5        1 GROUP        1 X    GLC  0     **** GLC X 6
     4 ALP1        9 GROUP        1 Y    ALP  0     ROOT ALP Y 8
     5 SEP2       12 GROUP        1 Y    SEP  0     **** SEP Y 9
     6 GLP5        3 GROUP        1 Y    GLP  0     **** GLP Y 13
     7 ALL1        8 GROUP        1 Z    ALL  0     ROOT ALL Z 15
     8 SEL2       11 GROUP        1 Z    SEL  0     **** SEL Z 16
     9 GLL5        2 GROUP        1 Z    GLL  0     **** GLL Z 20
@<TRIPOS>SET

