#    Name: 3vhi_VHI_2_ligand
#    Modification time : Tue Mar 25 00:51:30 2014

@<TRIPOS>MOLECULE
3vhi_VHI_2_ligand
   47    49     1     0     0
SMALL
NO_CHARGES


@<TRIPOS>ATOM
      1 N1        -28.4560   -5.5830   -6.8180 N.am      1 VHI1124     0.0000 
      2 S1        -26.9990   -2.8770   -8.2660 S.3       1 VHI1124     0.0000 
      3 C2        -25.6330   -3.7310   -7.3300 C.3       1 VHI1124     0.0000 
      4 N2        -27.0700   -4.4340   -5.4740 N.am      1 VHI1124     0.0000 
      5 C3        -28.2890   -4.8940   -5.5960 C.2       1 VHI1124     0.0000 
      6 O3        -29.0690   -4.6890   -4.7220 O.2       1 VHI1124     0.0000 
      7 C4        -26.2670   -4.8440   -6.6710 C.3       1 VHI1124     0.0000 
      8 C5        -27.2670   -5.4200   -7.6730 C.3       1 VHI1124     0.0000 
      9 C6        -27.5700   -4.4690   -8.7630 C.3       1 VHI1124     0.0000 
     10 C7        -24.9090   -2.6970   -6.4100 C.3       1 VHI1124     0.0000 
     11 C8        -23.8680   -1.9430   -7.2270 C.3       1 VHI1124     0.0000 
     12 C9        -23.2160   -1.0160   -6.1390 C.3       1 VHI1124     0.0000 
     13 C10       -22.2510    0.0010   -6.8290 C.3       1 VHI1124     0.0000 
     14 C11       -21.0270   -0.6730   -7.3620 C.2       1 VHI1124     0.0000 
     15 O11       -20.3050   -0.1080   -8.2550 O.co2     1 VHI1124     0.0000 
     16 O12       -20.7140   -1.8030   -6.8890 O.co2     1 VHI1124     0.0000 
     17 C17       -29.2180   -6.6220   -7.1290 C.2       1 VHI1124     0.0000 
     18 O18       -30.0530   -7.2320   -6.1520 O.3       1 VHI1124     0.0000 
     19 O19       -29.1390   -7.3210   -8.2080 O.2       1 VHI1124     0.0000 
     20 C20       -31.2880   -7.7240   -6.7300 C.3       1 VHI1124     0.0000 
     21 C21       -31.8020   -9.0540   -6.4080 C.ar      1 VHI1124     0.0000 
     22 C22       -33.2250   -9.0980   -6.5300 C.ar      1 VHI1124     0.0000 
     23 C23       -33.9540  -10.2140   -6.3450 C.ar      1 VHI1124     0.0000 
     24 C24       -33.2040  -11.3410   -5.9610 C.ar      1 VHI1124     0.0000 
     25 C25       -31.8020  -11.3610   -5.8380 C.ar      1 VHI1124     0.0000 
     26 C26       -31.0330  -10.1890   -6.0600 C.ar      1 VHI1124     0.0000 
     27 H         -25.0079   -4.0182   -8.1538 H         1 VHI1124     0.0000 
     28 H         -26.6581   -3.9175   -4.7859 H         1 VHI1124     0.0000 
     29 H         -25.5850   -5.6103   -6.4170 H         1 VHI1124     0.0000 
     30 H         -26.9282   -6.3450   -8.0065 H         1 VHI1124     0.0000 
     31 H         -27.0299   -4.6463   -9.6611 H         1 VHI1124     0.0000 
     32 H         -28.6077   -4.3091   -8.9283 H         1 VHI1124     0.0000 
     33 H         -24.4311   -3.2314   -5.6040 H         1 VHI1124     0.0000 
     34 H         -25.6444   -2.0096   -6.0224 H         1 VHI1124     0.0000 
     35 H         -24.3301   -1.3400   -7.9497 H         1 VHI1124     0.0000 
     36 H         -23.1365   -2.5998   -7.5916 H         1 VHI1124     0.0000 
     37 H         -22.6564   -1.6252   -5.4528 H         1 VHI1124     0.0000 
     38 H         -23.9939   -0.4764   -5.6301 H         1 VHI1124     0.0000 
     39 H         -21.9795    0.7586   -6.0901 H         1 VHI1124     0.0000 
     40 H         -22.8014    0.4891   -7.6367 H         1 VHI1124     0.0000 
     41 H         -31.2134   -7.6393   -7.8761 H         1 VHI1124     0.0000 
     42 H         -32.1215   -6.9588   -6.5151 H         1 VHI1124     0.0000 
     43 H         -33.6983   -8.1885   -6.7798 H         1 VHI1124     0.0000 
     44 H         -34.9406  -10.2697   -6.4618 H         1 VHI1124     0.0000 
     45 H         -33.7282  -12.2319   -5.7509 H         1 VHI1124     0.0000 
     46 H         -31.3236  -12.2341   -5.5840 H         1 VHI1124     0.0000 
     47 H         -30.0593  -10.1703   -5.9790 H         1 VHI1124     0.0000 
@<TRIPOS>BOND
     1    5    1 am   
     2    8    1 1    
     3   17    1 am   
     4    3    2 1    
     5    9    2 1    
     6    7    3 1    
     7   10    3 1    
     8   27    3 1    
     9    5    4 am   
    10    7    4 1    
    11   28    4 1    
    12    6    5 2    
    13    8    7 1    
    14   29    7 1    
    15    9    8 1    
    16   30    8 1    
    17   31    9 1    
    18   32    9 1    
    19   11   10 1    
    20   33   10 1    
    21   34   10 1    
    22   12   11 1    
    23   35   11 1    
    24   36   11 1    
    25   13   12 1    
    26   37   12 1    
    27   38   12 1    
    28   14   13 1    
    29   39   13 1    
    30   40   13 1    
    31   15   14 ar   
    32   16   14 ar   
    33   18   17 1    
    34   19   17 2    
    35   20   18 1    
    36   21   20 1    
    37   41   20 1    
    38   42   20 1    
    39   22   21 ar   
    40   26   21 ar   
    41   23   22 ar   
    42   43   22 1    
    43   24   23 ar   
    44   44   23 1    
    45   25   24 ar   
    46   45   24 1    
    47   26   25 ar   
    48   46   25 1    
    49   47   26 1    
@<TRIPOS>SUBSTRUCTURE
     1 VHI1124     1 GROUP   
@<TRIPOS>SET

