#    Name: 3k3e_PDB_1_INTS_M
#    Modification time : Mon Mar 24 18:08:49 2014

@<TRIPOS>MOLECULE
3k3e_PDB_1_INTS_M
   46     0     6     0     0
SMALL
NO_CHARGES


@<TRIPOS>ATOM
      1 CA         72.3160   56.5000   41.6870 C.3       2 GLC5        0.0000 
      2 CA         73.9320   56.3570   41.8900 C.3       6 GLL5        0.0000 
      3 CA         70.7000   56.6430   41.4840 C.3       4 GLP5        0.0000 
      4 CA         78.7095   52.6020   41.0265 C.3       2 GLC5        0.0000 
      5 CA         79.0010   50.6320   40.6780 C.3       6 GLL5        0.0000 
      6 CA         78.4180   54.5720   41.3750 C.3       4 GLP5        0.0000 
      7 CA         76.9035   56.6895   39.5185 C.3       2 GLC5        0.0000 
      8 CA         76.1010   56.5990   41.4460 C.3       6 GLL5        0.0000 
      9 CA         77.7060   56.7800   37.5910 C.3       4 GLP5        0.0000 
     10 N          74.5075   53.1590   44.8070 N.am      1 SEC2        0.0000 
     11 N          75.0460   52.4060   43.3820 N.am      5 SEL2        0.0000 
     12 N          73.9690   53.9120   46.2320 N.am      3 SEP2        0.0000 
     13 N          74.8520   52.7415   45.7995 N.am      1 SEC2        0.0000 
     14 N          75.7350   51.5710   45.3670 N.am      5 SEL2        0.0000 
     15 CA         73.6170   51.4605   41.4095 C.3       2 GLC5        0.0000 
     16 CA         74.3060   53.3950   41.2230 C.3       6 GLL5        0.0000 
     17 CA         72.9280   49.5260   41.5960 C.3       4 GLP5        0.0000 
     18 CA         73.3670   55.5210   37.7240 C.3       2 GLC5        0.0000 
     19 CA         74.3100   55.1790   39.4670 C.3       6 GLL5        0.0000 
     20 CA         72.4240   55.8630   35.9810 C.3       4 GLP5        0.0000 
     21 CA         72.5050   55.9110   40.4755 C.3       2 GLC5        0.0000 
     22 CA         76.1930   47.4320   39.4510 C.3       2 GLC5        0.0000 
     23 CA         76.8210   49.2570   39.8590 C.3       6 GLL5        0.0000 
     24 CA         75.5650   45.6070   39.0430 C.3       4 GLP5        0.0000 
     25 CA         77.7070   47.8430   41.2170 C.3       2 GLC5        0.0000 
     26 CA         78.5930   46.4290   42.5750 C.3       4 GLP5        0.0000 
     27 CA         75.4680   49.0315   40.6585 C.3       2 GLC5        0.0000 
     28 CA         74.1150   48.8060   41.4580 C.3       4 GLP5        0.0000 
     29 CA         78.3295   47.9930   38.3355 C.3       2 GLC5        0.0000 
     30 CA         78.3700   49.9710   39.6290 C.3       6 GLL5        0.0000 
     31 CA         77.9800   46.0580   37.6630 C.3       4 GLP5        0.0000 
     32 CA         80.6470   53.0370   40.1635 C.3       2 GLC5        0.0000 
     33 CA         80.8690   51.1250   39.2370 C.3       6 GLL5        0.0000 
     34 CA         80.7350   54.9060   40.4690 C.3       4 GLP5        0.0000 
     35 CA         75.2981   56.9528   43.6738 C.3       2 GLC5        0.0000 
     36 CA         75.2440   57.6580   45.5560 C.3       4 GLP5        0.0000 
     37 CA         77.0530   55.2945   41.6451 C.3       2 GLC5        0.0000 
     38 CA         75.4250   55.1560   42.9860 C.3       6 GLL5        0.0000 
     39 CA         75.7519   58.1601   41.5141 C.3       2 GLC5        0.0000 
     40 CA         76.1890   60.0030   41.3870 C.3       4 GLP5        0.0000 
     41 CA         77.7948   52.9013   42.1295 C.3       2 GLC5        0.0000 
     42 CA         77.2810   51.3190   42.2040 C.3       6 GLL5        0.0000 
     43 CA         76.5445   54.2933   41.1680 C.3       2 GLC5        0.0000 
     44 CA         75.0360   54.6340   40.6990 C.3       6 GLL5        0.0000 
     45 CA         76.1555   55.1543   38.9015 C.3       2 GLC5        0.0000 
     46 CA         77.6380   55.4020   37.7200 C.3       4 GLP5        0.0000 
@<TRIPOS>BOND
@<TRIPOS>SUBSTRUCTURE
     1 SEC2       10 GROUP        1 X    SEC  0     ROOT SEC X 2
     2 GLC5        1 GROUP        1 X    GLC  0     **** GLC X 6
     3 SEP2       12 GROUP        1 Y    SEP  0     ROOT SEP Y 9
     4 GLP5        3 GROUP        1 Y    GLP  0     **** GLP Y 13
     5 SEL2       11 GROUP        1 Z    SEL  0     ROOT SEL Z 16
     6 GLL5        2 GROUP        1 Z    GLL  0     **** GLL Z 20
@<TRIPOS>SET

