#    Name: 3k3e_PDB_1_ligand
#    Modification time : Mon Mar 24 18:08:49 2014

@<TRIPOS>MOLECULE
3k3e_PDB_1_ligand
   39    41     1     0     0
SMALL
NO_CHARGES


@<TRIPOS>ATOM
      1 C2         78.3700   49.9710   39.6290 C.ar      1 PDB600      0.0000 
      2 C3         78.9880   49.8850   38.3870 C.ar      1 PDB600      0.0000 
      3 C4         80.2390   50.4610   38.1910 C.ar      1 PDB600      0.0000 
      4 C5         80.8690   51.1250   39.2370 C.ar      1 PDB600      0.0000 
      5 F5         75.4250   55.1560   42.9860 F         1 PDB600      0.0000 
      6 C6         80.2490   51.2110   40.4790 C.ar      1 PDB600      0.0000 
      7 F6         73.9320   56.3570   41.8900 F         1 PDB600      0.0000 
      8 C7         79.0010   50.6320   40.6780 C.ar      1 PDB600      0.0000 
      9 F7         76.1010   56.5990   41.4460 F         1 PDB600      0.0000 
     10 N8         78.4320   50.6800   41.9010 N.pl3     1 PDB600      0.0000 
     11 N9         78.9090   50.1450   42.9300 N.2       1 PDB600      0.0000 
     12 C10        78.1320   50.3760   44.0100 C.2       1 PDB600      0.0000 
     13 C11        77.2810   51.3190   42.2040 C.2       1 PDB600      0.0000 
     14 C12        77.0620   51.1420   43.5640 C.2       1 PDB600      0.0000 
     15 N13        76.3850   52.0320   41.4690 N.pl3     1 PDB600      0.0000 
     16 C14        75.2780   52.5690   42.0510 C.2       1 PDB600      0.0000 
     17 N15        75.0460   52.4060   43.3820 N.2       1 PDB600      0.0000 
     18 C16        75.9360   51.6940   44.1580 C.2       1 PDB600      0.0000 
     19 O17        75.7350   51.5710   45.3670 O.2       1 PDB600      0.0000 
     20 C18        74.3060   53.3950   41.2230 C.3       1 PDB600      0.0000 
     21 C19        75.0360   54.6340   40.6990 C.3       1 PDB600      0.0000 
     22 C20        74.3100   55.1790   39.4670 C.3       1 PDB600      0.0000 
     23 C21        75.1250   55.7140   41.7830 C.3       1 PDB600      0.0000 
     24 CL1        76.8210   49.2570   39.8590 C.3       1 PDB600      0.0000 
     25 H          78.5209   49.3956   37.6125 H         1 PDB600      0.0000 
     26 H          80.6968   50.3953   37.2729 H         1 PDB600      0.0000 
     27 H          81.7929   51.5525   39.0931 H         1 PDB600      0.0000 
     28 H          80.7156   51.7046   41.2525 H         1 PDB600      0.0000 
     29 H          78.2678   50.0861   44.8984 H         1 PDB600      0.0000 
     30 H          76.5482   52.1688   40.4476 H         1 PDB600      0.0000 
     31 H          73.4748   53.7049   41.8398 H         1 PDB600      0.0000 
     32 H          73.9516   52.8096   40.3869 H         1 PDB600      0.0000 
     33 H          76.0359   54.3495   40.4097 H         1 PDB600      0.0000 
     34 H          74.7638   55.9896   39.0969 H         1 PDB600      0.0000 
     35 H          74.2698   54.5037   38.7306 H         1 PDB600      0.0000 
     36 H          73.3678   55.4405   39.6766 H         1 PDB600      0.0000 
     37 H          76.8378   48.2713   39.6912 H         1 PDB600      0.0000 
     38 H          76.4856   49.3898   40.7917 H         1 PDB600      0.0000 
     39 H          76.1368   49.6476   39.2431 H         1 PDB600      0.0000 
@<TRIPOS>BOND
     1    2    1 ar   
     2    8    1 ar   
     3   24    1 1    
     4    3    2 ar   
     5   25    2 1    
     6    4    3 ar   
     7   26    3 1    
     8    6    4 ar   
     9   27    4 1    
    10   23    5 1    
    11    8    6 ar   
    12   28    6 1    
    13   23    7 1    
    14   10    8 1    
    15   23    9 1    
    16   11   10 1    
    17   13   10 1    
    18   12   11 2    
    19   14   12 1    
    20   29   12 1    
    21   14   13 2    
    22   15   13 1    
    23   18   14 1    
    24   16   15 1    
    25   30   15 1    
    26   17   16 2    
    27   20   16 1    
    28   18   17 1    
    29   19   18 2    
    30   21   20 1    
    31   31   20 1    
    32   32   20 1    
    33   22   21 1    
    34   23   21 1    
    35   33   21 1    
    36   34   22 1    
    37   35   22 1    
    38   36   22 1    
    39   37   24 1    
    40   38   24 1    
    41   39   24 1    
@<TRIPOS>SUBSTRUCTURE
     1 PDB600      1 GROUP   
@<TRIPOS>SET

