#    Name: 4iv0_SAM_2_INTS_M
#    Modification time : Tue Mar 25 04:38:42 2014

@<TRIPOS>MOLECULE
4iv0_SAM_2_INTS_M
   80     0     9     0     0
SMALL
NO_CHARGES


@<TRIPOS>ATOM
      1 O         -13.5945  -17.9385  -51.7810 O.2       1 ALC1        0.0000 
      2 O         -14.3010  -18.9250  -52.3650 O.2       7 ALL1        0.0000 
      3 O         -12.8880  -16.9520  -51.1970 O.2       4 ALP1        0.0000 
      4 O         -14.5835  -20.1525  -51.4745 O.2       1 ALC1        0.0000 
      5 O         -14.8660  -21.3800  -50.5840 O.2       4 ALP1        0.0000 
      6 N         -12.7015  -20.6295  -56.8050 N.am      2 SEC2        0.0000 
      7 N         -13.3190  -19.9410  -55.6770 N.am      8 SEL2        0.0000 
      8 N         -12.0840  -21.3180  -57.9330 N.am      5 SEP2        0.0000 
      9 N         -15.1035  -21.8300  -54.4265 N.am      2 SEC2        0.0000 
     10 N         -14.9010  -20.5790  -54.3770 N.am      8 SEL2        0.0000 
     11 N         -15.3060  -23.0810  -54.4760 N.am      5 SEP2        0.0000 
     12 CA        -13.0210  -22.3200  -53.3955 C.3       3 GLC5        0.0000 
     13 CA        -11.9540  -20.8760  -52.5440 C.3       9 GLL5        0.0000 
     14 CA        -14.0880  -23.7640  -54.2470 C.3       6 GLP5        0.0000 
     15 CA         -9.4605  -20.7260  -53.6995 C.3       3 GLC5        0.0000 
     16 CA        -10.2770  -21.3790  -52.0980 C.3       9 GLL5        0.0000 
     17 CA         -8.6440  -20.0730  -55.3010 C.3       6 GLP5        0.0000 
     18 CA        -12.2665  -23.4705  -53.1350 C.3       3 GLC5        0.0000 
     19 CA        -10.4450  -23.1770  -52.0230 C.3       9 GLL5        0.0000 
     20 CA         -8.2740  -21.5545  -50.9115 C.3       3 GLC5        0.0000 
     21 CA        -10.1690  -20.9100  -50.3470 C.3       9 GLL5        0.0000 
     22 CA         -6.3790  -22.1990  -51.4760 C.3       6 GLP5        0.0000 
     23 CA        -11.3260  -21.1520  -48.8420 C.3       3 GLC5        0.0000 
     24 CA        -12.4830  -21.3940  -47.3370 C.3       6 GLP5        0.0000 
     25 CA        -11.0305  -17.8140  -49.6035 C.3       3 GLC5        0.0000 
     26 CA         -9.7600  -19.4490  -50.1960 C.3       9 GLL5        0.0000 
     27 CA        -12.3010  -16.1790  -49.0110 C.3       6 GLP5        0.0000 
     28 CA        -11.2770  -19.6920  -48.9345 C.3       3 GLC5        0.0000 
     29 CA        -12.7940  -19.9350  -47.6730 C.3       6 GLP5        0.0000 
     30 CA         -7.3900  -20.6675  -51.1435 C.3       3 GLC5        0.0000 
     31 CA         -8.4010  -19.1360  -50.8110 C.3       9 GLL5        0.0000 
     32 CA         -7.0510  -18.6945  -52.3160 C.3       3 GLC5        0.0000 
     33 CA         -5.7010  -18.2530  -53.8210 C.3       6 GLP5        0.0000 
     34 O          -9.0350  -16.9505  -51.4405 O.2       1 ALC1        0.0000 
     35 O          -8.5730  -18.1670  -51.8160 O.2       7 ALL1        0.0000 
     36 O          -9.4970  -15.7340  -51.0650 O.2       4 ALP1        0.0000 
     37 O          -8.0265  -16.6585  -51.1260 O.2       1 ALC1        0.0000 
     38 O          -7.4800  -15.1500  -50.4360 O.2       4 ALP1        0.0000 
     39 CA         -6.4505  -20.1775  -50.1705 C.3       3 GLC5        0.0000 
     40 CA         -7.5790  -18.5920  -49.6430 C.3       9 GLL5        0.0000 
     41 CA         -5.3220  -21.7630  -50.6980 C.3       6 GLP5        0.0000 
     42 O          -7.0550  -16.3700  -50.2085 O.2       1 ALC1        0.0000 
     43 O          -6.6300  -17.5900  -49.9810 O.2       7 ALL1        0.0000 
     44 CA        -10.4905  -17.1385  -48.8650 C.3       3 GLC5        0.0000 
     45 CA         -8.6800  -18.0980  -48.7190 C.3       9 GLL5        0.0000 
     46 CA         -6.8660  -15.3695  -45.2855 C.3       3 GLC5        0.0000 
     47 CA         -8.2040  -16.2430  -44.2320 C.3       9 GLL5        0.0000 
     48 CA         -5.5280  -14.4960  -46.3390 C.3       6 GLP5        0.0000 
     49 CA         -7.5160  -14.2660  -43.6600 C.3       3 GLC5        0.0000 
     50 CA         -6.8280  -12.2890  -43.0880 C.3       6 GLP5        0.0000 
     51 CA         -9.8065  -15.5035  -43.1595 C.3       3 GLC5        0.0000 
     52 CA        -11.4090  -14.7640  -42.0870 C.3       6 GLP5        0.0000 
     53 O          -7.4495  -15.3730  -42.0855 O.2       1 ALC1        0.0000 
     54 O          -7.6990  -16.4500  -43.0150 O.2       7 ALL1        0.0000 
     55 O          -7.2000  -14.2960  -41.1560 O.2       4 ALP1        0.0000 
     56 N          -9.0430  -13.8920  -43.6015 N.am      2 SEC2        0.0000 
     57 N          -8.8840  -15.0820  -44.4930 N.am      8 SEL2        0.0000 
     58 N          -9.2020  -12.7020  -42.7100 N.am      5 SEP2        0.0000 
     59 CA         -9.2730  -13.8945  -47.4590 C.3       3 GLC5        0.0000 
     60 CA         -9.4010  -14.8650  -45.7550 C.3       9 GLL5        0.0000 
     61 CA         -9.1450  -12.9240  -49.1630 C.3       6 GLP5        0.0000 
     62 CA         -7.4645  -14.6805  -46.0470 C.3       3 GLC5        0.0000 
     63 CA        -10.5005  -14.1135  -44.2140 C.3       3 GLC5        0.0000 
     64 CA        -11.6000  -13.3620  -42.6730 C.3       6 GLP5        0.0000 
     65 N          -8.2125  -14.6860  -47.3615 N.am      2 SEC2        0.0000 
     66 N          -9.2650  -15.7810  -46.7680 N.am      8 SEL2        0.0000 
     67 N          -7.1600  -13.5910  -47.9550 N.am      5 SEP2        0.0000 
     68 CA        -11.5665  -17.5735  -53.7800 C.3       3 GLC5        0.0000 
     69 CA        -12.0010  -19.4360  -53.0520 C.3       9 GLL5        0.0000 
     70 CA        -10.4430  -15.9460  -54.2790 C.3       6 GLP5        0.0000 
     71 CA        -11.1360  -20.3368  -54.3937 C.3       3 GLC5        0.0000 
     72 CA         -9.9500  -20.6350  -55.8750 C.3       6 GLP5        0.0000 
     73 CA         -8.3700  -22.2385  -51.7682 C.3       3 GLC5        0.0000 
     74 CA         -9.0958  -21.1638  -48.6963 C.3       3 GLC5        0.0000 
     75 CA         -8.2270  -22.1480  -47.1210 C.3       6 GLP5        0.0000 
     76 CA         -6.6798  -17.0880  -48.0985 C.3       3 GLC5        0.0000 
     77 CA         -5.2300  -15.8310  -47.0160 C.3       6 GLP5        0.0000 
     78 CA         -8.1783  -20.2465  -48.1510 C.3       3 GLC5        0.0000 
     79 CA         -6.7748  -16.4360  -46.4510 C.3       3 GLC5        0.0000 
     80 CA         -8.5890  -16.9130  -46.5140 C.3       9 GLL5        0.0000 
@<TRIPOS>BOND
@<TRIPOS>SUBSTRUCTURE
     1 ALC1        1 GROUP        1 X    ALC  0     ROOT ALC X 1
     2 SEC2        6 GROUP        1 X    SEC  0     **** SEC X 2
     3 GLC5       12 GROUP        1 X    GLC  0     **** GLC X 6
     4 ALP1        3 GROUP        1 Y    ALP  0     ROOT ALP Y 8
     5 SEP2        8 GROUP        1 Y    SEP  0     **** SEP Y 9
     6 GLP5       14 GROUP        1 Y    GLP  0     **** GLP Y 13
     7 ALL1        2 GROUP        1 Z    ALL  0     ROOT ALL Z 15
     8 SEL2        7 GROUP        1 Z    SEL  0     **** SEL Z 16
     9 GLL5       13 GROUP        1 Z    GLL  0     **** GLL Z 20
@<TRIPOS>SET

