#    Name: 4iv0_SAM_2_ligand
#    Modification time : Tue Mar 25 04:38:43 2014

@<TRIPOS>MOLECULE
4iv0_SAM_2_ligand
   50    52     1     0     0
SMALL
NO_CHARGES


@<TRIPOS>ATOM
      1 N         -14.3010  -18.9250  -52.3650 N.4       1 SAM302      0.0000 
      2 CA        -13.3790  -18.9660  -53.5100 C.3       1 SAM302      0.0000 
      3 C         -13.9000  -19.8870  -54.5920 C.2       1 SAM302      0.0000 
      4 O         -13.3190  -19.9410  -55.6770 O.co2     1 SAM302      0.0000 
      5 OXT       -14.9010  -20.5790  -54.3770 O.co2     1 SAM302      0.0000 
      6 CB        -12.0010  -19.4360  -53.0520 C.3       1 SAM302      0.0000 
      7 CG        -11.9540  -20.8760  -52.5440 C.3       1 SAM302      0.0000 
      8 SD        -10.2770  -21.3790  -52.0980 S.3       1 SAM302      0.0000 
      9 CE        -10.4450  -23.1770  -52.0230 C.3       1 SAM302      0.0000 
     10 C5'       -10.1690  -20.9100  -50.3470 C.3       1 SAM302      0.0000 
     11 C4'        -9.7600  -19.4490  -50.1960 C.3       1 SAM302      0.0000 
     12 O4'        -9.6450  -19.1160  -48.8190 O.3       1 SAM302      0.0000 
     13 C3'        -8.4010  -19.1360  -50.8110 C.3       1 SAM302      0.0000 
     14 O3'        -8.5730  -18.1670  -51.8160 O.3       1 SAM302      0.0000 
     15 C2'        -7.5790  -18.5920  -49.6430 C.3       1 SAM302      0.0000 
     16 O2'        -6.6300  -17.5900  -49.9810 O.3       1 SAM302      0.0000 
     17 C1'        -8.6800  -18.0980  -48.7190 C.3       1 SAM302      0.0000 
     18 N9         -8.2830  -17.9750  -47.3190 N.pl3     1 SAM302      0.0000 
     19 C8         -7.5750  -18.8790  -46.5760 C.2       1 SAM302      0.0000 
     20 N7         -7.4250  -18.3740  -45.3250 N.2       1 SAM302      0.0000 
     21 C5         -8.0500  -17.1690  -45.2580 C.ar      1 SAM302      0.0000 
     22 C6         -8.2040  -16.2430  -44.2320 C.ar      1 SAM302      0.0000 
     23 N6         -7.6990  -16.4500  -43.0150 N.pl3     1 SAM302      0.0000 
     24 N1         -8.8840  -15.0820  -44.4930 N.ar      1 SAM302      0.0000 
     25 C2         -9.4010  -14.8650  -45.7550 C.ar      1 SAM302      0.0000 
     26 N3         -9.2650  -15.7810  -46.7680 N.ar      1 SAM302      0.0000 
     27 C4         -8.5890  -16.9130  -46.5140 C.ar      1 SAM302      0.0000 
     28 H         -13.2676  -17.9717  -53.9294 H         1 SAM302      0.0000 
     29 H         -11.6419  -18.7635  -52.2510 H         1 SAM302      0.0000 
     30 H         -11.2899  -19.3311  -53.8923 H         1 SAM302      0.0000 
     31 H         -12.2236  -21.5985  -53.2854 H         1 SAM302      0.0000 
     32 H         -12.4912  -21.0236  -51.6307 H         1 SAM302      0.0000 
     33 H          -9.4475  -21.5989  -49.9715 H         1 SAM302      0.0000 
     34 H         -11.1531  -21.1190  -49.9948 H         1 SAM302      0.0000 
     35 H         -10.4963  -18.8230  -50.6744 H         1 SAM302      0.0000 
     36 H          -7.9703  -20.0390  -51.1412 H         1 SAM302      0.0000 
     37 H          -7.1377  -19.4571  -49.1511 H         1 SAM302      0.0000 
     38 H          -9.0610  -17.1827  -49.1083 H         1 SAM302      0.0000 
     39 H          -7.2442  -19.7226  -46.8902 H         1 SAM302      0.0000 
     40 H          -7.2409  -17.3273  -42.8720 H         1 SAM302      0.0000 
     41 H          -7.8239  -15.7093  -42.3550 H         1 SAM302      0.0000 
     42 H          -9.9136  -13.9701  -45.9418 H         1 SAM302      0.0000 
     43 H         -13.9684  -18.3195  -51.6420 H         1 SAM302      0.0000 
     44 H         -15.2073  -18.5954  -52.6295 H         1 SAM302      0.0000 
     45 H         -14.4257  -19.8290  -51.9561 H         1 SAM302      0.0000 
     46 H          -9.6428  -23.6081  -51.6099 H         1 SAM302      0.0000 
     47 H         -11.2383  -23.4536  -51.4806 H         1 SAM302      0.0000 
     48 H         -10.5574  -23.5778  -52.9323 H         1 SAM302      0.0000 
     49 H          -8.8725  -17.3440  -51.3333 H         1 SAM302      0.0000 
     50 H          -7.1635  -16.7494  -50.0744 H         1 SAM302      0.0000 
@<TRIPOS>BOND
     1    2    1 1    
     2   43    1 1    
     3   44    1 1    
     4   45    1 1    
     5    3    2 1    
     6    6    2 1    
     7   28    2 1    
     8    4    3 ar   
     9    5    3 ar   
    10    7    6 1    
    11   29    6 1    
    12   30    6 1    
    13    8    7 1    
    14   31    7 1    
    15   32    7 1    
    16    9    8 1    
    17   10    8 1    
    18   46    9 1    
    19   47    9 1    
    20   48    9 1    
    21   11   10 1    
    22   33   10 1    
    23   34   10 1    
    24   12   11 1    
    25   13   11 1    
    26   35   11 1    
    27   17   12 1    
    28   14   13 1    
    29   15   13 1    
    30   36   13 1    
    31   49   14 1    
    32   16   15 1    
    33   17   15 1    
    34   37   15 1    
    35   50   16 1    
    36   18   17 1    
    37   38   17 1    
    38   19   18 1    
    39   27   18 1    
    40   20   19 2    
    41   39   19 1    
    42   21   20 1    
    43   22   21 ar   
    44   27   21 ar   
    45   23   22 1    
    46   24   22 ar   
    47   40   23 1    
    48   41   23 1    
    49   25   24 ar   
    50   26   25 ar   
    51   42   25 1    
    52   27   26 ar   
@<TRIPOS>SUBSTRUCTURE
     1 SAM302      1 GROUP   
@<TRIPOS>SET

