#    Name: 4as7_6LX_1_INTS_M
#    Modification time : Tue Mar 25 06:04:27 2014

@<TRIPOS>MOLECULE
4as7_6LX_1_INTS_M
   89     0     9     0     0
SMALL
NO_CHARGES


@<TRIPOS>ATOM
      1 CA         47.0495   14.6020   -6.9245 C.3       3 GLC5        0.0000 
      2 CA         47.2620   12.6720   -7.3180 C.3       9 GLL5        0.0000 
      3 CA         46.8370   16.5320   -6.5310 C.3       6 GLP5        0.0000 
      4 CA         46.4570   13.3605   -8.7795 C.3       3 GLC5        0.0000 
      5 CA         45.6520   14.0490  -10.2410 C.3       6 GLP5        0.0000 
      6 OD1        47.5110    4.0480   -2.5085 O.co2     2 ASC3        0.0000 
      7 OD1        48.2400    3.8770   -3.6390 O.co2     8 ASL3        0.0000 
      8 OD1        46.7820    4.2190   -1.3780 O.co2     5 ASP3        0.0000 
      9 O          47.5110    4.0480   -2.5085 O.2       1 ALC1        0.0000 
     10 O          48.2400    3.8770   -3.6390 O.2       7 ALL1        0.0000 
     11 O          46.7820    4.2190   -1.3780 O.2       4 ALP1        0.0000 
     12 O          47.3760    3.6925   -4.7375 O.2       1 ALC1        0.0000 
     13 O          46.5120    3.5080   -5.8360 O.2       4 ALP1        0.0000 
     14 CA         50.0275   12.2815   -2.2615 C.3       3 GLC5        0.0000 
     15 CA         49.7550   10.2640   -1.5930 C.3       9 GLL5        0.0000 
     16 CA         50.3000   14.2990   -2.9300 C.3       6 GLP5        0.0000 
     17 CA         48.9415   12.8740    0.4910 C.3       3 GLC5        0.0000 
     18 CA         49.1580   10.9270   -0.3530 C.3       9 GLL5        0.0000 
     19 CA         48.7250   14.8210    1.3350 C.3       6 GLP5        0.0000 
     20 CA         48.3775   10.5755    1.2345 C.3       3 GLC5        0.0000 
     21 CA         47.5970   10.2240    2.8220 C.3       6 GLP5        0.0000 
     22 CA         50.6760   10.5340    1.0340 C.3       3 GLC5        0.0000 
     23 CA         52.1940   10.1410    2.4210 C.3       6 GLP5        0.0000 
     24 CA         51.4385   11.9760   -2.0615 C.3       3 GLC5        0.0000 
     25 CA         51.2360    9.9230   -1.4450 C.3       9 GLL5        0.0000 
     26 CA         51.6410   14.0290   -2.6780 C.3       6 GLP5        0.0000 
     27 CA         52.0680   10.6195    0.1620 C.3       3 GLC5        0.0000 
     28 CA         52.9000   11.3160    1.7690 C.3       6 GLP5        0.0000 
     29 CA         50.2250    6.0175    1.5290 C.3       3 GLC5        0.0000 
     30 CA         48.3060    6.3340    1.5210 C.3       9 GLL5        0.0000 
     31 CA         52.1440    5.7010    1.5370 C.3       6 GLP5        0.0000 
     32 CA         48.3190    3.2995    5.2840 C.3       3 GLC5        0.0000 
     33 CA         48.3170    4.7690    3.7400 C.3       9 GLL5        0.0000 
     34 CA         48.3210    1.8300    6.8280 C.3       6 GLP5        0.0000 
     35 CA         49.5535    5.7530    4.9145 C.3       3 GLC5        0.0000 
     36 CA         50.7900    6.7370    6.0890 C.3       6 GLP5        0.0000 
     37 CA         50.2195    4.9460    3.3370 C.3       3 GLC5        0.0000 
     38 CA         52.1220    5.1230    2.9340 C.3       6 GLP5        0.0000 
     39 CA         48.8030    2.8345    3.4400 C.3       3 GLC5        0.0000 
     40 CA         49.2890    0.9000    3.1400 C.3       6 GLP5        0.0000 
     41 CA         43.3925    6.1895    1.1050 C.3       3 GLC5        0.0000 
     42 CA         45.5210    6.3440    1.3110 C.3       9 GLL5        0.0000 
     43 CA         41.2640    6.0350    0.8990 C.3       6 GLP5        0.0000 
     44 CA         45.5520    6.8155   -2.3165 C.3       3 GLC5        0.0000 
     45 CA         46.4930    8.4670   -1.5180 C.3       9 GLL5        0.0000 
     46 CA         44.6110    5.1640   -3.1150 C.3       6 GLP5        0.0000 
     47 CA         44.6475    7.5995   -3.1625 C.3       3 GLC5        0.0000 
     48 CA         45.9140    9.2930   -2.6680 C.3       9 GLL5        0.0000 
     49 CA         43.3810    5.9060   -3.6570 C.3       6 GLP5        0.0000 
     50 CA         44.2115    9.9830   -3.3250 C.3       3 GLC5        0.0000 
     51 CA         42.5090   10.6730   -3.9820 C.3       6 GLP5        0.0000 
     52 CA         46.8810   14.6395   -3.9420 C.3       3 GLC5        0.0000 
     53 CA         46.4270   13.1110   -2.7430 C.3       9 GLL5        0.0000 
     54 CA         47.3350   16.1680   -5.1410 C.3       6 GLP5        0.0000 
     55 CA         47.2780   14.1650   -0.1085 C.3       3 GLC5        0.0000 
     56 CA         45.8310   13.5090   -1.5520 C.3       9 GLL5        0.0000 
     57 CA         43.5260   10.2480   -0.1780 C.3       3 GLC5        0.0000 
     58 CA         45.2730   11.1900   -1.0950 C.3       9 GLL5        0.0000 
     59 CA         41.7790    9.3060    0.7390 C.3       6 GLP5        0.0000 
     60 CA         50.1215   11.0075   -7.3543 C.3       3 GLC5        0.0000 
     61 CA         49.6900   10.6490   -5.1740 C.3       9 GLL5        0.0000 
     62 CA         50.8350   10.8460   -9.1790 C.3       6 GLP5        0.0000 
     63 CA         47.5300    8.5533   -7.5143 C.3       3 GLC5        0.0000 
     64 CA         47.2720   10.2820   -6.4990 C.3       9 GLL5        0.0000 
     65 CA         47.5080    7.3520   -8.8740 C.3       6 GLP5        0.0000 
     66 CA         48.4659   10.8154   -8.2735 C.3       3 GLC5        0.0000 
     67 CA         49.5010   10.4440   -9.8310 C.3       6 GLP5        0.0000 
     68 CA         47.7950    8.4588    1.9173 C.3       3 GLC5        0.0000 
     69 CA         47.6800    7.0530    0.5040 C.3       9 GLL5        0.0000 
     70 CA         46.5222    7.2728    3.4147 C.3       3 GLC5        0.0000 
     71 CA         47.5390    5.6330    2.4450 C.3       9 GLL5        0.0000 
     72 CA         46.2080    8.9110    4.4370 C.3       6 GLP5        0.0000 
     73 CA         46.4675    5.1508    4.3206 C.3       3 GLC5        0.0000 
     74 CA         46.1340    5.6360    2.3400 C.3       9 GLL5        0.0000 
     75 CA         45.9040    4.8830    5.9250 C.3       6 GLP5        0.0000 
     76 CA         45.5050    8.4148    1.6600 C.3       3 GLC5        0.0000 
     77 CA         45.1040   10.1370    2.4630 C.3       6 GLP5        0.0000 
     78 CA         45.2331    5.6103   -0.2799 C.3       3 GLC5        0.0000 
     79 CA         46.2910    7.0410    0.4030 C.3       9 GLL5        0.0000 
     80 CA         44.4070    4.7050   -1.6740 C.3       6 GLP5        0.0000 
     81 CA         44.3770   11.7263   -3.0870 C.3       3 GLC5        0.0000 
     82 CA         45.8760   10.7940   -2.2720 C.3       9 GLL5        0.0000 
     83 CA         42.5910   12.1730   -3.4870 C.3       6 GLP5        0.0000 
     84 CA         44.3600   12.7415   -2.8173 C.3       3 GLC5        0.0000 
     85 CA         45.0595   14.3927    0.3325 C.3       3 GLC5        0.0000 
     86 CA         44.5780   15.7620    1.8120 C.3       6 GLP5        0.0000 
     87 CA         43.9265   12.0185   -2.2027 C.3       3 GLC5        0.0000 
     88 CA         45.2510   12.5380   -0.7420 C.3       9 GLL5        0.0000 
     89 CA         45.1830   11.0005    0.7723 C.3       3 GLC5        0.0000 
@<TRIPOS>BOND
@<TRIPOS>SUBSTRUCTURE
     1 ALC1        9 GROUP        1 X    ALC  0     ROOT ALC X 1
     2 ASC3        6 GROUP        1 X    ASC  0     **** ASC X 3
     3 GLC5        1 GROUP        1 X    GLC  0     **** GLC X 6
     4 ALP1       11 GROUP        1 Y    ALP  0     ROOT ALP Y 8
     5 ASP3        8 GROUP        1 Y    ASP  0     **** ASP Y 10
     6 GLP5        3 GROUP        1 Y    GLP  0     **** GLP Y 13
     7 ALL1       10 GROUP        1 Z    ALL  0     ROOT ALL Z 15
     8 ASL3        7 GROUP        1 Z    ASL  0     **** ASL Z 17
     9 GLL5        2 GROUP        1 Z    GLL  0     **** GLL Z 20
@<TRIPOS>SET

