#    Name: 4as7_6LX_1_ligand
#    Modification time : Tue Mar 25 06:04:27 2014

@<TRIPOS>MOLECULE
4as7_6LX_1_ligand
   71    74     1     0     0
SMALL
NO_CHARGES


@<TRIPOS>ATOM
      1 CAW        49.6900   10.6490   -5.1740 C.ar      1 6LX1375     0.0000 
      2 CAX        49.1260   11.6890   -5.8850 C.ar      1 6LX1375     0.0000 
      3 CAY        47.9170   11.5110   -6.5480 C.ar      1 6LX1375     0.0000 
      4 CAZ        47.2620   12.6720   -7.3180 C.3       1 6LX1375     0.0000 
      5 CAO        47.2720   10.2820   -6.4990 C.ar      1 6LX1375     0.0000 
      6 CAN        47.8320    9.2270   -5.8100 C.ar      1 6LX1375     0.0000 
      7 CAM        49.0120    9.4320   -5.1240 C.ar      1 6LX1375     0.0000 
      8 CAL        49.6350    8.2500   -4.4400 C.2       1 6LX1375     0.0000 
      9 OAV        50.1950    7.4500   -5.1970 O.2       1 6LX1375     0.0000 
     10 NAK        49.6000    8.1470   -3.1030 N.am      1 6LX1375     0.0000 
     11 CAU        50.2390    6.9710   -2.4410 C.3       1 6LX1375     0.0000 
     12 CBC        49.3850    5.6750   -2.4220 C.3       1 6LX1375     0.0000 
     13 CBD        49.0730    5.0890   -3.8130 C.3       1 6LX1375     0.0000 
     14 NBE        48.2400    3.8770   -3.6390 N.4       1 6LX1375     0.0000 
     15 CAJ        48.8730    9.1230   -2.2470 C.3       1 6LX1375     0.0000 
     16 CAB        49.7550   10.2640   -1.5930 C.3       1 6LX1375     0.0000 
     17 CAA        49.1580   10.9270   -0.3530 C.3       1 6LX1375     0.0000 
     18 CAC        51.2360    9.9230   -1.4450 C.3       1 6LX1375     0.0000 
     19 CAI        47.8860    8.4070   -1.3100 C.2       1 6LX1375     0.0000 
     20 OAH        48.4950    7.7090   -0.3410 O.3       1 6LX1375     0.0000 
     21 CAG        47.6800    7.0530    0.5040 C.ar      1 6LX1375     0.0000 
     22 CAF        48.3060    6.3340    1.5210 C.ar      1 6LX1375     0.0000 
     23 CAE        47.5390    5.6330    2.4450 C.ar      1 6LX1375     0.0000 
     24 CLA        48.3170    4.7690    3.7400 Cl        1 6LX1375     0.0000 
     25 CAP        46.1340    5.6360    2.3400 C.ar      1 6LX1375     0.0000 
     26 CAQ        45.5210    6.3440    1.3110 C.ar      1 6LX1375     0.0000 
     27 CAR        46.2910    7.0410    0.4030 C.ar      1 6LX1375     0.0000 
     28 CAS        45.6780    7.7530   -0.6190 C.2       1 6LX1375     0.0000 
     29 OBA        44.4390    7.7660   -0.6770 O.2       1 6LX1375     0.0000 
     30 CAT        46.4930    8.4670   -1.5180 C.2       1 6LX1375     0.0000 
     31 CBB        45.9140    9.2930   -2.6680 C.3       1 6LX1375     0.0000 
     32 CBG        45.8760   10.7940   -2.2720 C.ar      1 6LX1375     0.0000 
     33 CBF        46.4500   11.7650   -3.1020 C.ar      1 6LX1375     0.0000 
     34 CBI        46.4270   13.1110   -2.7430 C.ar      1 6LX1375     0.0000 
     35 CBJ        45.8310   13.5090   -1.5520 C.ar      1 6LX1375     0.0000 
     36 CBK        45.2510   12.5380   -0.7420 C.ar      1 6LX1375     0.0000 
     37 CBH        45.2730   11.1900   -1.0950 C.ar      1 6LX1375     0.0000 
     38 H          50.5820   10.7619   -4.6941 H         1 6LX1375     0.0000 
     39 H          49.6004   12.6046   -5.9274 H         1 6LX1375     0.0000 
     40 H          46.3671   10.1619   -6.9833 H         1 6LX1375     0.0000 
     41 H          47.3811    8.3079   -5.8069 H         1 6LX1375     0.0000 
     42 H          50.4943    7.2206   -1.3902 H         1 6LX1375     0.0000 
     43 H          51.2010    6.7322   -2.9401 H         1 6LX1375     0.0000 
     44 H          48.4368    5.8891   -1.9039 H         1 6LX1375     0.0000 
     45 H          49.9155    4.9159   -1.8256 H         1 6LX1375     0.0000 
     46 H          50.0100    4.8459   -4.2995 H         1 6LX1375     0.0000 
     47 H          48.5456    5.8394   -4.3896 H         1 6LX1375     0.0000 
     48 H          48.1766    9.7041   -2.9850 H         1 6LX1375     0.0000 
     49 H          49.7391   11.1088   -2.4046 H         1 6LX1375     0.0000 
     50 H          49.3303    6.3230    1.5863 H         1 6LX1375     0.0000 
     51 H          45.5740    5.1174    3.0212 H         1 6LX1375     0.0000 
     52 H          44.4950    6.3444    1.2319 H         1 6LX1375     0.0000 
     53 H          44.9062    8.9637   -2.8824 H         1 6LX1375     0.0000 
     54 H          46.5346    9.1802   -3.5467 H         1 6LX1375     0.0000 
     55 H          46.8935   11.4776   -3.9873 H         1 6LX1375     0.0000 
     56 H          46.8539   13.8132   -3.3639 H         1 6LX1375     0.0000 
     57 H          45.8189   14.4894   -1.2780 H         1 6LX1375     0.0000 
     58 H          44.7920   12.8223    0.1440 H         1 6LX1375     0.0000 
     59 H          44.8378   10.4938   -0.4738 H         1 6LX1375     0.0000 
     60 H          47.8534   13.0137   -8.0484 H         1 6LX1375     0.0000 
     61 H          46.4002   12.3960   -7.7436 H         1 6LX1375     0.0000 
     62 H          47.0583   13.4466   -6.7193 H         1 6LX1375     0.0000 
     63 H          47.6311    3.7297   -4.4185 H         1 6LX1375     0.0000 
     64 H          48.7985    3.0530   -3.5436 H         1 6LX1375     0.0000 
     65 H          47.6636    3.9364   -2.8240 H         1 6LX1375     0.0000 
     66 H          49.7591   11.6367    0.0144 H         1 6LX1375     0.0000 
     67 H          48.2789   11.3608   -0.5506 H         1 6LX1375     0.0000 
     68 H          49.0006   10.2670    0.3816 H         1 6LX1375     0.0000 
     69 H          51.6630    9.7310   -2.3286 H         1 6LX1375     0.0000 
     70 H          51.7498   10.6726   -1.0278 H         1 6LX1375     0.0000 
     71 H          51.3758    9.1165   -0.8705 H         1 6LX1375     0.0000 
@<TRIPOS>BOND
     1    2    1 ar   
     2    7    1 ar   
     3   38    1 1    
     4    3    2 ar   
     5   39    2 1    
     6    4    3 1    
     7    5    3 ar   
     8   60    4 1    
     9   61    4 1    
    10   62    4 1    
    11    6    5 ar   
    12   40    5 1    
    13    7    6 ar   
    14   41    6 1    
    15    8    7 1    
    16    9    8 2    
    17   10    8 am   
    18   11   10 1    
    19   15   10 1    
    20   12   11 1    
    21   42   11 1    
    22   43   11 1    
    23   13   12 1    
    24   44   12 1    
    25   45   12 1    
    26   14   13 1    
    27   46   13 1    
    28   47   13 1    
    29   63   14 1    
    30   64   14 1    
    31   65   14 1    
    32   16   15 1    
    33   19   15 1    
    34   48   15 1    
    35   17   16 1    
    36   18   16 1    
    37   49   16 1    
    38   66   17 1    
    39   67   17 1    
    40   68   17 1    
    41   69   18 1    
    42   70   18 1    
    43   71   18 1    
    44   20   19 1    
    45   30   19 2    
    46   21   20 1    
    47   22   21 ar   
    48   27   21 ar   
    49   23   22 ar   
    50   50   22 1    
    51   24   23 1    
    52   25   23 ar   
    53   26   25 ar   
    54   51   25 1    
    55   27   26 ar   
    56   52   26 1    
    57   28   27 1    
    58   29   28 2    
    59   30   28 1    
    60   31   30 1    
    61   32   31 1    
    62   53   31 1    
    63   54   31 1    
    64   33   32 ar   
    65   37   32 ar   
    66   34   33 ar   
    67   55   33 1    
    68   35   34 ar   
    69   56   34 1    
    70   36   35 ar   
    71   57   35 1    
    72   37   36 ar   
    73   58   36 1    
    74   59   37 1    
@<TRIPOS>SUBSTRUCTURE
     1 6LX1375     1 GROUP   
@<TRIPOS>SET

