#    Name: 2zxu_DST_1_INTS_M
#    Modification time : Tue Mar 25 11:18:02 2014

@<TRIPOS>MOLECULE
2zxu_DST_1_INTS_M
   54     0    12     0     0
SMALL
NO_CHARGES


@<TRIPOS>ATOM
      1 NZ          6.6975   51.4525   83.9480 N.4       2 LYC4        0.0000 
      2 NZ          6.7870   51.4420   85.8410 N.4      10 LYL4        0.0000 
      3 NZ          6.6080   51.4630   82.0550 N.4       6 LYP4        0.0000 
      4 N           7.5535   50.4770   87.0555 N.am      1 SEC2        0.0000 
      5 N           6.7870   51.4420   85.8410 N.am      9 SEL2        0.0000 
      6 N           8.3200   49.5120   88.2700 N.am      5 SEP2        0.0000 
      7 NZ          8.6880   54.1175   87.9185 N.4       2 LYC4        0.0000 
      8 NZ          8.3130   52.4100   87.5840 N.4      10 LYL4        0.0000 
      9 NZ          9.0630   55.8250   88.2530 N.4       6 LYP4        0.0000 
     10 N           9.3585   51.2875   87.1735 N.am      1 SEC2        0.0000 
     11 N           8.3130   52.4100   87.5840 N.am      9 SEL2        0.0000 
     12 N          10.4040   50.1650   86.7630 N.am      5 SEP2        0.0000 
     13 N           7.7155   51.9345   88.7780 N.am      1 SEC2        0.0000 
     14 N           7.1180   51.4590   89.9720 N.am      5 SEP2        0.0000 
     15 NZ          7.6545   54.7310   87.5825 N.4       2 LYC4        0.0000 
     16 NZ          6.2460   53.6370   86.9120 N.4      10 LYL4        0.0000 
     17 Zn          5.5120   54.3930   86.4710 Zn        3 ZIC7        0.0000 
     18 Zn          6.2460   53.6370   86.9120 Zn       11 ZIL7        0.0000 
     19 Zn          4.7780   55.1490   86.0300 Zn        7 ZIP7        0.0000 
     20 N           5.4495   53.2935   88.3445 N.am      1 SEC2        0.0000 
     21 N           6.2460   53.6370   86.9120 N.am      9 SEL2        0.0000 
     22 N           4.6530   52.9500   89.7770 N.am      5 SEP2        0.0000 
     23 N           9.3360   52.5520   84.8615 N.am      1 SEC2        0.0000 
     24 N           8.2060   53.4010   85.2990 N.am      9 SEL2        0.0000 
     25 N          10.4660   51.7030   84.4240 N.am      5 SEP2        0.0000 
     26 NZ          9.0290   55.8190   86.8520 N.4       2 LYC4        0.0000 
     27 NZ          8.9950   55.8130   85.4510 N.4      10 LYL4        0.0000 
     28 N           9.0290   55.8190   86.8520 N.am      1 SEC2        0.0000 
     29 N           8.9950   55.8130   85.4510 N.am      9 SEL2        0.0000 
     30 N           9.0630   55.8250   88.2530 N.am      5 SEP2        0.0000 
     31 Zn          5.6530   55.1995   85.4530 Zn        3 ZIC7        0.0000 
     32 Zn          6.5280   55.2500   84.8760 Zn       11 ZIL7        0.0000 
     33 CA         10.3290   54.5750   82.9495 C.3       4 GLC5        0.0000 
     34 CA          8.4560   54.8830   82.7200 C.3      12 GLL5        0.0000 
     35 CA         12.2020   54.2670   83.1790 C.3       8 GLP5        0.0000 
     36 CA          6.9950   57.0520   79.5880 C.3       4 GLC5        0.0000 
     37 CA          8.5700   55.8510   80.2610 C.3      12 GLL5        0.0000 
     38 CA          5.4200   58.2530   78.9150 C.3       8 GLP5        0.0000 
     39 CA          7.6040   54.5675   78.8985 C.3       4 GLC5        0.0000 
     40 CA          6.6380   53.2840   77.5360 C.3       8 GLP5        0.0000 
     41 CA          8.2415   54.3530   77.8655 C.3       4 GLC5        0.0000 
     42 CA          9.8450   55.4220   78.1950 C.3      12 GLL5        0.0000 
     43 CA         11.6225   56.2215   77.1380 C.3       4 GLC5        0.0000 
     44 CA         13.4000   57.0210   76.0810 C.3       8 GLP5        0.0000 
     45 CA         11.7325   54.4655   78.4310 C.3       4 GLC5        0.0000 
     46 CA         13.6200   53.5090   78.6670 C.3       8 GLP5        0.0000 
     47 CA         11.5945   55.3745   81.7150 C.3       4 GLC5        0.0000 
     48 CA         10.9870   56.4820   80.2510 C.3      12 GLL5        0.0000 
     49 CA         12.3035   54.9955   79.4590 C.3       4 GLC5        0.0000 
     50 CA         12.5500   57.0995   80.6515 C.3       4 GLC5        0.0000 
     51 CA         14.1130   57.7170   81.0520 C.3       8 GLP5        0.0000 
     52 CA          6.7700   55.1024   81.1636 C.3       4 GLC5        0.0000 
     53 CA          8.3840   56.3180   81.6950 C.3      12 GLL5        0.0000 
     54 CA          5.0450   54.4790   81.0930 C.3       8 GLP5        0.0000 
@<TRIPOS>BOND
@<TRIPOS>SUBSTRUCTURE
     1 SEC2        4 GROUP        1 X    SEC  0     ROOT SEC X 2
     2 LYC4        1 GROUP        1 X    LYC  0     **** LYC X 4
     3 ZIC7       17 GROUP        1 X    ZIC  0     **** ZIC X 5
     4 GLC5       33 GROUP        1 X    GLC  0     **** GLC X 6
     5 SEP2        6 GROUP        1 Y    SEP  0     ROOT SEP Y 9
     6 LYP4        3 GROUP        1 Y    LYP  0     **** LYP Y 11
     7 ZIP7       19 GROUP        1 Y    ZIP  0     **** ZIP Y 12
     8 GLP5       35 GROUP        1 Y    GLP  0     **** GLP Y 13
     9 SEL2        5 GROUP        1 Z    SEL  0     ROOT SEL Z 16
    10 LYL4        2 GROUP        1 Z    LYL  0     **** LYL Z 18
    11 ZIL7       18 GROUP        1 Z    ZIL  0     **** ZIL Z 19
    12 GLL5       34 GROUP        1 Z    GLL  0     **** GLL Z 20
@<TRIPOS>SET

