#    Name: 2zxu_DST_1_ligand
#    Modification time : Tue Mar 25 11:18:02 2014

@<TRIPOS>MOLECULE
2zxu_DST_1_ligand
   25    24     1     0     0
SMALL
NO_CHARGES


@<TRIPOS>ATOM
      1 O4          6.7870   51.4420   85.8410 O.co2     1 DST317      0.0000 
      2 P1          7.3420   52.6800   86.4730 P.3       1 DST317      0.0000 
      3 O6          8.3130   52.4100   87.5840 O.co2     1 DST317      0.0000 
      4 O5          6.2460   53.6370   86.9120 O.co2     1 DST317      0.0000 
      5 O2          8.2060   53.4010   85.2990 O.3       1 DST317      0.0000 
      6 P3          8.0010   54.9180   84.7290 P.3       1 DST317      0.0000 
      7 O8          8.9950   55.8130   85.4510 O.co2     1 DST317      0.0000 
      8 O7          6.5280   55.2500   84.8760 O.co2     1 DST317      0.0000 
      9 S9          8.4560   54.8830   82.7200 S.3       1 DST317      0.0000 
     10 C10         8.3840   56.3180   81.6950 C.3       1 DST317      0.0000 
     11 C11         8.5700   55.8510   80.2610 C.3       1 DST317      0.0000 
     12 C12         9.7540   55.9210   79.6040 C.3       1 DST317      0.0000 
     13 C13         9.8450   55.4220   78.1950 C.3       1 DST317      0.0000 
     14 C14        10.9870   56.4820   80.2510 C.3       1 DST317      0.0000 
     15 H           9.1783   56.9133   82.0469 H         1 DST317      0.0000 
     16 H           7.4254   56.7102   81.8857 H         1 DST317      0.0000 
     17 H           7.7257   56.3858   79.6600 H         1 DST317      0.0000 
     18 H           8.1445   54.7654   80.2421 H         1 DST317      0.0000 
     19 H           9.4356   57.2364   79.0965 H         1 DST317      0.0000 
     20 H          10.7676   55.5253   77.8233 H         1 DST317      0.0000 
     21 H           9.6090   54.4525   78.1284 H         1 DST317      0.0000 
     22 H           9.2262   55.9169   77.5850 H         1 DST317      0.0000 
     23 H          11.7736   56.4584   79.6340 H         1 DST317      0.0000 
     24 H          10.8604   57.4344   80.5282 H         1 DST317      0.0000 
     25 H          11.2421   55.9695   81.0709 H         1 DST317      0.0000 
@<TRIPOS>BOND
     1    2    1 ar   
     2    3    2 ar   
     3    4    2 ar   
     4    5    2 1    
     5    6    5 1    
     6    7    6 ar   
     7    8    6 ar   
     8    9    6 1    
     9   10    9 1    
    10   11   10 1    
    11   15   10 1    
    12   16   10 1    
    13   12   11 1    
    14   17   11 1    
    15   18   11 1    
    16   13   12 1    
    17   14   12 1    
    18   19   12 1    
    19   20   13 1    
    20   21   13 1    
    21   22   13 1    
    22   23   14 1    
    23   24   14 1    
    24   25   14 1    
@<TRIPOS>SUBSTRUCTURE
     1 DST317      1 GROUP   
@<TRIPOS>SET

