#    Name: 3FUM_1_CAVITY_N1_6.mol2
#    Modification time : Mon Mar 10 17:22:05 2014

@<TRIPOS>MOLECULE
3FUM_1_CAVITY_N1_6.mol2
   55     0     5     0     0
SMALL
NO_CHARGES


@<TRIPOS>ATOM
      1 CA        -21.0717    2.5652   -2.8007 C.3       5 GLY6        0.0000 
      2 N         -20.8534    3.6689   -3.7928 N.2       2 ALA2        0.0000 
      3 CA        -21.7809    0.5689   -2.9096 C.3       5 GLY6        0.0000 
      4 CA        -21.5627    1.6726   -3.9017 C.3       5 GLY6        0.0000 
      5 CA        -21.3445    2.7763   -4.8938 C.3       5 GLY6        0.0000 
      6 CA        -21.1263    3.8800   -5.8859 C.3       5 GLY6        0.0000 
      7 CA        -22.2720   -0.3236   -4.0106 C.3       5 GLY6        0.0000 
      8 CA        -22.6903    1.9464   -1.5771 C.3       5 GLY6        0.0000 
      9 N         -22.4721    3.0501   -2.5692 N.2       2 ALA2        0.0000 
     10 N         -22.2539    4.1538   -3.5613 N.2       2 ALA2        0.0000 
     11 N         -22.0357    5.2575   -4.5534 N.2       2 ALA2        0.0000 
     12 CA        -23.3996   -0.0498   -1.6861 C.3       5 GLY6        0.0000 
     13 CA        -23.1814    1.0539   -2.6781 C.3       5 GLY6        0.0000 
     14 N         -22.9632    2.1576   -3.6702 N.2       2 ALA2        0.0000 
     15 CA        -22.7450    3.2613   -4.6623 C.3       5 GLY6        0.0000 
     16 CA        -22.5267    4.3650   -5.6544 C.3       5 GLY6        0.0000 
     17 CA        -23.8907   -0.9424   -2.7871 C.3       5 GLY6        0.0000 
     18 N         -23.6725    0.1613   -3.7791 N.2       2 ALA2        0.0000 
     19 CA        -23.4542    1.2650   -4.7712 C.3       5 GLY6        0.0000 
     20 CA        -23.2360    2.3687   -5.7633 C.3       5 GLY6        0.0000 
     21 CA        -23.0178    3.4724   -6.7554 C.3       5 GLY6        0.0000 
     22 O         -24.0907    2.4314   -1.3457 O.2       2 ALA2        0.0000 
     23 N         -23.8725    3.5351   -2.3377 N.2       2 ALA2        0.0000 
     24 N         -23.6543    4.6388   -3.3298 N.2       2 ALA2        0.0000 
     25 CA        -25.0183   -0.6686   -0.4625 C.3       5 GLY6        0.0000 
     26 N         -24.8000    0.4351   -1.4546 N.2       2 ALA2        0.0000 
     27 CZ        -24.5818    1.5388   -2.4466 C.ar      4 PHE5        0.0000 
     28 CZ        -24.3636    2.6425   -3.4387 C.ar      4 PHE5        0.0000 
     29 CA        -24.1454    3.7462   -4.4308 C.3       5 GLY6        0.0000 
     30 CA        -25.5093   -1.5611   -1.5635 C.3       5 GLY6        0.0000 
     31 CZ        -25.2911   -0.4574   -2.5556 C.ar      4 PHE5        0.0000 
     32 CZ        -25.0729    0.6463   -3.5476 C.ar      4 PHE5        0.0000 
     33 CZ        -24.8547    1.7500   -4.5397 C.ar      4 PHE5        0.0000 
     34 N         -25.9276    0.7089    0.8700 N.2       2 ALA2        0.0000 
     35 N         -25.7094    1.8126   -0.1221 N.2       2 ALA2        0.0000 
     36 CA        -26.4187   -0.1836   -0.2310 C.3       5 GLY6        0.0000 
     37 CZ        -26.2005    0.9201   -1.2231 C.ar      4 PHE5        0.0000 
     38 CZ        -25.9823    2.0238   -2.2152 C.ar      4 PHE5        0.0000 
     39 CZ        -25.7640    3.1275   -3.2072 C.ar      4 PHE5        0.0000 
     40 CZ        -26.9098   -1.0762   -1.3320 C.ar      4 PHE5        0.0000 
     41 CZ        -26.6915    0.0275   -2.3241 C.ar      4 PHE5        0.0000 
     42 NZ        -27.5463    0.0902    2.0936 N.2       3 LYS4        0.0000 
     43 CZ        -27.3280    1.1939    1.1015 C.ar      4 PHE5        0.0000 
     44 CA        -28.0373   -0.8024    0.9926 C.3       5 GLY6        0.0000 
     45 CA        -27.8191    0.3013    0.0005 C.3       5 GLY6        0.0000 
     46 CZ        -27.6009    1.4050   -0.9916 C.ar      4 PHE5        0.0000 
     47 CZ        -28.3102   -0.5912   -1.1005 C.ar      4 PHE5        0.0000 
     48 N         -28.9467    0.5751    2.3250 N.2       2 ALA2        0.0000 
     49 CZ        -28.7285    1.6788    1.3330 C.ar      4 PHE5        0.0000 
     50 CA        -29.4378   -0.3174    1.2241 C.3       5 GLY6        0.0000 
     51 N         -29.2196    0.7863    0.2320 N.2       2 ALA2        0.0000 
     52 CZ        -29.0013    1.8900   -0.7601 C.ar      4 PHE5        0.0000 
     53 N         -29.7106   -0.1062   -0.8690 N.2       2 ALA2        0.0000 
     54 OG        -30.1289    2.1638    1.5645 O.2       1 SER1        0.0000 
     55 CZ        -31.5294    2.6488    1.7960 C.ar      4 PHE5        0.0000 
@<TRIPOS>BOND
@<TRIPOS>SUBSTRUCTURE
     1 SER1       54 GROUP   
     2 ALA2        2 GROUP   
     3 LYS4       42 GROUP   
     4 PHE5       27 GROUP   
     5 GLY6        1 GROUP   
@<TRIPOS>SET

