#    Name: 3fum_80A_1_INTS_M
#    Modification time : Tue Mar 25 06:31:56 2014

@<TRIPOS>MOLECULE
3fum_80A_1_INTS_M
   70     0     6     0     0
SMALL
NO_CHARGES


@<TRIPOS>ATOM
      1 CA        -26.8680   -0.4325   -3.7390 C.3       2 GLC5        0.0000 
      2 CA        -27.1110   -0.3150   -1.5110 C.3       6 GLL5        0.0000 
      3 CA        -26.6250   -0.5500   -5.9670 C.3       4 GLP5        0.0000 
      4 CA        -25.3940    1.4920    2.6115 C.3       2 GLC5        0.0000 
      5 CA        -26.6120    1.0170    0.8040 C.3       6 GLL5        0.0000 
      6 CA        -24.1760    1.9670    4.4190 C.3       4 GLP5        0.0000 
      7 CA        -24.6085   -2.1755   -2.5575 C.3       2 GLC5        0.0000 
      8 CA        -24.6990   -0.0210   -2.2340 C.3       6 GLL5        0.0000 
      9 CA        -24.5180   -4.3300   -2.8810 C.3       4 GLP5        0.0000 
     10 CA        -26.0335    0.7355   -3.4485 C.3       2 GLC5        0.0000 
     11 CA        -27.3680    1.4920   -4.6630 C.3       4 GLP5        0.0000 
     12 O         -24.5115   -1.7630   -4.1315 O.2       1 ALC1        0.0000 
     13 O         -25.1410   -1.1170   -3.0620 O.2       5 ALL1        0.0000 
     14 O         -23.8820   -2.4090   -5.2010 O.2       3 ALP1        0.0000 
     15 CA        -24.7040    3.2810   -5.5580 C.3       2 GLC5        0.0000 
     16 CA        -23.2530    1.7700   -5.2400 C.3       6 GLL5        0.0000 
     17 CA        -26.1550    4.7920   -5.8760 C.3       4 GLP5        0.0000 
     18 CA        -24.7460    4.0425   -4.6740 C.3       2 GLC5        0.0000 
     19 CA        -23.3370    3.2930   -3.4720 C.3       6 GLL5        0.0000 
     20 CA        -30.7925   -0.6005    0.7190 C.3       2 GLC5        0.0000 
     21 CA        -30.1870    0.9140    1.2060 C.3       6 GLL5        0.0000 
     22 CA        -31.3980   -2.1150    0.2320 C.3       4 GLP5        0.0000 
     23 CA        -31.5660   -0.2270    1.8500 C.3       2 GLC5        0.0000 
     24 CA        -30.8960    1.8310    2.1880 C.3       6 GLL5        0.0000 
     25 CA        -32.2360   -2.2850    1.5120 C.3       4 GLP5        0.0000 
     26 CA        -31.0040    2.8355    3.3490 C.3       2 GLC5        0.0000 
     27 CA        -31.1120    3.8400    4.5100 C.3       4 GLP5        0.0000 
     28 O         -32.1625    1.1175    0.3945 O.2       1 ALC1        0.0000 
     29 O         -32.0240    2.3380    1.4070 O.2       5 ALL1        0.0000 
     30 O         -32.3010   -0.1030   -0.6180 O.2       3 ALP1        0.0000 
     31 CA        -32.8035   -0.1755    1.6195 C.3       2 GLC5        0.0000 
     32 CA        -33.3710    1.9340    1.7270 C.3       6 GLL5        0.0000 
     33 CA        -33.4510    2.9690    3.2320 C.3       2 GLC5        0.0000 
     34 CA        -33.5310    4.0040    4.7370 C.3       4 GLP5        0.0000 
     35 CA        -33.8760    3.9425    2.3260 C.3       2 GLC5        0.0000 
     36 CA        -34.2220    2.7990    0.7780 C.3       6 GLL5        0.0000 
     37 CA        -33.5300    5.0860    3.8740 C.3       4 GLP5        0.0000 
     38 CA        -27.5590   -1.7585    0.0590 C.3       2 GLC5        0.0000 
     39 CA        -28.1710   -0.1470   -0.6170 C.3       6 GLL5        0.0000 
     40 CA        -27.4770   -3.2860    1.1820 C.3       4 GLP5        0.0000 
     41 CA        -29.7170   -0.9605    0.1018 C.3       2 GLC5        0.0000 
     42 CA        -27.3667   -1.2550    0.9320 C.3       2 GLC5        0.0000 
     43 CA        -27.9010    0.5350    0.5600 C.3       6 GLL5        0.0000 
     44 CA        -24.9395   -0.3550    0.9660 C.3       2 GLC5        0.0000 
     45 CA        -23.7890   -1.6470    1.5780 C.3       4 GLP5        0.0000 
     46 CA        -26.0571    2.6247    0.6055 C.3       2 GLC5        0.0000 
     47 CA        -25.5680    0.8570   -0.0960 C.3       6 GLL5        0.0000 
     48 CA        -25.7020    4.4330    0.9180 C.3       4 GLP5        0.0000 
     49 CA        -24.5252   -0.7777   -0.0877 C.3       2 GLC5        0.0000 
     50 CA        -25.8240    0.2040   -1.2730 C.3       6 GLL5        0.0000 
     51 CA        -22.0035    0.6365   -5.3590 C.3       2 GLC5        0.0000 
     52 CA        -23.7850    0.8120   -4.4140 C.3       6 GLL5        0.0000 
     53 CA        -20.4880   -0.0180   -5.8910 C.3       4 GLP5        0.0000 
     54 CA        -22.9115   -0.7092   -2.9078 C.3       2 GLC5        0.0000 
     55 CA        -21.7210   -2.0900   -2.2770 C.3       4 GLP5        0.0000 
     56 CA        -25.1163    0.4044   -5.2317 C.3       2 GLC5        0.0000 
     57 CA        -24.1390    1.0830   -3.0920 C.3       6 GLL5        0.0000 
     58 CA        -22.0787    2.6965   -1.6810 C.3       2 GLC5        0.0000 
     59 CA        -23.8820    2.3530   -2.6040 C.3       6 GLL5        0.0000 
     60 CA        -20.5480    2.5700   -0.3240 C.3       4 GLP5        0.0000 
     61 CA        -24.0773    3.8490   -1.5415 C.3       2 GLC5        0.0000 
     62 CA        -24.5450    4.8750   -0.0450 C.3       4 GLP5        0.0000 
     63 CA        -34.7553    1.0322    1.1538 C.3       2 GLC5        0.0000 
     64 CA        -35.7140   -0.3020    1.0550 C.3       4 GLP5        0.0000 
     65 CA        -32.4710    4.5040    1.7605 C.3       2 GLC5        0.0000 
     66 CA        -33.3240    3.7760    0.0550 C.3       6 GLL5        0.0000 
     67 CA        -32.3310    5.4900    3.3530 C.3       4 GLP5        0.0000 
     68 CA        -31.1290    4.6595   -0.0645 C.3       2 GLC5        0.0000 
     69 CA        -31.8980    3.2600    0.2810 C.3       6 GLL5        0.0000 
     70 CA        -29.6470    5.8010   -0.2970 C.3       4 GLP5        0.0000 
@<TRIPOS>BOND
@<TRIPOS>SUBSTRUCTURE
     1 ALC1       12 GROUP        1 X    ALC  0     ROOT ALC X 1
     2 GLC5        1 GROUP        1 X    GLC  0     **** GLC X 6
     3 ALP1       14 GROUP        1 Y    ALP  0     ROOT ALP Y 8
     4 GLP5        3 GROUP        1 Y    GLP  0     **** GLP Y 13
     5 ALL1       13 GROUP        1 Z    ALL  0     ROOT ALL Z 15
     6 GLL5        2 GROUP        1 Z    GLL  0     **** GLL Z 20
@<TRIPOS>SET

