#    Name: 3fum_80A_1_ligand
#    Modification time : Tue Mar 25 06:31:56 2014

@<TRIPOS>MOLECULE
3fum_80A_1_ligand
   45    47     1     0     0
SMALL
NO_CHARGES


@<TRIPOS>ATOM
      1 C1        -27.1110   -0.3150   -1.5110 C.ar      1 80A710      0.0000 
      2 C2        -28.1710   -0.1470   -0.6170 C.ar      1 80A710      0.0000 
      3 C3        -27.9010    0.5350    0.5600 C.ar      1 80A710      0.0000 
      4 C4        -26.6120    1.0170    0.8040 C.ar      1 80A710      0.0000 
      5 C5        -25.5680    0.8570   -0.0960 C.ar      1 80A710      0.0000 
      6 C6        -25.8240    0.2040   -1.2730 C.ar      1 80A710      0.0000 
      7 C7        -24.6990   -0.0210   -2.2340 C.3       1 80A710      0.0000 
      8 O8        -25.1410   -1.1170   -3.0620 O.3       1 80A710      0.0000 
      9 C9        -24.1390    1.0830   -3.0920 C.ar      1 80A710      0.0000 
     10 C14       -23.7850    0.8120   -4.4140 C.ar      1 80A710      0.0000 
     11 C13       -23.2530    1.7700   -5.2400 C.ar      1 80A710      0.0000 
     12 N12       -23.0390    2.9810   -4.7410 N.ar      1 80A710      0.0000 
     13 C11       -23.3370    3.2930   -3.4720 C.ar      1 80A710      0.0000 
     14 C10       -23.8820    2.3530   -2.6040 C.ar      1 80A710      0.0000 
     15 O15       -28.8360    0.7540    1.5350 O.3       1 80A710      0.0000 
     16 C16       -30.1870    0.9140    1.2060 C.3       1 80A710      0.0000 
     17 C17       -30.8960    1.8310    2.1880 C.3       1 80A710      0.0000 
     18 N23       -32.0240    2.3380    1.4070 N.4       1 80A710      0.0000 
     19 C19       -33.3710    1.9340    1.7270 C.3       1 80A710      0.0000 
     20 C20       -34.2220    2.7990    0.7780 C.3       1 80A710      0.0000 
     21 C21       -33.3240    3.7760    0.0550 C.3       1 80A710      0.0000 
     22 C22       -31.8980    3.2600    0.2810 C.3       1 80A710      0.0000 
     23 H         -27.2752   -0.8471   -2.3941 H         1 80A710      0.0000 
     24 H         -29.0890   -0.5070   -0.8224 H         1 80A710      0.0000 
     25 H         -26.4308    1.5192    1.7046 H         1 80A710      0.0000 
     26 H         -24.6396    1.2181    0.1201 H         1 80A710      0.0000 
     27 H         -23.8403   -0.4463   -1.6246 H         1 80A710      0.0000 
     28 H         -23.9339   -0.1571   -4.7787 H         1 80A710      0.0000 
     29 H         -23.0328    1.5343   -6.2184 H         1 80A710      0.0000 
     30 H         -23.1642    4.2579   -3.1058 H         1 80A710      0.0000 
     31 H         -24.0852    2.5947   -1.6375 H         1 80A710      0.0000 
     32 H         -30.7324   -0.0507    1.2032 H         1 80A710      0.0000 
     33 H         -30.3213    1.3471    0.1948 H         1 80A710      0.0000 
     34 H         -30.2341    2.6170    2.4707 H         1 80A710      0.0000 
     35 H         -31.2275    1.2576    3.0229 H         1 80A710      0.0000 
     36 H         -31.9205    1.2184    0.4973 H         1 80A710      0.0000 
     37 H         -33.6382    2.1778    2.7295 H         1 80A710      0.0000 
     38 H         -33.5510    0.9094    1.4952 H         1 80A710      0.0000 
     39 H         -34.9598    3.3354    1.3610 H         1 80A710      0.0000 
     40 H         -34.7165    2.1523    0.0644 H         1 80A710      0.0000 
     41 H         -33.4190    4.7500    0.4818 H         1 80A710      0.0000 
     42 H         -33.5398    3.7714   -0.9906 H         1 80A710      0.0000 
     43 H         -31.5729    2.7568   -0.6049 H         1 80A710      0.0000 
     44 H         -31.2687    4.0906    0.5214 H         1 80A710      0.0000 
     45 H         -24.4007   -1.2598   -3.7190 H         1 80A710      0.0000 
@<TRIPOS>BOND
     1    2    1 ar   
     2    6    1 ar   
     3   23    1 1    
     4    3    2 ar   
     5   24    2 1    
     6    4    3 ar   
     7   15    3 1    
     8    5    4 ar   
     9   25    4 1    
    10    6    5 ar   
    11   26    5 1    
    12    7    6 1    
    13    8    7 1    
    14    9    7 1    
    15   27    7 1    
    16   45    8 1    
    17   10    9 ar   
    18   14    9 ar   
    19   11   10 ar   
    20   28   10 1    
    21   12   11 ar   
    22   29   11 1    
    23   13   12 ar   
    24   14   13 ar   
    25   30   13 1    
    26   31   14 1    
    27   16   15 1    
    28   17   16 1    
    29   32   16 1    
    30   33   16 1    
    31   18   17 1    
    32   34   17 1    
    33   35   17 1    
    34   19   18 1    
    35   22   18 1    
    36   36   18 1    
    37   20   19 1    
    38   37   19 1    
    39   38   19 1    
    40   21   20 1    
    41   39   20 1    
    42   40   20 1    
    43   22   21 1    
    44   41   21 1    
    45   42   21 1    
    46   43   22 1    
    47   44   22 1    
@<TRIPOS>SUBSTRUCTURE
     1 80A710      1 GROUP   
@<TRIPOS>SET

