#    Name: 1ez1_GAR_1_INTS_M
#    Modification time : Tue Mar 25 00:26:24 2014

@<TRIPOS>MOLECULE
1ez1_GAR_1_INTS_M
   51     0    15     0     0
SMALL
NO_CHARGES


@<TRIPOS>ATOM
      1 O          24.0010   36.6675   25.5705 O.2       1 ALC1        0.0000 
      2 O          23.2610   37.8210   26.4420 O.2      11 ALL1        0.0000 
      3 O          24.7410   35.5140   24.6990 O.2       6 ALP1        0.0000 
      4 O          24.0890   36.7330   26.6735 O.2       1 ALC1        0.0000 
      5 O          24.9170   35.6450   26.9050 O.2       6 ALP1        0.0000 
      6 N          24.5460   36.9900   22.6060 N.am      2 SEC2        0.0000 
      7 N          24.5030   37.8750   23.9360 N.am     12 SEL2        0.0000 
      8 N          24.5890   36.1050   21.2760 N.am      7 SEP2        0.0000 
      9 O          24.6220   36.6945   24.3175 O.2       1 ALC1        0.0000 
     10 O          24.5030   37.8750   23.9360 O.2      11 ALL1        0.0000 
     11 N          20.2145   41.3350   23.9580 N.am      2 SEC2        0.0000 
     12 N          21.0170   41.5780   25.4130 N.am     12 SEL2        0.0000 
     13 N          19.4120   41.0920   22.5030 N.am      7 SEP2        0.0000 
     14 N          25.5325   42.4530   21.8715 N.am      2 SEC2        0.0000 
     15 N          26.3530   42.2800   23.0820 N.am     12 SEL2        0.0000 
     16 N          24.7120   42.6260   20.6610 N.am      7 SEP2        0.0000 
     17 N          25.9020   43.5445   21.9725 N.am      2 SEC2        0.0000 
     18 N          25.4510   44.8090   20.8630 N.am      7 SEP2        0.0000 
     19 OD1        27.9755   44.3015   22.9450 O.co2     3 ASC3        0.0000 
     20 OD1        28.0300   43.9500   24.3590 O.co2    13 ASL3        0.0000 
     21 OD1        27.9210   44.6530   21.5310 O.co2     8 ASP3        0.0000 
     22 OD1        28.6030   45.0660   24.8950 O.co2     3 ASC3        0.0000 
     23 OD1        29.1760   46.1820   25.4310 O.co2     8 ASP3        0.0000 
     24 O          26.9890   45.0860   24.7685 O.2       1 ALC1        0.0000 
     25 O          28.0300   43.9500   24.3590 O.2      11 ALL1        0.0000 
     26 O          25.9480   46.2220   25.1780 O.2       6 ALP1        0.0000 
     27 O          27.9755   44.3015   22.9450 O.2       1 ALC1        0.0000 
     28 O          27.9210   44.6530   21.5310 O.2       6 ALP1        0.0000 
     29 NZ         17.4980   40.8375   26.6265 N.4       4 LYC4        0.0000 
     30 NZ         18.8140   41.0570   26.7420 N.4      14 LYL4        0.0000 
     31 NZ         15.4560   41.4390   25.7390 N.4       9 LYP4        0.0000 
     32 N          17.4560   41.7325   25.8860 N.am      2 SEC2        0.0000 
     33 N          18.8140   41.0570   26.7420 N.am     12 SEL2        0.0000 
     34 N          16.0980   42.4080   25.0300 N.am      7 SEP2        0.0000 
     35 N          17.4980   40.8375   26.6265 N.am      2 SEC2        0.0000 
     36 N          16.1820   40.6180   26.5110 N.am      7 SEP2        0.0000 
     37 NZ         19.1080   41.8280   23.6665 N.4       4 LYC4        0.0000 
     38 NZ         18.8040   42.5640   24.8300 N.4      14 LYL4        0.0000 
     39 NZ         19.4120   41.0920   22.5030 N.4       9 LYP4        0.0000 
     40 NZ         17.4510   42.4860   24.9300 N.4       4 LYC4        0.0000 
     41 N          19.1080   41.8280   23.6665 N.am      2 SEC2        0.0000 
     42 N          18.8040   42.5640   24.8300 N.am     12 SEL2        0.0000 
     43 N          17.4510   42.4860   24.9300 N.am      2 SEC2        0.0000 
     44 CA         24.7788   38.3980   27.2360 C.3       5 GLC5        0.0000 
     45 CA         23.8680   39.0290   25.9830 C.3      15 GLL5        0.0000 
     46 CA         25.1830   37.8300   29.0440 C.3      10 GLP5        0.0000 
     47 CA         26.3547   39.1020   23.5378 C.3       5 GLC5        0.0000 
     48 CA         24.8810   38.9030   24.8730 C.3      15 GLL5        0.0000 
     49 CA         27.8810   38.6160   22.5090 C.3      10 GLP5        0.0000 
     50 CA         22.5476   37.8063   24.8630 C.3       5 GLC5        0.0000 
     51 CA         21.5100   36.1800   24.3370 C.3      10 GLP5        0.0000 
@<TRIPOS>BOND
@<TRIPOS>SUBSTRUCTURE
     1 ALC1        1 GROUP        1 X    ALC  0     ROOT ALC X 1
     2 SEC2        6 GROUP        1 X    SEC  0     **** SEC X 2
     3 ASC3       19 GROUP        1 X    ASC  0     **** ASC X 3
     4 LYC4       29 GROUP        1 X    LYC  0     **** LYC X 4
     5 GLC5       44 GROUP        1 X    GLC  0     **** GLC X 6
     6 ALP1        3 GROUP        1 Y    ALP  0     ROOT ALP Y 8
     7 SEP2        8 GROUP        1 Y    SEP  0     **** SEP Y 9
     8 ASP3       21 GROUP        1 Y    ASP  0     **** ASP Y 10
     9 LYP4       31 GROUP        1 Y    LYP  0     **** LYP Y 11
    10 GLP5       46 GROUP        1 Y    GLP  0     **** GLP Y 13
    11 ALL1        2 GROUP        1 Z    ALL  0     ROOT ALL Z 15
    12 SEL2        7 GROUP        1 Z    SEL  0     **** SEL Z 16
    13 ASL3       20 GROUP        1 Z    ASL  0     **** ASL Z 17
    14 LYL4       30 GROUP        1 Z    LYL  0     **** LYL Z 18
    15 GLL5       45 GROUP        1 Z    GLL  0     **** GLL Z 20
@<TRIPOS>SET

