#    Name: 1ez1_GAR_1_ligand
#    Modification time : Tue Mar 25 00:26:24 2014

@<TRIPOS>MOLECULE
1ez1_GAR_1_ligand
   32    32     1     0     0
SMALL
NO_CHARGES


@<TRIPOS>ATOM
      1 C1         23.8680   39.0290   25.9830 C.3       1 GAR410      0.0000 
      2 O6         23.2610   37.8210   26.4420 O.3       1 GAR410      0.0000 
      3 C2         24.8810   38.9030   24.8730 C.3       1 GAR410      0.0000 
      4 O8         24.5030   37.8750   23.9360 O.3       1 GAR410      0.0000 
      5 C3         24.7760   40.2730   24.2600 C.3       1 GAR410      0.0000 
      6 O4         23.5110   40.7680   24.5080 O.3       1 GAR410      0.0000 
      7 C5         22.7960   39.8990   25.3500 C.3       1 GAR410      0.0000 
      8 C10        21.8690   40.7310   26.1690 C.3       1 GAR410      0.0000 
      9 O12        21.0170   41.5780   25.4130 O.3       1 GAR410      0.0000 
     10 N19        25.7130   41.1600   24.8840 N.am      1 GAR410      0.0000 
     11 C21        26.4230   42.1040   24.2900 C.2       1 GAR410      0.0000 
     12 O22        26.3530   42.2800   23.0820 O.2       1 GAR410      0.0000 
     13 C23        27.2860   42.9560   25.1520 C.3       1 GAR410      0.0000 
     14 N24        28.0300   43.9500   24.3590 N.4       1 GAR410      0.0000 
     15 P15        19.6620   42.0910   26.0280 P.3       1 GAR410      0.0000 
     16 O16        20.1060   43.2360   26.9130 O.co2     1 GAR410      0.0000 
     17 O17        18.8140   41.0570   26.7420 O.co2     1 GAR410      0.0000 
     18 O18        18.8040   42.5640   24.8300 O.co2     1 GAR410      0.0000 
     19 H          24.2998   39.6139   26.7768 H         1 GAR410      0.0000 
     20 H          25.8327   38.7856   25.2919 H         1 GAR410      0.0000 
     21 H          24.9760   40.1918   23.2101 H         1 GAR410      0.0000 
     22 H          22.1911   39.2382   24.6867 H         1 GAR410      0.0000 
     23 H          22.4861   41.3285   26.8888 H         1 GAR410      0.0000 
     24 H          21.2695   40.0421   26.8187 H         1 GAR410      0.0000 
     25 H          25.8201   41.0083   25.9487 H         1 GAR410      0.0000 
     26 H          27.9916   42.3155   25.7062 H         1 GAR410      0.0000 
     27 H          26.6595   43.4678   25.9008 H         1 GAR410      0.0000 
     28 H          27.5181   44.8032   24.2582 H         1 GAR410      0.0000 
     29 H          28.9060   44.1819   24.7818 H         1 GAR410      0.0000 
     30 H          28.2285   43.6166   23.4374 H         1 GAR410      0.0000 
     31 H          24.0126   37.1655   26.5154 H         1 GAR410      0.0000 
     32 H          24.1758   37.1176   24.5011 H         1 GAR410      0.0000 
@<TRIPOS>BOND
     1    2    1 1    
     2    3    1 1    
     3    7    1 1    
     4   19    1 1    
     5   31    2 1    
     6    4    3 1    
     7    5    3 1    
     8   20    3 1    
     9   32    4 1    
    10    6    5 1    
    11   10    5 1    
    12   21    5 1    
    13    7    6 1    
    14    8    7 1    
    15   22    7 1    
    16    9    8 1    
    17   23    8 1    
    18   24    8 1    
    19   15    9 1    
    20   11   10 am   
    21   25   10 1    
    22   12   11 2    
    23   13   11 1    
    24   14   13 1    
    25   26   13 1    
    26   27   13 1    
    27   28   14 1    
    28   29   14 1    
    29   30   14 1    
    30   16   15 ar   
    31   17   15 ar   
    32   18   15 ar   
@<TRIPOS>SUBSTRUCTURE
     1 GAR410      1 GROUP   
@<TRIPOS>SET

