#    Name: 2v1x_ADP_1_INTS_M
#    Modification time : Tue Mar 25 00:50:19 2014

@<TRIPOS>MOLECULE
2v1x_ADP_1_INTS_M
   57     0    15     0     0
SMALL
NO_CHARGES


@<TRIPOS>ATOM
      1 N          10.9235    2.5775   16.1295 N.am      2 SEC2        0.0000 
      2 N          11.5890    2.1140   17.1630 N.am     12 SEL2        0.0000 
      3 N          10.2580    3.0410   15.0960 N.am      7 SEP2        0.0000 
      4 Zn         13.3200    1.5615   19.3720 Zn        4 ZIC7        0.0000 
      5 Zn         13.5870    2.0550   18.6300 Zn       14 ZIL7        0.0000 
      6 Zn         13.0530    1.0680   20.1140 Zn        9 ZIP7        0.0000 
      7 N          15.0960    1.2500   18.9910 N.am      2 SEC2        0.0000 
      8 N          13.5870    2.0550   18.6300 N.am     12 SEL2        0.0000 
      9 N          16.6050    0.4450   19.3520 N.am      7 SEP2        0.0000 
     10 NZ         12.2945    4.9395   18.0385 N.4       3 LYC4        0.0000 
     11 NZ         13.1780    4.1400   17.1570 N.4      13 LYL4        0.0000 
     12 NZ         11.4110    5.7390   18.9200 N.4       8 LYP4        0.0000 
     13 N          14.0535    4.3055   15.8195 N.am      2 SEC2        0.0000 
     14 N          13.1780    4.1400   17.1570 N.am     12 SEL2        0.0000 
     15 N          14.9290    4.4710   14.4820 N.am      7 SEP2        0.0000 
     16 N          14.6210    4.3715   17.1940 N.am      2 SEC2        0.0000 
     17 N          16.0640    4.6030   17.2310 N.am      7 SEP2        0.0000 
     18 N          12.2945    4.9395   18.0385 N.am      2 SEC2        0.0000 
     19 N          11.4110    5.7390   18.9200 N.am      7 SEP2        0.0000 
     20 N          16.8210    2.2020   17.8015 N.am      2 SEC2        0.0000 
     21 N          16.1180    1.5010   16.7740 N.am     12 SEL2        0.0000 
     22 N          17.5240    2.9030   18.8290 N.am      7 SEP2        0.0000 
     23 N          16.3615    0.9730   18.0630 N.am      2 SEC2        0.0000 
     24 N          14.3300    3.2470   15.2935 N.am      2 SEC2        0.0000 
     25 N          13.7310    2.0230   16.1050 N.am     12 SEL2        0.0000 
     26 CA         12.5735    1.5955   13.6785 C.3       5 GLC5        0.0000 
     27 CA         14.2200    0.5890   13.4970 C.3      15 GLL5        0.0000 
     28 CA         10.9270    2.6020   13.8600 C.3      10 GLP5        0.0000 
     29 CA         15.2705    2.3625   14.1620 C.3       5 GLC5        0.0000 
     30 CA         16.3210    4.1360   14.8270 C.3      10 GLP5        0.0000 
     31 N          15.5195    2.6040   11.1325 N.am      2 SEC2        0.0000 
     32 N          15.6640    1.2410   11.6580 N.am     12 SEL2        0.0000 
     33 N          15.3750    3.9670   10.6070 N.am      7 SEP2        0.0000 
     34 O          14.9470   -3.0935   11.4230 O.2       1 ALC1        0.0000 
     35 O          15.6500   -1.9890   11.4600 O.2      11 ALL1        0.0000 
     36 O          14.2440   -4.1980   11.3860 O.2       6 ALP1        0.0000 
     37 N          19.3110    4.5905   12.9305 N.am      2 SEC2        0.0000 
     38 N          19.1940    3.5320   12.0510 N.am     12 SEL2        0.0000 
     39 N          19.4280    5.6490   13.8100 N.am      7 SEP2        0.0000 
     40 O          21.8560    5.6780    9.2355 O.2       1 ALC1        0.0000 
     41 O          20.8650    5.2480   10.0870 O.2      11 ALL1        0.0000 
     42 O          22.8470    6.1080    8.3840 O.2       6 ALP1        0.0000 
     43 O          20.8060    6.0375   11.2595 O.2       1 ALC1        0.0000 
     44 O          20.7470    6.8270   12.4320 O.2       6 ALP1        0.0000 
     45 CA         20.3340    1.7050    8.3770 C.3       5 GLC5        0.0000 
     46 CA         19.1060    2.9080    8.0150 C.3      15 GLL5        0.0000 
     47 CA         21.5620    0.5020    8.7390 C.3      10 GLP5        0.0000 
     48 CA         20.0035    1.4580    9.4845 C.3       5 GLC5        0.0000 
     49 CA         18.4450    2.4140   10.2300 C.3      15 GLL5        0.0000 
     50 CA         13.8385   -1.6228   11.8185 C.3       5 GLC5        0.0000 
     51 CA         14.9070    0.1670   12.2160 C.3      15 GLL5        0.0000 
     52 CA         12.2850   -2.8380   11.3030 C.3      10 GLP5        0.0000 
     53 CA         21.0958    2.5420   10.5985 C.3       5 GLC5        0.0000 
     54 CA         19.3070    3.4960   10.7180 C.3      15 GLL5        0.0000 
     55 CA         22.5040    1.2120   10.9860 C.3      10 GLP5        0.0000 
     56 CA         17.9696    4.7415   10.2097 C.3       5 GLC5        0.0000 
     57 CA         16.8730    6.3400   10.1990 C.3      10 GLP5        0.0000 
@<TRIPOS>BOND
@<TRIPOS>SUBSTRUCTURE
     1 ALC1       34 GROUP        1 X    ALC  0     ROOT ALC X 1
     2 SEC2        1 GROUP        1 X    SEC  0     **** SEC X 2
     3 LYC4       10 GROUP        1 X    LYC  0     **** LYC X 4
     4 ZIC7        4 GROUP        1 X    ZIC  0     **** ZIC X 5
     5 GLC5       26 GROUP        1 X    GLC  0     **** GLC X 6
     6 ALP1       36 GROUP        1 Y    ALP  0     ROOT ALP Y 8
     7 SEP2        3 GROUP        1 Y    SEP  0     **** SEP Y 9
     8 LYP4       12 GROUP        1 Y    LYP  0     **** LYP Y 11
     9 ZIP7        6 GROUP        1 Y    ZIP  0     **** ZIP Y 12
    10 GLP5       28 GROUP        1 Y    GLP  0     **** GLP Y 13
    11 ALL1       35 GROUP        1 Z    ALL  0     ROOT ALL Z 15
    12 SEL2        2 GROUP        1 Z    SEL  0     **** SEL Z 16
    13 LYL4       11 GROUP        1 Z    LYL  0     **** LYL Z 18
    14 ZIL7        5 GROUP        1 Z    ZIL  0     **** ZIL Z 19
    15 GLL5       27 GROUP        1 Z    GLL  0     **** GLL Z 20
@<TRIPOS>SET

