#    Name: 2v1x_ADP_1_ligand
#    Modification time : Tue Mar 25 00:50:19 2014

@<TRIPOS>MOLECULE
2v1x_ADP_1_ligand
   39    41     1     0     0
SMALL
NO_CHARGES


@<TRIPOS>ATOM
      1 PB         12.9990    2.6220   17.3900 P.3       1 ADP1593     0.0000 
      2 O1B        11.5890    2.1140   17.1630 O.co2     1 ADP1593     0.0000 
      3 O2B        13.5870    2.0550   18.6300 O.co2     1 ADP1593     0.0000 
      4 O3B        13.1780    4.1400   17.1570 O.co2     1 ADP1593     0.0000 
      5 PA         14.9350    0.9620   16.0110 P.3       1 ADP1593     0.0000 
      6 O1A        16.1180    1.5010   16.7740 O.co2     1 ADP1593     0.0000 
      7 O2A        14.4660   -0.3950   16.3020 O.co2     1 ADP1593     0.0000 
      8 O3A        13.7310    2.0230   16.1050 O.3       1 ADP1593     0.0000 
      9 O5'        15.1950    1.0080   14.4370 O.3       1 ADP1593     0.0000 
     10 C5'        14.2200    0.5890   13.4970 C.3       1 ADP1593     0.0000 
     11 C4'        14.9070    0.1670   12.2160 C.3       1 ADP1593     0.0000 
     12 O4'        15.6640    1.2410   11.6580 O.3       1 ADP1593     0.0000 
     13 C3'        15.8770   -0.9820   12.4520 C.3       1 ADP1593     0.0000 
     14 O3'        15.6500   -1.9890   11.4600 O.3       1 ADP1593     0.0000 
     15 C2'        17.2460   -0.3350   12.3300 C.3       1 ADP1593     0.0000 
     16 O2'        18.2380   -1.3020   11.9640 O.3       1 ADP1593     0.0000 
     17 C1'        16.9570    0.7500   11.3040 C.3       1 ADP1593     0.0000 
     18 N9         17.9030    1.8760   11.3150 N.pl3     1 ADP1593     0.0000 
     19 C8         18.3400    2.5400   12.4020 C.2       1 ADP1593     0.0000 
     20 N7         19.1940    3.5320   12.0510 N.2       1 ADP1593     0.0000 
     21 C5         19.3070    3.4960   10.7180 C.ar      1 ADP1593     0.0000 
     22 C6         20.0680    4.2480    9.7040 C.ar      1 ADP1593     0.0000 
     23 N6         20.8650    5.2480   10.0870 N.pl3     1 ADP1593     0.0000 
     24 N1         19.9150    3.9160    8.4020 N.ar      1 ADP1593     0.0000 
     25 C2         19.1060    2.9080    8.0150 C.ar      1 ADP1593     0.0000 
     26 N3         18.3940    2.1670    8.8910 N.ar      1 ADP1593     0.0000 
     27 C4         18.4450    2.4140   10.2300 C.ar      1 ADP1593     0.0000 
     28 H          13.5149    1.3938   13.2537 H         1 ADP1593     0.0000 
     29 H          13.6375   -0.2646   13.8658 H         1 ADP1593     0.0000 
     30 H          14.1592   -0.1752   11.5111 H         1 ADP1593     0.0000 
     31 H          15.7426   -1.3254   13.4443 H         1 ADP1593     0.0000 
     32 H          17.4399    0.1480   13.2709 H         1 ADP1593     0.0000 
     33 H          16.9143    0.2917   10.3320 H         1 ADP1593     0.0000 
     34 H          18.0783    2.3368   13.3252 H         1 ADP1593     0.0000 
     35 H          21.6478    5.4383    9.4946 H         1 ADP1593     0.0000 
     36 H          20.6076    5.7170   10.9318 H         1 ADP1593     0.0000 
     37 H          19.0257    2.6883    6.9808 H         1 ADP1593     0.0000 
     38 H          15.0254   -2.6404   11.8908 H         1 ADP1593     0.0000 
     39 H          17.7423   -1.9966   11.4427 H         1 ADP1593     0.0000 
@<TRIPOS>BOND
     1    2    1 ar   
     2    3    1 ar   
     3    4    1 ar   
     4    8    1 1    
     5    6    5 ar   
     6    7    5 ar   
     7    8    5 1    
     8    9    5 1    
     9   10    9 1    
    10   11   10 1    
    11   28   10 1    
    12   29   10 1    
    13   12   11 1    
    14   13   11 1    
    15   30   11 1    
    16   17   12 1    
    17   14   13 1    
    18   15   13 1    
    19   31   13 1    
    20   38   14 1    
    21   16   15 1    
    22   17   15 1    
    23   32   15 1    
    24   39   16 1    
    25   18   17 1    
    26   33   17 1    
    27   19   18 1    
    28   27   18 1    
    29   20   19 2    
    30   34   19 1    
    31   21   20 1    
    32   22   21 ar   
    33   27   21 ar   
    34   23   22 1    
    35   24   22 ar   
    36   35   23 1    
    37   36   23 1    
    38   25   24 ar   
    39   26   25 ar   
    40   37   25 1    
    41   27   26 ar   
@<TRIPOS>SUBSTRUCTURE
     1 ADP1593     1 GROUP   
@<TRIPOS>SET

