#    Name: 4AZI_1_CAVITY_N1_6.mol2
#    Modification time : Tue Mar 11 18:29:46 2014

@<TRIPOS>MOLECULE
4AZI_1_CAVITY_N1_6.mol2
  130     0     6     0     0
SMALL
NO_CHARGES


@<TRIPOS>ATOM
      1 CA        -17.2812   34.7607   -3.9633 C.3       5 GLY6        0.0000 
      2 CZ        -17.5444   36.1970   -4.3063 C.ar      4 PHE5        0.0000 
      3 CZ        -17.8077   37.6333   -4.6493 C.ar      4 PHE5        0.0000 
      4 CA        -18.0709   39.0697   -4.9923 C.3       5 GLY6        0.0000 
      5 N         -16.5361   31.5813   -4.7293 N.2       2 ALA2        0.0000 
      6 CA        -16.7993   33.0177   -5.0723 C.3       5 GLY6        0.0000 
      7 CA        -17.0626   34.4540   -5.4153 C.3       5 GLY6        0.0000 
      8 CA        -17.3258   35.8904   -5.7583 C.3       5 GLY6        0.0000 
      9 CA        -17.5890   37.3267   -6.1013 C.3       5 GLY6        0.0000 
     10 CA        -17.8523   38.7630   -6.4443 C.3       5 GLY6        0.0000 
     11 CA        -18.1155   40.1994   -6.7873 C.3       5 GLY6        0.0000 
     12 N         -16.0542   29.8384   -5.8382 N.2       2 ALA2        0.0000 
     13 CA        -16.3174   31.2747   -6.1812 C.3       5 GLY6        0.0000 
     14 CA        -16.5807   32.7110   -6.5242 C.3       5 GLY6        0.0000 
     15 CA        -16.8439   34.1474   -6.8672 C.3       5 GLY6        0.0000 
     16 DU        -17.1072   35.5837   -7.2102 H         6 CUB7        0.0000 
     17 NZ        -17.3704   37.0200   -7.5532 N.2       3 LYS4        0.0000 
     18 NZ        -17.6337   38.4564   -7.8962 N.2       3 LYS4        0.0000 
     19 O         -17.8969   39.8927   -8.2392 O.2       2 ALA2        0.0000 
     20 DU        -15.8356   29.5317   -7.2902 H         6 CUB7        0.0000 
     21 OG        -16.0988   30.9680   -7.6332 O.2       1 SER1        0.0000 
     22 OG        -16.3621   32.4044   -7.9762 O.2       1 SER1        0.0000 
     23 OG        -16.6253   33.8407   -8.3192 O.2       1 SER1        0.0000 
     24 DU        -16.8885   35.2770   -8.6622 H         6 CUB7        0.0000 
     25 DU        -17.1518   36.7134   -9.0052 H         6 CUB7        0.0000 
     26 DU        -17.4150   38.1497   -9.3482 H         6 CUB7        0.0000 
     27 CZ        -15.6169   29.2250   -8.7421 C.ar      4 PHE5        0.0000 
     28 CZ        -15.8802   30.6614   -9.0851 C.ar      4 PHE5        0.0000 
     29 OG        -16.1434   32.0977   -9.4281 O.2       1 SER1        0.0000 
     30 OG        -16.4067   33.5340   -9.7711 O.2       1 SER1        0.0000 
     31 DU        -16.6699   34.9704  -10.1141 H         6 CUB7        0.0000 
     32 DU        -16.9331   36.4067  -10.4571 H         6 CUB7        0.0000 
     33 OG        -24.4094   34.0597   -7.9879 O.2       1 SER1        0.0000 
     34 NZ        -24.6726   35.4960   -8.3309 N.2       3 LYS4        0.0000 
     35 CZ        -24.1908   33.7530   -9.4398 C.ar      4 PHE5        0.0000 
     36 CZ        -24.4540   35.1894   -9.7828 C.ar      4 PHE5        0.0000 
     37 NZ        -24.7173   36.6257  -10.1258 N.2       3 LYS4        0.0000 
     38 NZ        -24.9805   38.0620  -10.4688 N.2       3 LYS4        0.0000 
     39 CZ        -24.2354   34.8827  -11.2348 C.ar      4 PHE5        0.0000 
     40 CZ        -24.4986   36.3190  -11.5778 C.ar      4 PHE5        0.0000 
     41 O         -24.7619   37.7554  -11.9208 O.2       2 ALA2        0.0000 
     42 CZ        -24.2800   36.0124  -13.0297 C.ar      4 PHE5        0.0000 
     43 CZ        -14.4197   30.9662   -8.9296 C.ar      4 PHE5        0.0000 
     44 O         -14.6830   32.4025   -9.2726 O.2       2 ALA2        0.0000 
     45 CA        -14.9462   33.8388   -9.6156 C.3       5 GLY6        0.0000 
     46 NZ        -26.1331   35.1912   -8.4864 N.2       3 LYS4        0.0000 
     47 CZ        -25.9145   34.8846   -9.9384 C.ar      4 PHE5        0.0000 
     48 CZ        -26.1777   36.3209  -10.2814 C.ar      4 PHE5        0.0000 
     49 CZ        -26.4409   37.7572  -10.6244 C.ar      4 PHE5        0.0000 
     50 CZ        -18.7416   34.4559   -4.1188 C.ar      4 PHE5        0.0000 
     51 CZ        -19.0049   35.8922   -4.4618 C.ar      4 PHE5        0.0000 
     52 CZ        -19.2681   37.3285   -4.8048 C.ar      4 PHE5        0.0000 
     53 NZ        -19.5314   38.7649   -5.1478 N.2       3 LYS4        0.0000 
     54 OG        -18.2598   32.7129   -5.2278 O.2       1 SER1        0.0000 
     55 CZ        -18.5230   34.1492   -5.5708 C.ar      4 PHE5        0.0000 
     56 CZ        -18.7862   35.5855   -5.9138 C.ar      4 PHE5        0.0000 
     57 NZ        -19.0495   37.0219   -6.2568 N.2       3 LYS4        0.0000 
     58 OG        -17.5146   29.5336   -5.9938 O.2       1 SER1        0.0000 
     59 CZ        -18.0411   32.4062   -6.6797 C.ar      4 PHE5        0.0000 
     60 CZ        -18.3044   33.8426   -7.0227 C.ar      4 PHE5        0.0000 
     61 CZ        -18.5676   35.2789   -7.3657 C.ar      4 PHE5        0.0000 
     62 NZ        -18.8309   36.7152   -7.7087 N.2       3 LYS4        0.0000 
     63 OG        -17.2960   29.2269   -7.4457 O.2       1 SER1        0.0000 
     64 OG        -17.5593   30.6632   -7.7887 O.2       1 SER1        0.0000 
     65 OG        -18.0857   33.5359   -8.4747 O.2       1 SER1        0.0000 
     66 OG        -18.3490   34.9722   -8.8177 O.2       1 SER1        0.0000 
     67 NZ        -18.6122   36.4086   -9.1607 N.2       3 LYS4        0.0000 
     68 NZ        -18.8755   37.8449   -9.5037 N.2       3 LYS4        0.0000 
     69 OG        -17.0774   28.9202   -8.8977 O.2       1 SER1        0.0000 
     70 CZ        -18.1304   34.6656  -10.2696 C.ar      4 PHE5        0.0000 
     71 DU        -18.3936   36.1019  -10.6126 H         6 CUB7        0.0000 
     72 DU        -18.6568   37.5382  -10.9556 H         6 CUB7        0.0000 
     73 CZ        -16.8588   28.6136  -10.3496 C.ar      4 PHE5        0.0000 
     74 CZ        -18.1750   35.7952  -12.0646 C.ar      4 PHE5        0.0000 
     75 NZ        -18.4382   37.2316  -12.4076 N.2       3 LYS4        0.0000 
     76 NZ        -18.7015   38.6679  -12.7506 N.2       3 LYS4        0.0000 
     77 CZ        -22.9490   34.3645   -7.8323 C.ar      4 PHE5        0.0000 
     78 NZ        -23.2122   35.8008   -8.1753 N.2       3 LYS4        0.0000 
     79 CZ        -22.7303   34.0578   -9.2843 C.ar      4 PHE5        0.0000 
     80 NZ        -22.9936   35.4942   -9.6273 N.2       3 LYS4        0.0000 
     81 NZ        -23.2568   36.9305   -9.9703 N.2       3 LYS4        0.0000 
     82 CZ        -22.7749   35.1875  -11.0792 C.ar      4 PHE5        0.0000 
     83 DU        -23.0382   36.6238  -11.4222 H         6 CUB7        0.0000 
     84 O         -23.3014   38.0602  -11.7652 O.2       2 ALA2        0.0000 
     85 CZ        -22.5563   34.8808  -12.5312 C.ar      4 PHE5        0.0000 
     86 NZ        -22.8195   36.3172  -12.8742 N.2       3 LYS4        0.0000 
     87 NZ        -23.0828   37.7535  -13.2172 N.2       3 LYS4        0.0000 
     88 CA        -20.2169   28.6173   -7.7568 C.3       5 GLY6        0.0000 
     89 CZ        -21.2699   34.3626   -9.1288 C.ar      4 PHE5        0.0000 
     90 NZ        -21.5331   35.7990   -9.4718 N.2       3 LYS4        0.0000 
     91 CA        -19.9983   28.3106   -9.2087 C.3       5 GLY6        0.0000 
     92 CZ        -21.0512   34.0560  -10.5807 C.ar      4 PHE5        0.0000 
     93 CZ        -21.3145   35.4923  -10.9237 C.ar      4 PHE5        0.0000 
     94 NZ        -21.5777   36.9286  -11.2667 N.2       3 LYS4        0.0000 
     95 NZ        -21.8410   38.3650  -11.6097 N.2       3 LYS4        0.0000 
     96 O         -22.1042   39.8013  -11.9527 O.2       2 ALA2        0.0000 
     97 CZ        -21.0959   35.1856  -12.3757 C.ar      4 PHE5        0.0000 
     98 CA        -20.8772   34.8790  -13.8276 C.3       5 GLY6        0.0000 
     99 CA        -14.8868   38.2429   -4.3382 C.3       5 GLY6        0.0000 
    100 CA        -14.1863   36.1933   -6.8991 C.3       5 GLY6        0.0000 
    101 O         -13.7044   34.4503   -8.0081 O.2       2 ALA2        0.0000 
    102 CA        -13.9676   35.8866   -8.3511 C.3       5 GLY6        0.0000 
    103 CA        -16.0840   36.5018   -4.1508 C.3       5 GLY6        0.0000 
    104 CA        -16.3472   37.9381   -4.4938 C.3       5 GLY6        0.0000 
    105 CA        -15.8654   36.1952   -5.6027 C.3       5 GLY6        0.0000 
    106 CA        -16.1286   37.6315   -5.9457 C.3       5 GLY6        0.0000 
    107 CA        -15.1202   33.0158   -6.3687 C.3       5 GLY6        0.0000 
    108 CA        -15.3835   34.4522   -6.7117 C.3       5 GLY6        0.0000 
    109 CA        -15.6467   35.8885   -7.0547 C.3       5 GLY6        0.0000 
    110 DU        -15.9100   37.3248   -7.3977 H         6 CUB7        0.0000 
    111 CZ        -14.6384   31.2728   -7.4776 C.ar      4 PHE5        0.0000 
    112 CZ        -14.9016   32.7092   -7.8206 C.ar      4 PHE5        0.0000 
    113 CA        -15.1648   34.1455   -8.1636 C.3       5 GLY6        0.0000 
    114 DU        -15.4281   35.5818   -8.5066 H         6 CUB7        0.0000 
    115 CZ        -17.9563   35.4886  -13.5165 C.ar      4 PHE5        0.0000 
    116 NZ        -18.2196   36.9249  -13.8595 N.2       3 LYS4        0.0000 
    117 NZ        -18.4828   38.3613  -14.2025 N.2       3 LYS4        0.0000 
    118 OG        -18.7565   28.9221   -7.6012 O.2       1 SER1        0.0000 
    119 CZ        -19.8094   34.6674   -8.9732 C.ar      4 PHE5        0.0000 
    120 NZ        -20.0727   36.1038   -9.3162 N.2       3 LYS4        0.0000 
    121 OG        -18.5378   28.6154   -9.0532 O.2       1 SER1        0.0000 
    122 CZ        -19.5908   34.3608  -10.4252 C.ar      4 PHE5        0.0000 
    123 CZ        -19.8540   35.7971  -10.7682 C.ar      4 PHE5        0.0000 
    124 NZ        -20.1173   37.2334  -11.1112 N.2       3 LYS4        0.0000 
    125 NZ        -20.3805   38.6698  -11.4542 N.2       3 LYS4        0.0000 
    126 CZ        -18.3192   28.3088  -10.5051 C.ar      4 PHE5        0.0000 
    127 CZ        -19.6354   35.4904  -12.2201 C.ar      4 PHE5        0.0000 
    128 NZ        -19.8987   36.9268  -12.5631 N.2       3 LYS4        0.0000 
    129 NZ        -20.4251   39.7994  -13.2491 N.2       3 LYS4        0.0000 
    130 CZ        -19.4168   35.1838  -13.6721 C.ar      4 PHE5        0.0000 
@<TRIPOS>BOND
@<TRIPOS>SUBSTRUCTURE
     1 SER1       21 GROUP   
     2 ALA2        5 GROUP   
     3 LYS4       17 GROUP   
     4 PHE5        2 GROUP   
     5 GLY6        1 GROUP   
     6 CUB7       16 GROUP   
@<TRIPOS>SET

