#    Name: 4azi_OAN_1_INTS_M
#    Modification time : Tue Mar 25 06:23:55 2014

@<TRIPOS>MOLECULE
4azi_OAN_1_INTS_M
   66     0     9     0     0
SMALL
NO_CHARGES


@<TRIPOS>ATOM
      1 CA        -26.3585   36.3420   -6.2990 C.3       3 GLC5        0.0000 
      2 CA        -26.1750   34.9190   -7.4960 C.3       9 GLL5        0.0000 
      3 CA        -26.5420   37.7650   -5.1020 C.3       6 GLP5        0.0000 
      4 CA        -27.7420   34.8645   -6.4310 C.3       3 GLC5        0.0000 
      5 CA        -29.3090   34.8100   -5.3660 C.3       6 GLP5        0.0000 
      6 CA        -25.8020   33.5465   -6.2090 C.3       3 GLC5        0.0000 
      7 CA        -25.4290   32.1740   -4.9220 C.3       6 GLP5        0.0000 
      8 CA        -27.1645   34.8085   -9.4230 C.3       3 GLC5        0.0000 
      9 CA        -28.1540   34.6980  -11.3500 C.3       6 GLP5        0.0000 
     10 N         -25.1600   32.7930   -9.2055 N.am      2 SEC2        0.0000 
     11 N         -24.8670   34.0550   -9.3090 N.am      8 SEL2        0.0000 
     12 N         -25.4530   31.5310   -9.1020 N.am      5 SEP2        0.0000 
     13 O         -25.5655   37.2305   -8.1565 O.2       1 ALC1        0.0000 
     14 O         -24.6960   36.2680   -8.8720 O.2       7 ALL1        0.0000 
     15 O         -26.4350   38.1930   -7.4410 O.2       4 ALP1        0.0000 
     16 CA        -25.9255   36.2635  -12.3565 C.3       3 GLC5        0.0000 
     17 CA        -24.4930   36.8620  -11.2490 C.3       9 GLL5        0.0000 
     18 CA        -27.3580   35.6650  -13.4640 C.3       6 GLP5        0.0000 
     19 N         -25.3855   38.6430  -12.8450 N.am      2 SEC2        0.0000 
     20 N         -25.0150   38.1970  -11.2590 N.am      8 SEL2        0.0000 
     21 N         -25.7560   39.0890  -14.4310 N.am      5 SEP2        0.0000 
     22 N         -24.8055   39.2910  -12.0955 N.am      2 SEC2        0.0000 
     23 N         -24.5960   40.3850  -12.9320 N.am      5 SEP2        0.0000 
     24 O         -26.0890   38.3115  -10.5850 O.2       1 ALC1        0.0000 
     25 O         -25.0150   38.1970  -11.2590 O.2       7 ALL1        0.0000 
     26 O         -27.1630   38.4260   -9.9110 O.2       4 ALP1        0.0000 
     27 CA        -25.0890   35.5880  -13.0675 C.3       3 GLC5        0.0000 
     28 CA        -23.5870   36.6550  -12.4540 C.3       9 GLL5        0.0000 
     29 CA        -26.5910   34.5210  -13.6810 C.3       6 GLP5        0.0000 
     30 N         -25.0565   38.0050  -14.0245 N.am      2 SEC2        0.0000 
     31 N         -24.3570   36.9210  -13.6180 N.am      8 SEL2        0.0000 
     32 O         -23.6765   37.1370  -14.6890 O.2       1 ALC1        0.0000 
     33 O         -24.3570   36.9210  -13.6180 O.2       7 ALL1        0.0000 
     34 O         -22.9960   37.3530  -15.7600 O.2       4 ALP1        0.0000 
     35 CA        -23.3575   33.4115  -11.5600 C.3       3 GLC5        0.0000 
     36 CA        -23.1000   35.1980  -12.4790 C.3       9 GLL5        0.0000 
     37 CA        -23.6150   31.6250  -10.6410 C.3       6 GLP5        0.0000 
     38 CA        -22.5520   33.0055  -12.6965 C.3       3 GLC5        0.0000 
     39 CA        -22.1340   34.8640  -13.6200 C.3       9 GLL5        0.0000 
     40 CA        -22.9700   31.1470  -11.7730 C.3       6 GLP5        0.0000 
     41 CA        -21.0185   34.7440  -15.0795 C.3       3 GLC5        0.0000 
     42 CA        -19.9030   34.6240  -16.5390 C.3       6 GLP5        0.0000 
     43 CA        -20.7660   33.5830  -13.6030 C.3       3 GLC5        0.0000 
     44 CA        -19.3980   32.3020  -13.5860 C.3       6 GLP5        0.0000 
     45 O         -21.0120   36.7635  -14.1320 O.2       1 ALC1        0.0000 
     46 O         -20.9100   35.5890  -13.4650 O.2       7 ALL1        0.0000 
     47 O         -21.1140   37.9380  -14.7990 O.2       4 ALP1        0.0000 
     48 N         -20.0175   32.9265   -9.6930 N.am      2 SEC2        0.0000 
     49 N         -20.8320   34.4010   -9.3490 N.am      8 SEL2        0.0000 
     50 N         -19.2030   31.4520  -10.0370 N.am      5 SEP2        0.0000 
     51 N         -18.9725   32.6245   -9.4110 N.am      2 SEC2        0.0000 
     52 N         -18.7420   33.7970   -8.7850 N.am      8 SEL2        0.0000 
     53 O         -20.3475   36.9995   -7.8740 O.2       1 ALC1        0.0000 
     54 O         -19.5420   35.7810   -8.0270 O.2       7 ALL1        0.0000 
     55 O         -21.1530   38.2180   -7.7210 O.2       4 ALP1        0.0000 
     56 CA        -20.6385   37.6840   -5.9400 C.3       3 GLC5        0.0000 
     57 CA        -18.6970   36.5720   -5.9870 C.3       9 GLL5        0.0000 
     58 CA        -22.5800   38.7960   -5.8930 C.3       6 GLP5        0.0000 
     59 CA        -24.1495   34.5470  -13.9012 C.3       3 GLC5        0.0000 
     60 CA        -25.6820   34.0630  -14.7530 C.3       6 GLP5        0.0000 
     61 CA        -16.6222   38.9285   -5.1572 C.3       3 GLC5        0.0000 
     62 CA        -17.6310   36.9850   -5.1880 C.3       9 GLL5        0.0000 
     63 CA        -16.2610   40.8700   -4.8690 C.3       6 GLP5        0.0000 
     64 CA        -15.3712   35.2830   -5.1270 C.3       3 GLC5        0.0000 
     65 CA        -16.3360   36.9890   -5.7030 C.3       9 GLL5        0.0000 
     66 CA        -14.5210   33.7800   -3.8900 C.3       6 GLP5        0.0000 
@<TRIPOS>BOND
@<TRIPOS>SUBSTRUCTURE
     1 ALC1       13 GROUP        1 X    ALC  0     ROOT ALC X 1
     2 SEC2       10 GROUP        1 X    SEC  0     **** SEC X 2
     3 GLC5        1 GROUP        1 X    GLC  0     **** GLC X 6
     4 ALP1       15 GROUP        1 Y    ALP  0     ROOT ALP Y 8
     5 SEP2       12 GROUP        1 Y    SEP  0     **** SEP Y 9
     6 GLP5        3 GROUP        1 Y    GLP  0     **** GLP Y 13
     7 ALL1       14 GROUP        1 Z    ALL  0     ROOT ALL Z 15
     8 SEL2       11 GROUP        1 Z    SEL  0     **** SEL Z 16
     9 GLL5        2 GROUP        1 Z    GLL  0     **** GLL Z 20
@<TRIPOS>SET

