#    Name: 4azi_OAN_1_ligand
#    Modification time : Tue Mar 25 06:23:55 2014

@<TRIPOS>MOLECULE
4azi_OAN_1_ligand
   44    45     1     0     0
SMALL
NO_CHARGES


@<TRIPOS>ATOM
      1 CAH       -26.1750   34.9190   -7.4960 C.3       1 OAN2038     0.0000 
      2 CAG       -25.1780   35.0420   -8.6580 C.2       1 OAN2038     0.0000 
      3 OAN       -24.8670   34.0550   -9.3090 O.2       1 OAN2038     0.0000 
      4 NAI       -24.6960   36.2680   -8.8720 N.am      1 OAN2038     0.0000 
      5 CAB       -23.7380   36.6240   -9.9400 C.3       1 OAN2038     0.0000 
      6 CAC       -24.4930   36.8620  -11.2490 C.3       1 OAN2038     0.0000 
      7 OAJ       -25.0150   38.1970  -11.2590 O.3       1 OAN2038     0.0000 
      8 CAD       -23.5870   36.6550  -12.4540 C.3       1 OAN2038     0.0000 
      9 OAK       -24.3570   36.9210  -13.6180 O.3       1 OAN2038     0.0000 
     10 CAE       -23.1000   35.1980  -12.4790 C.3       1 OAN2038     0.0000 
     11 CAF       -22.1340   34.8640  -13.6200 C.3       1 OAN2038     0.0000 
     12 OAM       -20.9100   35.5890  -13.4650 O.3       1 OAN2038     0.0000 
     13 OAL       -22.4720   34.7930  -11.2330 O.3       1 OAN2038     0.0000 
     14 CAA       -22.6320   35.5610  -10.1120 C.2       1 OAN2038     0.0000 
     15 NAY       -21.7850   35.3510   -9.1270 N.2       1 OAN2038     0.0000 
     16 OAQ       -20.8320   34.4010   -9.3490 O.3       1 OAN2038     0.0000 
     17 CAP       -19.6470   34.6300   -8.7090 C.2       1 OAN2038     0.0000 
     18 OAR       -18.7420   33.7970   -8.7850 O.2       1 OAN2038     0.0000 
     19 NAO       -19.5420   35.7810   -8.0270 N.am      1 OAN2038     0.0000 
     20 CAS       -18.4790   36.1640   -7.3030 C.ar      1 OAN2038     0.0000 
     21 CAT       -18.6970   36.5720   -5.9870 C.ar      1 OAN2038     0.0000 
     22 CAU       -17.6310   36.9850   -5.1880 C.ar      1 OAN2038     0.0000 
     23 CAV       -16.3360   36.9890   -5.7030 C.ar      1 OAN2038     0.0000 
     24 CAW       -16.1070   36.5830   -7.0250 C.ar      1 OAN2038     0.0000 
     25 CAX       -17.1760   36.1730   -7.8270 C.ar      1 OAN2038     0.0000 
     26 H         -24.9864   37.0846   -8.2627 H         1 OAN2038     0.0000 
     27 H         -23.2454   37.5701   -9.6746 H         1 OAN2038     0.0000 
     28 H         -25.2999   36.1388  -11.3034 H         1 OAN2038     0.0000 
     29 H         -22.7472   37.2992  -12.3683 H         1 OAN2038     0.0000 
     30 H         -23.9965   34.5529  -12.6347 H         1 OAN2038     0.0000 
     31 H         -22.6360   35.1122  -14.5644 H         1 OAN2038     0.0000 
     32 H         -21.9673   33.7788  -13.6080 H         1 OAN2038     0.0000 
     33 H         -20.3860   36.4575   -8.0640 H         1 OAN2038     0.0000 
     34 H         -19.6529   36.5682   -5.6023 H         1 OAN2038     0.0000 
     35 H         -17.8007   37.2858   -4.2211 H         1 OAN2038     0.0000 
     36 H         -15.5485   37.2882   -5.1180 H         1 OAN2038     0.0000 
     37 H         -15.1534   36.5874   -7.4027 H         1 OAN2038     0.0000 
     38 H         -17.0126   35.8796   -8.7938 H         1 OAN2038     0.0000 
     39 H         -25.8457   34.2935   -6.7887 H         1 OAN2038     0.0000 
     40 H         -26.3405   35.8005   -7.0537 H         1 OAN2038     0.0000 
     41 H         -27.0620   34.5738   -7.8027 H         1 OAN2038     0.0000 
     42 H         -26.0070   38.0874  -11.1963 H         1 OAN2038     0.0000 
     43 H         -23.7826   37.5189  -14.1771 H         1 OAN2038     0.0000 
     44 H         -21.0329   36.4223  -14.0039 H         1 OAN2038     0.0000 
@<TRIPOS>BOND
     1    2    1 1    
     2   39    1 1    
     3   40    1 1    
     4   41    1 1    
     5    3    2 2    
     6    4    2 am   
     7    5    4 1    
     8   26    4 1    
     9    6    5 1    
    10   14    5 1    
    11   27    5 1    
    12    7    6 1    
    13    8    6 1    
    14   28    6 1    
    15   42    7 1    
    16    9    8 1    
    17   10    8 1    
    18   29    8 1    
    19   43    9 1    
    20   11   10 1    
    21   13   10 1    
    22   30   10 1    
    23   12   11 1    
    24   31   11 1    
    25   32   11 1    
    26   44   12 1    
    27   14   13 1    
    28   15   14 2    
    29   16   15 1    
    30   17   16 1    
    31   18   17 2    
    32   19   17 am   
    33   20   19 1    
    34   33   19 1    
    35   21   20 ar   
    36   25   20 ar   
    37   22   21 ar   
    38   34   21 1    
    39   23   22 ar   
    40   35   22 1    
    41   24   23 ar   
    42   36   23 1    
    43   25   24 ar   
    44   37   24 1    
    45   38   25 1    
@<TRIPOS>SUBSTRUCTURE
     1 OAN2038     1 GROUP   
@<TRIPOS>SET

