#    Name: 1kgl_RTL_1_INTS_M
#    Modification time : Tue Mar 25 10:00:01 2014

@<TRIPOS>MOLECULE
1kgl_RTL_1_INTS_M
   74     0     3     0     0
SMALL
NO_CHARGES


@<TRIPOS>ATOM
      1 CA        -19.2735   10.9420  -21.5790 C.3       1 GLC5        0.0000 
      2 CA        -20.4880    9.3030  -21.4620 C.3       3 GLL5        0.0000 
      3 CA        -18.0590   12.5810  -21.6960 C.3       2 GLP5        0.0000 
      4 CA        -22.5440   11.5540  -19.9415 C.3       1 GLC5        0.0000 
      5 CA        -21.8500    9.9940  -21.2500 C.3       3 GLL5        0.0000 
      6 CA        -23.2380   13.1140  -18.6330 C.3       2 GLP5        0.0000 
      7 CA        -17.8795    7.3245  -17.6680 C.3       1 GLC5        0.0000 
      8 CA        -19.8880    6.3360  -17.7450 C.3       3 GLL5        0.0000 
      9 CA        -15.8710    8.3130  -17.5910 C.3       2 GLP5        0.0000 
     10 CA        -17.1390    6.8970  -16.8670 C.3       1 GLC5        0.0000 
     11 CA        -18.4070    5.4810  -16.1430 C.3       3 GLL5        0.0000 
     12 CA        -17.7645    2.7200  -15.8325 C.3       1 GLC5        0.0000 
     13 CA        -17.8190    4.5770  -15.3070 C.3       3 GLL5        0.0000 
     14 CA        -17.7100    0.8630  -16.3580 C.3       2 GLP5        0.0000 
     15 CA        -16.2525    6.9410  -15.3530 C.3       1 GLC5        0.0000 
     16 CA        -16.7810    4.9370  -14.5070 C.3       3 GLL5        0.0000 
     17 CA        -15.7240    8.9450  -16.1990 C.3       2 GLP5        0.0000 
     18 CA        -13.9075    5.9825  -12.2565 C.3       1 GLC5        0.0000 
     19 CA        -15.3650    4.6750  -12.5490 C.3       3 GLL5        0.0000 
     20 CA        -12.4500    7.2900  -11.9640 C.3       2 GLP5        0.0000 
     21 CA        -13.1700    4.7250  -10.4765 C.3       1 GLC5        0.0000 
     22 CA        -14.6320    4.0680  -11.3850 C.3       3 GLL5        0.0000 
     23 CA        -11.7080    5.3820   -9.5680 C.3       2 GLP5        0.0000 
     24 CA        -14.4410    2.8495  -10.1060 C.3       1 GLC5        0.0000 
     25 CA        -14.2500    1.6310   -8.8270 C.3       2 GLP5        0.0000 
     26 CA        -17.7090    8.9445  -18.3605 C.3       1 GLC5        0.0000 
     27 CA        -19.5470    9.5760  -19.1300 C.3       3 GLL5        0.0000 
     28 CA        -18.8030   11.0785  -20.4130 C.3       1 GLC5        0.0000 
     29 CA        -19.6340    9.7205  -16.9170 C.3       1 GLC5        0.0000 
     30 CA        -19.7210    9.8650  -14.7040 C.3       2 GLP5        0.0000 
     31 CA        -16.9340    7.8050  -21.0140 C.3       1 GLC5        0.0000 
     32 CA        -18.7550    7.7400  -20.6470 C.3       3 GLL5        0.0000 
     33 CA        -15.1130    7.8700  -21.3810 C.3       2 GLP5        0.0000 
     34 CA        -17.3130    8.0265  -19.1190 C.3       1 GLC5        0.0000 
     35 CA        -25.2505    6.5390  -20.4260 C.3       1 GLC5        0.0000 
     36 CA        -23.6390    7.1050  -19.2610 C.3       3 GLL5        0.0000 
     37 CA        -26.8620    5.9730  -21.5910 C.3       2 GLP5        0.0000 
     38 CA        -24.9560    8.0435  -17.8150 C.3       1 GLC5        0.0000 
     39 CA        -26.2730    8.9820  -16.3690 C.3       2 GLP5        0.0000 
     40 CA        -24.6120    6.1415  -17.9675 C.3       1 GLC5        0.0000 
     41 CA        -25.5850    5.1780  -16.6740 C.3       2 GLP5        0.0000 
     42 CA        -21.1020    4.3345  -15.8750 C.3       1 GLC5        0.0000 
     43 CA        -20.0280    3.8230  -17.1950 C.3       3 GLL5        0.0000 
     44 CA        -22.1760    4.8460  -14.5550 C.3       2 GLP5        0.0000 
     45 CA        -18.8690    2.3430  -16.7765 C.3       1 GLC5        0.0000 
     46 CA        -16.5960    1.1960  -12.0280 C.3       1 GLC5        0.0000 
     47 CA        -16.3940    2.5410  -13.4250 C.3       3 GLL5        0.0000 
     48 CA        -16.7980   -0.1490  -10.6310 C.3       2 GLP5        0.0000 
     49 CA        -14.9415    2.1565  -14.9815 C.3       1 GLC5        0.0000 
     50 CA        -13.4890    1.7720  -16.5380 C.3       2 GLP5        0.0000 
     51 CA        -17.0520    1.7020  -14.8915 C.3       1 GLC5        0.0000 
     52 CA        -21.1765   10.1277  -23.1145 C.3       1 GLC5        0.0000 
     53 CA        -21.1840   10.6070  -24.8730 C.3       2 GLP5        0.0000 
     54 CA        -23.5685   10.8090  -21.7497 C.3       1 GLC5        0.0000 
     55 CA        -24.7530   12.1380  -22.4660 C.3       2 GLP5        0.0000 
     56 CA        -20.2112    4.7515  -19.5222 C.3       1 GLC5        0.0000 
     57 CA        -20.8050    6.3480  -18.7500 C.3       3 GLL5        0.0000 
     58 CA        -20.0760    3.1610  -20.7970 C.3       2 GLP5        0.0000 
     59 CA        -21.7407    5.8190  -16.9573 C.3       1 GLC5        0.0000 
     60 CA        -23.1350    5.2960  -15.6670 C.3       2 GLP5        0.0000 
     61 CA        -19.9065    3.8493  -18.9518 C.3       1 GLC5        0.0000 
     62 CA        -19.4460    5.2520  -17.0180 C.3       3 GLL5        0.0000 
     63 CA        -19.0753    6.5343  -15.0237 C.3       1 GLC5        0.0000 
     64 CA        -19.2240    7.7020  -13.4670 C.3       2 GLP5        0.0000 
     65 CA        -20.2744    4.9089  -15.2494 C.3       1 GLC5        0.0000 
     66 CA        -18.1388    5.5475  -13.3715 C.3       1 GLC5        0.0000 
     67 CA        -16.1370    4.0410  -13.4490 C.3       3 GLL5        0.0000 
     68 CA        -19.5590    6.6960  -12.5650 C.3       2 GLP5        0.0000 
     69 CA        -14.3365    5.0050  -14.2803 C.3       1 GLC5        0.0000 
     70 CA        -12.7610    5.4280  -15.2970 C.3       2 GLP5        0.0000 
     71 CA        -16.2503    4.6835  -11.0195 C.3       1 GLC5        0.0000 
     72 CA        -17.3090    5.1540   -9.8470 C.3       2 GLP5        0.0000 
     73 CA        -23.0156    6.8098  -21.6392 C.3       1 GLC5        0.0000 
     74 CA        -22.8680    5.8570  -23.4850 C.3       2 GLP5        0.0000 
@<TRIPOS>BOND
@<TRIPOS>SUBSTRUCTURE
     1 GLC5        1 GROUP        1 X    GLC  0     ROOT GLC X 6
     2 GLP5        3 GROUP        1 Y    GLP  0     ROOT GLP Y 13
     3 GLL5        2 GROUP        1 Z    GLL  0     ROOT GLL Z 20
@<TRIPOS>SET

