#    Name: 1kgl_RTL_1_ligand
#    Modification time : Tue Mar 25 10:00:01 2014

@<TRIPOS>MOLECULE
1kgl_RTL_1_ligand
   51    51     1     0     0
SMALL
NO_CHARGES


@<TRIPOS>ATOM
      1 C1        -20.0060    8.5290  -20.1860 C.3       1 RTL175      0.0000 
      2 C2        -20.4880    9.3030  -21.4620 C.3       1 RTL175      0.0000 
      3 C3        -21.8500    9.9940  -21.2500 C.3       1 RTL175      0.0000 
      4 C4        -22.9180    8.9660  -20.8170 C.3       1 RTL175      0.0000 
      5 C5        -22.4570    7.8740  -19.8350 C.2       1 RTL175      0.0000 
      6 C6        -21.1400    7.6010  -19.5990 C.2       1 RTL175      0.0000 
      7 C7        -20.8050    6.3480  -18.7500 C.2       1 RTL175      0.0000 
      8 C8        -19.8880    6.3360  -17.7450 C.2       1 RTL175      0.0000 
      9 C9        -19.4460    5.2520  -17.0180 C.2       1 RTL175      0.0000 
     10 C10       -18.4070    5.4810  -16.1430 C.2       1 RTL175      0.0000 
     11 C11       -17.8190    4.5770  -15.3070 C.2       1 RTL175      0.0000 
     12 C12       -16.7810    4.9370  -14.5070 C.2       1 RTL175      0.0000 
     13 C13       -16.1370    4.0410  -13.4490 C.2       1 RTL175      0.0000 
     14 C14       -15.3650    4.6750  -12.5490 C.2       1 RTL175      0.0000 
     15 C15       -14.6320    4.0680  -11.3850 C.3       1 RTL175      0.0000 
     16 O1        -13.4470    3.4410  -11.8440 O.3       1 RTL175      0.0000 
     17 C16       -19.5470    9.5760  -19.1300 C.3       1 RTL175      0.0000 
     18 C17       -18.7550    7.7400  -20.6470 C.3       1 RTL175      0.0000 
     19 C18       -23.6390    7.1050  -19.2610 C.3       1 RTL175      0.0000 
     20 C19       -20.0280    3.8230  -17.1950 C.3       1 RTL175      0.0000 
     21 C20       -16.3940    2.5410  -13.4250 C.3       1 RTL175      0.0000 
     22 H         -20.5661    8.5933  -22.2850 H         1 RTL175      0.0000 
     23 H         -19.7373   10.0516  -21.7136 H         1 RTL175      0.0000 
     24 H         -22.1617   10.4605  -22.1778 H         1 RTL175      0.0000 
     25 H         -21.7507   10.7493  -20.4785 H         1 RTL175      0.0000 
     26 H         -23.3230    8.4762  -21.7273 H         1 RTL175      0.0000 
     27 H         -23.7695    9.5148  -20.3627 H         1 RTL175      0.0000 
     28 H         -21.3520    5.5083  -19.0226 H         1 RTL175      0.0000 
     29 H         -19.4460    7.2961  -17.4779 H         1 RTL175      0.0000 
     30 H         -18.0166    6.4932  -16.1196 H         1 RTL175      0.0000 
     31 H         -18.1734    3.5949  -15.2833 H         1 RTL175      0.0000 
     32 H         -16.3415    5.8886  -14.5693 H         1 RTL175      0.0000 
     33 H         -15.2185    5.7361  -12.6191 H         1 RTL175      0.0000 
     34 H         -15.3049    3.3524  -10.8914 H         1 RTL175      0.0000 
     35 H         -14.4146    4.8672  -10.6621 H         1 RTL175      0.0000 
     36 H         -19.2266    9.1396  -18.2892 H         1 RTL175      0.0000 
     37 H         -18.7966   10.1425  -19.4705 H         1 RTL175      0.0000 
     38 H         -20.2892   10.1954  -18.8742 H         1 RTL175      0.0000 
     39 H         -18.0365    8.3477  -20.9854 H         1 RTL175      0.0000 
     40 H         -18.3586    7.2039  -19.9017 H         1 RTL175      0.0000 
     41 H         -18.9702    7.1010  -21.3855 H         1 RTL175      0.0000 
     42 H         -23.3445    6.3915  -18.6252 H         1 RTL175      0.0000 
     43 H         -24.2639    7.7040  -18.7603 H         1 RTL175      0.0000 
     44 H         -24.1736    6.6567  -19.9774 H         1 RTL175      0.0000 
     45 H         -19.9046    3.4846  -18.1279 H         1 RTL175      0.0000 
     46 H         -19.5885    3.1647  -16.5839 H         1 RTL175      0.0000 
     47 H         -21.0084    3.7945  -17.0002 H         1 RTL175      0.0000 
     48 H         -16.1003    2.1003  -14.2732 H         1 RTL175      0.0000 
     49 H         -15.9049    2.0923  -12.6770 H         1 RTL175      0.0000 
     50 H         -17.3649    2.3324  -13.3072 H         1 RTL175      0.0000 
     51 H         -12.7203    4.1072  -11.6765 H         1 RTL175      0.0000 
@<TRIPOS>BOND
     1    2    1 1    
     2    6    1 1    
     3   17    1 1    
     4   18    1 1    
     5    3    2 1    
     6   22    2 1    
     7   23    2 1    
     8    4    3 1    
     9   24    3 1    
    10   25    3 1    
    11    5    4 1    
    12   26    4 1    
    13   27    4 1    
    14    6    5 2    
    15   19    5 1    
    16    7    6 1    
    17    8    7 2    
    18   28    7 1    
    19    9    8 1    
    20   29    8 1    
    21   10    9 2    
    22   20    9 1    
    23   11   10 1    
    24   30   10 1    
    25   12   11 2    
    26   31   11 1    
    27   13   12 1    
    28   32   12 1    
    29   14   13 2    
    30   21   13 1    
    31   15   14 1    
    32   33   14 1    
    33   16   15 1    
    34   34   15 1    
    35   35   15 1    
    36   51   16 1    
    37   36   17 1    
    38   37   17 1    
    39   38   17 1    
    40   39   18 1    
    41   40   18 1    
    42   41   18 1    
    43   42   19 1    
    44   43   19 1    
    45   44   19 1    
    46   45   20 1    
    47   46   20 1    
    48   47   20 1    
    49   48   21 1    
    50   49   21 1    
    51   50   21 1    
@<TRIPOS>SUBSTRUCTURE
     1 RTL175      1 GROUP   
@<TRIPOS>SET

