#    Name: 3dbs_GD9_1_INTS_M
#    Modification time : Mon Mar 24 23:03:21 2014

@<TRIPOS>MOLECULE
3dbs_GD9_1_INTS_M
   84     0     9     0     0
SMALL
NO_CHARGES


@<TRIPOS>ATOM
      1 N          18.5930   58.7745   24.8080 N.am      2 SEC2        0.0000 
      2 N          19.6860   59.5250   24.4390 N.am      8 SEL2        0.0000 
      3 N          17.5000   58.0240   25.1770 N.am      5 SEP2        0.0000 
      4 CA         20.8840   67.9920   23.0395 C.3       3 GLC5        0.0000 
      5 CA         20.6910   66.7430   21.2780 C.3       9 GLL5        0.0000 
      6 CA         21.0770   69.2410   24.8010 C.3       6 GLP5        0.0000 
      7 CA         27.3525   62.2690   21.7550 C.3       3 GLC5        0.0000 
      8 CA         25.6090   61.4690   20.6670 C.3       9 GLL5        0.0000 
      9 CA         29.0960   63.0690   22.8430 C.3       6 GLP5        0.0000 
     10 CA         17.9945   64.1675   18.3310 C.3       3 GLC5        0.0000 
     11 CA         18.8850   66.2070   18.2080 C.3       9 GLL5        0.0000 
     12 CA         17.1040   62.1280   18.4540 C.3       6 GLP5        0.0000 
     13 CA         17.9585   64.3290   19.7535 C.3       3 GLC5        0.0000 
     14 CA         18.9810   66.1720   19.7140 C.3       9 GLL5        0.0000 
     15 CA         16.9360   62.4860   19.7930 C.3       6 GLP5        0.0000 
     16 CA         18.5910   69.6415   14.3980 C.3       3 GLC5        0.0000 
     17 CA         17.2570   69.1770   15.8700 C.3       9 GLL5        0.0000 
     18 CA         19.9250   70.1060   12.9260 C.3       6 GLP5        0.0000 
     19 CA         21.4095   59.9450   21.4425 C.3       3 GLC5        0.0000 
     20 CA         21.9500   59.8880   23.5830 C.3       9 GLL5        0.0000 
     21 CA         20.8690   60.0020   19.3020 C.3       6 GLP5        0.0000 
     22 CA         23.4905   58.4625   24.3715 C.3       3 GLC5        0.0000 
     23 CA         25.0310   57.0370   25.1600 C.3       6 GLP5        0.0000 
     24 CA         22.7485   58.2880   22.6950 C.3       3 GLC5        0.0000 
     25 CA         23.5470   56.6880   21.8070 C.3       6 GLP5        0.0000 
     26 CA         22.1830   58.0370   25.7605 C.3       3 GLC5        0.0000 
     27 CA         21.0620   59.6020   24.7890 C.3       9 GLL5        0.0000 
     28 CA         23.3040   56.4720   26.7320 C.3       6 GLP5        0.0000 
     29 CA         19.3865   58.4790   23.8270 C.3       3 GLC5        0.0000 
     30 CA         17.7110   57.3560   22.8650 C.3       6 GLP5        0.0000 
     31 CA         20.0100   58.7190   26.3620 C.3       3 GLC5        0.0000 
     32 CA         18.9580   57.8360   27.9350 C.3       6 GLP5        0.0000 
     33 CA         21.2750   60.3385   26.6485 C.3       3 GLC5        0.0000 
     34 CA         21.4880   61.0750   28.5080 C.3       6 GLP5        0.0000 
     35 CA         22.6220   60.9955   20.1770 C.3       3 GLC5        0.0000 
     36 CA         24.3750   61.9890   21.0520 C.3       9 GLL5        0.0000 
     37 CA         24.5680   63.1590   22.5720 C.3       3 GLC5        0.0000 
     38 CA         24.7610   64.3290   24.0920 C.3       6 GLP5        0.0000 
     39 CA         29.0035   58.5205   19.3240 C.3       3 GLC5        0.0000 
     40 CA         28.0880   60.4370   19.9900 C.3       9 GLL5        0.0000 
     41 CA         29.9190   56.6040   18.6580 C.3       6 GLP5        0.0000 
     42 O          29.2230   58.7760   22.5730 O.2       1 ALC1        0.0000 
     43 O          27.8630   59.0900   22.0790 O.2       7 ALL1        0.0000 
     44 O          30.5830   58.4620   23.0670 O.2       4 ALP1        0.0000 
     45 N          26.6195   58.9925   24.3160 N.am      2 SEC2        0.0000 
     46 N          26.8030   59.0610   23.0310 N.am      8 SEL2        0.0000 
     47 N          26.4360   58.9240   25.6010 N.am      5 SEP2        0.0000 
     48 N          27.6240   60.2785   23.8265 N.am      2 SEC2        0.0000 
     49 N          28.4450   61.4960   24.6220 N.am      5 SEP2        0.0000 
     50 CA         18.0660   59.4045   25.1690 C.3       3 GLC5        0.0000 
     51 CA         19.2500   60.7430   23.8500 C.3       9 GLL5        0.0000 
     52 CA         16.8820   58.0660   26.4880 C.3       6 GLP5        0.0000 
     53 CA         20.1840   62.4080   24.7830 C.3       3 GLC5        0.0000 
     54 CA         21.1180   64.0730   25.7160 C.3       6 GLP5        0.0000 
     55 CA         18.4455   61.6875   21.1465 C.3       3 GLC5        0.0000 
     56 CA         19.9550   60.8890   22.5000 C.3       9 GLL5        0.0000 
     57 CA         20.4120   60.4455   20.9010 C.3       3 GLC5        0.0000 
     58 CA         21.5062   61.2270   20.6245 C.3       3 GLC5        0.0000 
     59 CA         22.2550   61.7810   22.1080 C.3       9 GLL5        0.0000 
     60 CA         21.6307   63.2625   23.8315 C.3       3 GLC5        0.0000 
     61 CA         20.3300   64.8960   23.5322 C.3       3 GLC5        0.0000 
     62 CA         21.3750   65.3980   21.3670 C.3       9 GLL5        0.0000 
     63 CA         19.6420   65.0590   25.3260 C.3       6 GLP5        0.0000 
     64 CA         23.3722   64.8152   22.6035 C.3       3 GLC5        0.0000 
     65 CA         25.7052   59.5998   19.7550 C.3       3 GLC5        0.0000 
     66 CA         25.4790   57.5080   19.4180 C.3       6 GLP5        0.0000 
     67 CA         19.8860   64.8622   18.1820 C.3       3 GLC5        0.0000 
     68 CA         20.8390   63.5350   17.4030 C.3       6 GLP5        0.0000 
     69 CA         22.9520   60.8185   25.1775 C.3       3 GLC5        0.0000 
     70 CA         24.3980   61.8920   26.1690 C.3       6 GLP5        0.0000 
     71 CA         21.6636   64.0501   19.2578 C.3       3 GLC5        0.0000 
     72 CA         22.9930   63.8290   21.1100 C.3       9 GLL5        0.0000 
     73 CA         23.6646   63.7347   22.8102 C.3       3 GLC5        0.0000 
     74 CA         27.3145   61.6900   17.4967 C.3       3 GLC5        0.0000 
     75 CA         26.2540   61.9140   19.5170 C.3       9 GLL5        0.0000 
     76 CA         27.7570   61.7320   15.6440 C.3       6 GLP5        0.0000 
     77 CA         26.6340   59.2087   19.5020 C.3       3 GLC5        0.0000 
     78 CA         27.4900   61.3820   19.1820 C.3       9 GLL5        0.0000 
     79 CA         28.4425   61.9892   21.2145 C.3       3 GLC5        0.0000 
     80 CA         26.1658   58.8908   20.3537 C.3       3 GLC5        0.0000 
     81 CA         27.4540   60.0120   21.1410 C.3       9 GLL5        0.0000 
     82 CA         28.1527   61.0213   22.4367 C.3       3 GLC5        0.0000 
     83 CA         29.4530   61.7690   23.5840 C.3       6 GLP5        0.0000 
     84 CA         18.6567   59.0860   23.0200 C.3       3 GLC5        0.0000 
@<TRIPOS>BOND
@<TRIPOS>SUBSTRUCTURE
     1 ALC1       42 GROUP        1 X    ALC  0     ROOT ALC X 1
     2 SEC2        1 GROUP        1 X    SEC  0     **** SEC X 2
     3 GLC5        4 GROUP        1 X    GLC  0     **** GLC X 6
     4 ALP1       44 GROUP        1 Y    ALP  0     ROOT ALP Y 8
     5 SEP2        3 GROUP        1 Y    SEP  0     **** SEP Y 9
     6 GLP5        6 GROUP        1 Y    GLP  0     **** GLP Y 13
     7 ALL1       43 GROUP        1 Z    ALL  0     ROOT ALL Z 15
     8 SEL2        2 GROUP        1 Z    SEL  0     **** SEL Z 16
     9 GLL5        5 GROUP        1 Z    GLL  0     **** GLL Z 20
@<TRIPOS>SET

