#    Name: 3dbs_GD9_1_ligand
#    Modification time : Mon Mar 24 23:03:22 2014

@<TRIPOS>MOLECULE
3dbs_GD9_1_ligand
   63    68     1     0     0
SMALL
NO_CHARGES


@<TRIPOS>ATOM
      1 O3         19.6860   59.5250   24.4390 O.3       1 GD91        0.0000 
      2 C4         22.2550   61.7810   22.1080 C.ar      1 GD91        0.0000 
      3 C5         21.3750   65.3980   21.3670 C.2       1 GD91        0.0000 
      4 C6         22.5920   65.2050   20.8630 C.2       1 GD91        0.0000 
      5 N1         24.1570   63.2850   20.7550 N.ar      1 GD91        0.0000 
      6 C7         20.6910   66.7430   21.2780 C.3       1 GD91        0.0000 
      7 C8         25.6090   61.4690   20.6670 C.ar      1 GD91        0.0000 
      8 N2         23.4480   61.2570   21.7200 N.ar      1 GD91        0.0000 
      9 C9         19.9210   68.3930   19.6720 C.3       1 GD91        0.0000 
     10 C10        19.5300   68.5240   18.1960 C.3       1 GD91        0.0000 
     11 C11        18.8850   66.2070   18.2080 C.3       1 GD91        0.0000 
     12 C12        18.9810   66.1720   19.7140 C.3       1 GD91        0.0000 
     13 N3         21.3800   60.9900   22.8100 N.3       1 GD91        0.0000 
     14 C13        17.2570   69.1770   15.8700 C.3       1 GD91        0.0000 
     15 C14        21.9500   59.8880   23.5830 C.3       1 GD91        0.0000 
     16 C15        21.0620   59.6020   24.7890 C.3       1 GD91        0.0000 
     17 N4         20.1610   66.9800   19.9550 N.4       1 GD91        0.0000 
     18 O2         19.2330   67.3420   15.4530 O.2       1 GD91        0.0000 
     19 S2         18.0130   67.5640   16.2420 S.o2      1 GD91        0.0000 
     20 O1         17.0380   66.4970   15.9810 O.2       1 GD91        0.0000 
     21 N5         18.4720   67.5550   17.8980 N.pl3     1 GD91        0.0000 
     22 S1         20.6610   64.0680   22.1100 S.3       1 GD91        0.0000 
     23 C2         22.9930   63.8290   21.1100 C.ar      1 GD91        0.0000 
     24 C1         22.0320   63.1230   21.7860 C.ar      1 GD91        0.0000 
     25 C3         24.3750   61.9890   21.0520 C.ar      1 GD91        0.0000 
     26 C18        26.2540   61.9140   19.5170 C.ar      1 GD91        0.0000 
     27 C19        27.4900   61.3820   19.1820 C.ar      1 GD91        0.0000 
     28 C20        28.0880   60.4370   19.9900 C.ar      1 GD91        0.0000 
     29 C21        27.4540   60.0120   21.1410 C.ar      1 GD91        0.0000 
     30 N6         27.8630   59.0900   22.0790 N.pl3     1 GD91        0.0000 
     31 C22        26.2510   60.5350   21.4380 C.ar      1 GD91        0.0000 
     32 C23        25.8280   59.9200   22.6520 C.2       1 GD91        0.0000 
     33 N7         26.8030   59.0610   23.0310 N.2       1 GD91        0.0000 
     34 C16        19.2500   60.7430   23.8500 C.3       1 GD91        0.0000 
     35 C17        19.9550   60.8890   22.5000 C.3       1 GD91        0.0000 
     36 H          23.1616   65.8187   20.4055 H         1 GD91        0.0000 
     37 H          21.4221   67.5210   21.5543 H         1 GD91        0.0000 
     38 H          19.8891   66.7731   22.0345 H         1 GD91        0.0000 
     39 H          19.1081   68.7820   20.2761 H         1 GD91        0.0000 
     40 H          20.8142   68.9849   19.8421 H         1 GD91        0.0000 
     41 H          20.4133   68.3363   17.5903 H         1 GD91        0.0000 
     42 H          19.1880   69.5414   18.0218 H         1 GD91        0.0000 
     43 H          18.1538   65.4852   17.8885 H         1 GD91        0.0000 
     44 H          19.8516   65.9832   17.7919 H         1 GD91        0.0000 
     45 H          19.1220   65.1665   20.0324 H         1 GD91        0.0000 
     46 H          18.1088   66.6169   20.1307 H         1 GD91        0.0000 
     47 H          22.9488   60.1394   23.9425 H         1 GD91        0.0000 
     48 H          22.0148   58.9812   22.9801 H         1 GD91        0.0000 
     49 H          21.4187   58.6590   25.2481 H         1 GD91        0.0000 
     50 H          21.2482   60.3992   25.5353 H         1 GD91        0.0000 
     51 H          20.9464   66.6290   19.2167 H         1 GD91        0.0000 
     52 H          25.8183   62.6275   18.9253 H         1 GD91        0.0000 
     53 H          27.9647   61.6981   18.3192 H         1 GD91        0.0000 
     54 H          29.0086   60.0475   19.7350 H         1 GD91        0.0000 
     55 H          28.6354   58.5928   22.1104 H         1 GD91        0.0000 
     56 H          25.0082   60.1065   23.0811 H         1 GD91        0.0000 
     57 H          19.5102   61.6093   24.4564 H         1 GD91        0.0000 
     58 H          18.1766   60.7501   23.6670 H         1 GD91        0.0000 
     59 H          19.7436   60.0180   21.9067 H         1 GD91        0.0000 
     60 H          19.5942   61.7801   22.0192 H         1 GD91        0.0000 
     61 H          17.8803   69.9337   16.0673 H         1 GD91        0.0000 
     62 H          16.9993   69.2531   14.9068 H         1 GD91        0.0000 
     63 H          16.4285   69.3318   16.4082 H         1 GD91        0.0000 
@<TRIPOS>BOND
     1   16    1 1    
     2   34    1 1    
     3    8    2 ar   
     4   13    2 1    
     5   24    2 ar   
     6    4    3 2    
     7    6    3 1    
     8   22    3 1    
     9   23    4 1    
    10   36    4 1    
    11   23    5 ar   
    12   25    5 ar   
    13   17    6 1    
    14   37    6 1    
    15   38    6 1    
    16   25    7 1    
    17   26    7 ar   
    18   31    7 ar   
    19   25    8 ar   
    20   10    9 1    
    21   17    9 1    
    22   39    9 1    
    23   40    9 1    
    24   21   10 1    
    25   41   10 1    
    26   42   10 1    
    27   12   11 1    
    28   21   11 1    
    29   43   11 1    
    30   44   11 1    
    31   17   12 1    
    32   45   12 1    
    33   46   12 1    
    34   15   13 1    
    35   35   13 1    
    36   19   14 1    
    37   61   14 1    
    38   62   14 1    
    39   63   14 1    
    40   16   15 1    
    41   47   15 1    
    42   48   15 1    
    43   49   16 1    
    44   50   16 1    
    45   51   17 1    
    46   19   18 2    
    47   20   19 2    
    48   21   19 1    
    49   24   22 1    
    50   24   23 ar   
    51   27   26 ar   
    52   52   26 1    
    53   28   27 ar   
    54   53   27 1    
    55   29   28 ar   
    56   54   28 1    
    57   30   29 1    
    58   31   29 ar   
    59   33   30 1    
    60   55   30 1    
    61   32   31 1    
    62   33   32 2    
    63   56   32 1    
    64   35   34 1    
    65   57   34 1    
    66   58   34 1    
    67   59   35 1    
    68   60   35 1    
@<TRIPOS>SUBSTRUCTURE
     1 GD91        1 GROUP   
@<TRIPOS>SET

