#    Name: 2zmh_NYA_1_INTS_M
#    Modification time : Tue Mar 25 10:50:48 2014

@<TRIPOS>MOLECULE
2zmh_NYA_1_INTS_M
  132     0     9     0     0
SMALL
NO_CHARGES


@<TRIPOS>ATOM
      1 CA          5.6565    7.6560   28.9465 C.3       3 GLC5        0.0000 
      2 CA          7.1190    6.3990   28.3450 C.3       9 GLL5        0.0000 
      3 CA          4.1940    8.9130   29.5480 C.3       6 GLP5        0.0000 
      4 CA          7.7075    7.7265   29.7665 C.3       3 GLC5        0.0000 
      5 CA          8.2960    9.0540   31.1880 C.3       6 GLP5        0.0000 
      6 CA          7.0425    1.5350   27.3065 C.3       3 GLC5        0.0000 
      7 CA          7.0260    3.6610   27.1130 C.3       9 GLL5        0.0000 
      8 CA          7.0590   -0.5910   27.5000 C.3       6 GLP5        0.0000 
      9 CA          6.5955    2.3995   25.3635 C.3       3 GLC5        0.0000 
     10 CA          6.1650    1.1380   23.6140 C.3       6 GLP5        0.0000 
     11 CA         15.2655    4.5325   30.5265 C.3       3 GLC5        0.0000 
     12 CA         14.7950    6.0870   29.3290 C.3       9 GLL5        0.0000 
     13 CA         15.7360    2.9780   31.7240 C.3       6 GLP5        0.0000 
     14 CA         16.5470    6.8690   29.2175 C.3       3 GLC5        0.0000 
     15 CA         18.2990    7.6510   29.1060 C.3       6 GLP5        0.0000 
     16 CA         15.4935    7.1720   23.2110 C.3       3 GLC5        0.0000 
     17 CA         15.9060    7.8840   25.0870 C.3       9 GLL5        0.0000 
     18 CA         15.0810    6.4600   21.3350 C.3       6 GLP5        0.0000 
     19 CA         17.1355   10.0990   26.4780 C.3       3 GLC5        0.0000 
     20 CA         15.3720    9.1590   25.7610 C.3       9 GLL5        0.0000 
     21 CA         18.8990   11.0390   27.1950 C.3       6 GLP5        0.0000 
     22 CA         16.7980   11.1765   25.5600 C.3       3 GLC5        0.0000 
     23 CA         15.0440   10.3800   24.9020 C.3       9 GLL5        0.0000 
     24 CA         18.5520   11.9730   26.2180 C.3       6 GLP5        0.0000 
     25 CA         11.6235    7.4585   24.6160 C.3       3 GLC5        0.0000 
     26 CA         12.9280    8.2690   25.6000 C.3       9 GLL5        0.0000 
     27 CA         10.3190    6.6480   23.6320 C.3       6 GLP5        0.0000 
     28 CA         16.2050   12.3175   26.1255 C.3       3 GLC5        0.0000 
     29 CA         14.7150   11.5710   25.7670 C.3       9 GLL5        0.0000 
     30 CA         17.6950   13.0640   26.4840 C.3       6 GLP5        0.0000 
     31 CA         13.7745    4.0610   26.2665 C.3       3 GLC5        0.0000 
     32 CA         13.0760    5.5770   27.6320 C.3       9 GLL5        0.0000 
     33 CA         14.4730    2.5450   24.9010 C.3       6 GLP5        0.0000 
     34 CA         14.7605   14.0940   17.1085 C.3       3 GLC5        0.0000 
     35 CA         14.3180   12.0260   17.2930 C.3       9 GLL5        0.0000 
     36 CA         15.2030   16.1620   16.9240 C.3       6 GLP5        0.0000 
     37 CA         12.8010   13.3020   18.0840 C.3       3 GLC5        0.0000 
     38 CA         11.2840   14.5780   18.8750 C.3       6 GLP5        0.0000 
     39 CA         10.4620    4.9155   30.3365 C.3       3 GLC5        0.0000 
     40 CA          8.9580    4.8090   29.0880 C.3       9 GLL5        0.0000 
     41 CA         11.9660    5.0220   31.5850 C.3       6 GLP5        0.0000 
     42 CA          8.3700    1.4435   27.6685 C.3       3 GLC5        0.0000 
     43 CA          8.5650    3.3820   27.0080 C.3       9 GLL5        0.0000 
     44 CA          8.1750   -0.4950   28.3290 C.3       6 GLP5        0.0000 
     45 CA          9.4680    2.3595   25.4755 C.3       3 GLC5        0.0000 
     46 CA         10.3710    1.3370   23.9430 C.3       6 GLP5        0.0000 
     47 CA         12.8860   10.6355   20.8940 C.3       3 GLC5        0.0000 
     48 CA         14.7920   10.2930   20.5310 C.3       9 GLL5        0.0000 
     49 CA         10.9800   10.9780   21.2570 C.3       6 GLP5        0.0000 
     50 CA         14.9365    8.3765   20.9330 C.3       3 GLC5        0.0000 
     51 CA         16.6050   10.3160   21.3070 C.3       3 GLC5        0.0000 
     52 CA         18.4180   10.3390   22.0830 C.3       6 GLP5        0.0000 
     53 CA         11.4545   11.6280   26.5540 C.3       3 GLC5        0.0000 
     54 CA         13.5170   11.2450   26.6890 C.3       9 GLL5        0.0000 
     55 CA          9.3920   12.0110   26.4190 C.3       6 GLP5        0.0000 
     56 CA         15.3465   12.2305   27.2320 C.3       3 GLC5        0.0000 
     57 CA         17.1760   13.2160   27.7750 C.3       6 GLP5        0.0000 
     58 CA         13.2190   13.3555   26.9910 C.3       3 GLC5        0.0000 
     59 CA         12.9210   15.4660   27.2930 C.3       6 GLP5        0.0000 
     60 CA         13.7415    8.8900   18.6885 C.3       3 GLC5        0.0000 
     61 CA         15.2650   10.4850   19.0780 C.3       9 GLL5        0.0000 
     62 CA         12.2180    7.2950   18.2990 C.3       6 GLP5        0.0000 
     63 CA         16.5890    9.3290   18.3545 C.3       3 GLC5        0.0000 
     64 CA         17.9130    8.1730   17.6310 C.3       6 GLP5        0.0000 
     65 CA         17.1915   10.6625   19.9470 C.3       3 GLC5        0.0000 
     66 CA         19.1180   10.8400   20.8160 C.3       6 GLP5        0.0000 
     67 CA         16.5295   13.3590   17.7255 C.3       3 GLC5        0.0000 
     68 CA         15.1860   13.0290   19.3720 C.3       9 GLL5        0.0000 
     69 CA         17.8730   13.6890   16.0790 C.3       6 GLP5        0.0000 
     70 CA         15.1945   14.5955   18.1480 C.3       3 GLC5        0.0000 
     71 CA         16.6025   14.5255   19.9620 C.3       3 GLC5        0.0000 
     72 CA         18.0190   16.0220   20.5520 C.3       6 GLP5        0.0000 
     73 N          11.5130    3.4415   29.5585 N.am      2 SEC2        0.0000 
     74 N          11.2150    3.0670   28.1720 N.am      8 SEL2        0.0000 
     75 N          11.8110    3.8160   30.9450 N.am      5 SEP2        0.0000 
     76 N          11.9860    2.1260   27.7855 N.am      2 SEC2        0.0000 
     77 N          12.7570    1.1850   27.3990 N.am      5 SEP2        0.0000 
     78 N          17.1330   14.0640   20.6525 N.am      2 SEC2        0.0000 
     79 N          16.5580   13.0340   19.7260 N.am      8 SEL2        0.0000 
     80 N          17.7080   15.0940   21.5790 N.am      5 SEP2        0.0000 
     81 O          17.2350   13.6140   18.5460 O.2       1 ALC1        0.0000 
     82 O          16.5580   13.0340   19.7260 O.2       7 ALL1        0.0000 
     83 O          17.9120   14.1940   17.3660 O.2       4 ALP1        0.0000 
     84 N          14.9390    9.2530   16.9070 N.am      2 SEC2        0.0000 
     85 N          14.6800    9.4300   18.3270 N.am      8 SEL2        0.0000 
     86 N          15.1980    9.0760   15.4870 N.am      5 SEP2        0.0000 
     87 O          13.3705    9.0380   18.5205 O.2       1 ALC1        0.0000 
     88 O          14.6800    9.4300   18.3270 O.2       7 ALL1        0.0000 
     89 O          12.0610    8.6460   18.7140 O.2       4 ALP1        0.0000 
     90 CA          6.1028    6.3615   25.4412 C.3       3 GLC5        0.0000 
     91 CA          7.4980    6.1630   26.8490 C.3       9 GLL5        0.0000 
     92 CA          5.1090    7.1720   24.3130 C.3       6 GLP5        0.0000 
     93 CA          9.2910    6.3302   25.2180 C.3       3 GLC5        0.0000 
     94 CA          5.1632    5.4887   29.4138 C.3       3 GLC5        0.0000 
     95 CA          6.6340    3.9000   28.6050 C.3       9 GLL5        0.0000 
     96 CA          3.2950    6.4710   29.9340 C.3       6 GLP5        0.0000 
     97 CA          8.1298    3.9480   30.9850 C.3       3 GLC5        0.0000 
     98 CA          7.4290    5.1130   29.1820 C.3       9 GLL5        0.0000 
     99 CA          8.0660    2.9350   32.8350 C.3       6 GLP5        0.0000 
    100 CA          4.9986    3.6555   27.4106 C.3       3 GLC5        0.0000 
    101 CA          3.2500    3.2110   27.1680 C.3       6 GLP5        0.0000 
    102 CA         16.7368    7.4047   27.8993 C.3       3 GLC5        0.0000 
    103 CA         14.8060    7.5280   27.2660 C.3       9 GLL5        0.0000 
    104 CA         14.0442    7.7095   30.3915 C.3       3 GLC5        0.0000 
    105 CA         13.7310    9.0340   32.0060 C.3       6 GLP5        0.0000 
    106 CA         13.1617    5.7035   30.1810 C.3       3 GLC5        0.0000 
    107 CA         17.3383    6.0593   25.3465 C.3       3 GLC5        0.0000 
    108 CA         15.5430    6.7890   26.1190 C.3       9 GLL5        0.0000 
    109 CA         18.9520    4.7820   25.0900 C.3       6 GLP5        0.0000 
    110 CA         16.7265   10.3622   23.1537 C.3       3 GLC5        0.0000 
    111 CA         13.8330   10.9010   28.9748 C.3       3 GLC5        0.0000 
    112 CA         14.0900   11.2370   30.8780 C.3       6 GLP5        0.0000 
    113 CA         16.5973   12.0727   23.7375 C.3       3 GLC5        0.0000 
    114 CA         15.0260   10.3910   23.5470 C.3       9 GLL5        0.0000 
    115 CA         18.3180   13.1520   24.3370 C.3       6 GLP5        0.0000 
    116 CA         16.5508   10.9663   22.0667 C.3       3 GLC5        0.0000 
    117 CA         14.6400   11.5910   21.3720 C.3       9 GLL5        0.0000 
    118 CA         11.8211    4.9467   29.6196 C.3       3 GLC5        0.0000 
    119 CA         12.7546    3.1338   27.9411 C.3       3 GLC5        0.0000 
    120 CA         11.8090    5.3590   28.0250 C.3       9 GLL5        0.0000 
    121 CA         13.8330    1.3960   28.2280 C.3       6 GLP5        0.0000 
    122 CA          8.0256    8.0533   26.9390 C.3       3 GLC5        0.0000 
    123 CA          9.0280    5.8620   26.7590 C.3       9 GLL5        0.0000 
    124 CA          7.8830   10.0350   26.7000 C.3       6 GLP5        0.0000 
    125 CA         13.0240   13.7740   19.4428 C.3       3 GLC5        0.0000 
    126 CA         14.3420   12.9110   20.6490 C.3       9 GLL5        0.0000 
    127 CA         12.7464   11.6151   21.3034 C.3       3 GLC5        0.0000 
    128 CA         14.4525   14.7185   20.4097 C.3       3 GLC5        0.0000 
    129 CA         14.1410   16.4670   20.8090 C.3       6 GLP5        0.0000 
    130 CA         16.3084   11.7677   17.1804 C.3       3 GLC5        0.0000 
    131 CA         14.8950   11.8460   18.5020 C.3       9 GLL5        0.0000 
    132 CA         17.6810   12.3250   15.8730 C.3       6 GLP5        0.0000 
@<TRIPOS>BOND
@<TRIPOS>SUBSTRUCTURE
     1 ALC1       81 GROUP        1 X    ALC  0     ROOT ALC X 1
     2 SEC2       73 GROUP        1 X    SEC  0     **** SEC X 2
     3 GLC5        1 GROUP        1 X    GLC  0     **** GLC X 6
     4 ALP1       83 GROUP        1 Y    ALP  0     ROOT ALP Y 8
     5 SEP2       75 GROUP        1 Y    SEP  0     **** SEP Y 9
     6 GLP5        3 GROUP        1 Y    GLP  0     **** GLP Y 13
     7 ALL1       82 GROUP        1 Z    ALL  0     ROOT ALL Z 15
     8 SEL2       74 GROUP        1 Z    SEL  0     **** SEL Z 16
     9 GLL5        2 GROUP        1 Z    GLL  0     **** GLL Z 20
@<TRIPOS>SET

