#    Name: 2zmh_NYA_1_ligand
#    Modification time : Tue Mar 25 10:50:48 2014

@<TRIPOS>MOLECULE
2zmh_NYA_1_ligand
   85    90     1     0     0
SMALL
NO_CHARGES


@<TRIPOS>ATOM
      1 C35         7.4980    6.1630   26.8490 C.3       1 NYA1        0.0000 
      2 C36         7.1190    6.3990   28.3450 C.3       1 NYA1        0.0000 
      3 C38         6.6950    4.9390   26.2900 C.3       1 NYA1        0.0000 
      4 C31         7.4290    5.1130   29.1820 C.3       1 NYA1        0.0000 
      5 C32         6.6340    3.9000   28.6050 C.3       1 NYA1        0.0000 
      6 C33         7.0260    3.6610   27.1130 C.3       1 NYA1        0.0000 
      7 C17        14.8060    7.5280   27.2660 C.3       1 NYA1        0.0000 
      8 C21        14.7950    6.0870   29.3290 C.3       1 NYA1        0.0000 
      9 C16        15.5430    6.7890   26.1190 C.3       1 NYA1        0.0000 
     10 C13        14.1060    8.7110   26.5310 C.3       1 NYA1        0.0000 
     11 C15        15.9060    7.8840   25.0870 C.3       1 NYA1        0.0000 
     12 C14        15.3720    9.1590   25.7610 C.3       1 NYA1        0.0000 
     13 C8         15.0440   10.3800   24.9020 C.2       1 NYA1        0.0000 
     14 C12        13.6350    9.8850   27.4540 C.3       1 NYA1        0.0000 
     15 C18        12.9280    8.2690   25.6000 C.3       1 NYA1        0.0000 
     16 C7         15.0260   10.3910   23.5470 C.2       1 NYA1        0.0000 
     17 C9         14.7150   11.5710   25.7670 C.3       1 NYA1        0.0000 
     18 C6         14.7270   11.5960   22.7290 C.2       1 NYA1        0.0000 
     19 C23        11.8090    5.3590   28.0250 C.2       1 NYA1        0.0000 
     20 C22        13.0760    5.5770   27.6320 C.2       1 NYA1        0.0000 
     21 C24        10.9100    4.2750   27.4800 C.3       1 NYA1        0.0000 
     22 C20        13.9200    6.6830   28.2250 C.3       1 NYA1        0.0000 
     23 C29         9.3960    4.5800   27.5950 C.3       1 NYA1        0.0000 
     24 C28        14.3180   12.0260   17.2930 C.2       1 NYA1        0.0000 
     25 C30         8.9580    4.8090   29.0880 C.3       1 NYA1        0.0000 
     26 C34         8.5650    3.3820   27.0080 C.3       1 NYA1        0.0000 
     27 C37         9.0280    5.8620   26.7590 C.3       1 NYA1        0.0000 
     28 C5         14.6400   11.5910   21.3720 C.2       1 NYA1        0.0000 
     29 C10        14.7920   10.2930   20.5310 C.3       1 NYA1        0.0000 
     30 C4         14.3420   12.9110   20.6490 C.3       1 NYA1        0.0000 
     31 C11        13.5170   11.2450   26.6890 C.3       1 NYA1        0.0000 
     32 C1         15.2650   10.4850   19.0780 C.3       1 NYA1        0.0000 
     33 C2         14.8950   11.8460   18.5020 C.2       1 NYA1        0.0000 
     34 C3         15.1860   13.0290   19.3720 C.3       1 NYA1        0.0000 
     35 O3         11.2150    3.0670   28.1720 O.3       1 NYA1        0.0000 
     36 O2         16.5580   13.0340   19.7260 O.3       1 NYA1        0.0000 
     37 O1         14.6800    9.4300   18.3270 O.3       1 NYA1        0.0000 
     38 H           7.2731    7.0217   26.2860 H         1 NYA1        0.0000 
     39 H           6.0662    6.6156   28.4127 H         1 NYA1        0.0000 
     40 H           7.7019    7.2177   28.7321 H         1 NYA1        0.0000 
     41 H           6.9731    4.7813   25.2601 H         1 NYA1        0.0000 
     42 H           5.6403    5.1496   26.3682 H         1 NYA1        0.0000 
     43 H           7.1627    5.2708   30.1859 H         1 NYA1        0.0000 
     44 H           5.5779    4.1118   28.6620 H         1 NYA1        0.0000 
     45 H           6.8730    3.0177   29.1775 H         1 NYA1        0.0000 
     46 H           6.4923    2.8426   26.7290 H         1 NYA1        0.0000 
     47 H          15.6206    8.0151   27.8676 H         1 NYA1        0.0000 
     48 H          14.8857    6.0839   25.6730 H         1 NYA1        0.0000 
     49 H          16.4322    6.3476   26.4968 H         1 NYA1        0.0000 
     50 H          15.3862    7.7080   24.1905 H         1 NYA1        0.0000 
     51 H          16.9510    7.9414   24.9886 H         1 NYA1        0.0000 
     52 H          16.0915    9.4494   26.5449 H         1 NYA1        0.0000 
     53 H          14.3505   10.0003   28.2665 H         1 NYA1        0.0000 
     54 H          12.6623    9.6325   27.8729 H         1 NYA1        0.0000 
     55 H          15.2282    9.5240   22.9928 H         1 NYA1        0.0000 
     56 H          14.4517   12.4221   25.1458 H         1 NYA1        0.0000 
     57 H          15.5685   11.8290   26.3872 H         1 NYA1        0.0000 
     58 H          14.5830   12.4763   23.2784 H         1 NYA1        0.0000 
     59 H          11.3496    5.9533   28.7645 H         1 NYA1        0.0000 
     60 H          13.5509    5.0122   26.9095 H         1 NYA1        0.0000 
     61 H          11.1380    4.1503   26.4145 H         1 NYA1        0.0000 
     62 H          13.2370    7.3947   28.7473 H         1 NYA1        0.0000 
     63 H           9.1773    3.9152   29.6547 H         1 NYA1        0.0000 
     64 H           9.5114    5.6473   29.4871 H         1 NYA1        0.0000 
     65 H           8.8285    3.2511   25.9685 H         1 NYA1        0.0000 
     66 H           8.7993    2.4879   27.5674 H         1 NYA1        0.0000 
     67 H           9.5789    6.7027   27.1539 H         1 NYA1        0.0000 
     68 H           9.2959    5.6910   25.7269 H         1 NYA1        0.0000 
     69 H          13.8174    9.7684   20.5230 H         1 NYA1        0.0000 
     70 H          15.5022    9.6228   21.0522 H         1 NYA1        0.0000 
     71 H          14.5747   13.7414   21.3092 H         1 NYA1        0.0000 
     72 H          13.2888   12.9453   20.3858 H         1 NYA1        0.0000 
     73 H          13.4064   12.0492   27.4302 H         1 NYA1        0.0000 
     74 H          12.5974   11.2236   26.0871 H         1 NYA1        0.0000 
     75 H          16.3486   10.3874   19.0806 H         1 NYA1        0.0000 
     76 H          14.8952   13.9230   18.8651 H         1 NYA1        0.0000 
     77 H          15.5096    5.4944   28.9573 H         1 NYA1        0.0000 
     78 H          15.2522    6.7971   29.8645 H         1 NYA1        0.0000 
     79 H          14.2605    5.5354   29.9694 H         1 NYA1        0.0000 
     80 H          13.2362    7.6449   24.8820 H         1 NYA1        0.0000 
     81 H          12.2087    7.7970   26.1098 H         1 NYA1        0.0000 
     82 H          12.5006    9.0505   25.1455 H         1 NYA1        0.0000 
     83 H          10.2322    3.0228   28.3519 H         1 NYA1        0.0000 
     84 H          17.0279   13.4248   18.9345 H         1 NYA1        0.0000 
     85 H          13.7358    9.3741   18.6516 H         1 NYA1        0.0000 
@<TRIPOS>BOND
     1    2    1 1    
     2    3    1 1    
     3   27    1 1    
     4   38    1 1    
     5    4    2 1    
     6   39    2 1    
     7   40    2 1    
     8    6    3 1    
     9   41    3 1    
    10   42    3 1    
    11    5    4 1    
    12   25    4 1    
    13   43    4 1    
    14    6    5 1    
    15   44    5 1    
    16   45    5 1    
    17   26    6 1    
    18   46    6 1    
    19    9    7 1    
    20   10    7 1    
    21   22    7 1    
    22   47    7 1    
    23   22    8 1    
    24   77    8 1    
    25   78    8 1    
    26   79    8 1    
    27   11    9 1    
    28   48    9 1    
    29   49    9 1    
    30   12   10 1    
    31   14   10 1    
    32   15   10 1    
    33   12   11 1    
    34   50   11 1    
    35   51   11 1    
    36   13   12 1    
    37   52   12 1    
    38   16   13 2    
    39   17   13 1    
    40   31   14 1    
    41   53   14 1    
    42   54   14 1    
    43   80   15 1    
    44   81   15 1    
    45   82   15 1    
    46   18   16 1    
    47   55   16 1    
    48   31   17 1    
    49   56   17 1    
    50   57   17 1    
    51   28   18 2    
    52   58   18 1    
    53   20   19 2    
    54   21   19 1    
    55   59   19 1    
    56   22   20 1    
    57   60   20 1    
    58   23   21 1    
    59   35   21 1    
    60   61   21 1    
    61   62   22 1    
    62   25   23 1    
    63   26   23 1    
    64   27   23 1    
    65   33   24 2    
    66   63   25 1    
    67   64   25 1    
    68   65   26 1    
    69   66   26 1    
    70   67   27 1    
    71   68   27 1    
    72   29   28 1    
    73   30   28 1    
    74   32   29 1    
    75   69   29 1    
    76   70   29 1    
    77   34   30 1    
    78   71   30 1    
    79   72   30 1    
    80   73   31 1    
    81   74   31 1    
    82   33   32 1    
    83   37   32 1    
    84   75   32 1    
    85   34   33 1    
    86   36   34 1    
    87   76   34 1    
    88   83   35 1    
    89   84   36 1    
    90   85   37 1    
@<TRIPOS>SUBSTRUCTURE
     1 NYA1        1 GROUP   
@<TRIPOS>SET

