#    Name: 2vv9_IM9_1_INTS_M
#    Modification time : Tue Mar 25 03:02:11 2014

@<TRIPOS>MOLECULE
2vv9_IM9_1_INTS_M
   64     0     9     0     0
SMALL
NO_CHARGES


@<TRIPOS>ATOM
      1 CA          0.9465   28.2550   13.5545 C.3       3 GLC5        0.0000 
      2 CA          0.1430   27.8850   11.7300 C.3       9 GLL5        0.0000 
      3 CA          1.7500   28.6250   15.3790 C.3       6 GLP5        0.0000 
      4 CA         -1.0555   24.6065    9.0415 C.3       3 GLC5        0.0000 
      5 CA         -0.5410   26.4200    9.8130 C.3       9 GLL5        0.0000 
      6 CA         -1.5700   22.7930    8.2700 C.3       6 GLP5        0.0000 
      7 CA         -2.3925   26.4140    9.0465 C.3       3 GLC5        0.0000 
      8 CA         -4.2440   26.4080    8.2800 C.3       6 GLP5        0.0000 
      9 CA         -4.6265   29.5560   10.2400 C.3       3 GLC5        0.0000 
     10 CA         -2.8090   30.3540    9.4030 C.3       9 GLL5        0.0000 
     11 CA         -6.4440   28.7580   11.0770 C.3       6 GLP5        0.0000 
     12 CA          1.1850   33.1615    5.7900 C.3       3 GLC5        0.0000 
     13 CA          0.5960   32.3380    7.4780 C.3       9 GLL5        0.0000 
     14 CA          1.7740   33.9850    4.1020 C.3       6 GLP5        0.0000 
     15 CA          2.1415   33.9320    7.7315 C.3       3 GLC5        0.0000 
     16 CA          3.6870   35.5260    7.9850 C.3       6 GLP5        0.0000 
     17 N           2.5530   32.4505    6.3195 N.am      2 SEC2        0.0000 
     18 N           1.5450   31.5190    7.0220 N.am      8 SEL2        0.0000 
     19 N           3.5610   33.3820    5.6170 N.am      5 SEP2        0.0000 
     20 CA          0.8250   28.8730    6.1915 C.3       3 GLC5        0.0000 
     21 CA          1.5440   30.2190    7.3010 C.3       9 GLL5        0.0000 
     22 CA          0.1060   27.5270    5.0820 C.3       6 GLP5        0.0000 
     23 CA         -0.1075   30.7415    6.1465 C.3       3 GLC5        0.0000 
     24 CA         -1.7590   31.2640    4.9920 C.3       6 GLP5        0.0000 
     25 CA          1.9590   30.9390    8.8535 C.3       3 GLC5        0.0000 
     26 CA          2.3740   31.6590   10.4060 C.3       6 GLP5        0.0000 
     27 O           3.6515   30.1980    6.1885 O.2       1 ALC1        0.0000 
     28 O           2.6180   29.5230    6.7600 O.2       7 ALL1        0.0000 
     29 O           4.6850   30.8730    5.6170 O.2       4 ALP1        0.0000 
     30 CA          6.4475   27.5695    7.1105 C.3       3 GLC5        0.0000 
     31 CA          4.6660   26.5170    6.3170 C.3       9 GLL5        0.0000 
     32 CA          8.2290   28.6220    7.9040 C.3       6 GLP5        0.0000 
     33 CA          5.7245   29.1560    5.4775 C.3       3 GLC5        0.0000 
     34 CA          4.1070   27.7820    6.1860 C.3       9 GLL5        0.0000 
     35 CA          7.3420   30.5300    4.7690 C.3       6 GLP5        0.0000 
     36 CA          6.5545   22.1690    9.5630 C.3       3 GLC5        0.0000 
     37 CA          4.9130   22.3380    8.7680 C.3       9 GLL5        0.0000 
     38 CA          8.1960   22.0000   10.3580 C.3       6 GLP5        0.0000 
     39 CA          2.8835   24.3955    5.5765 C.3       3 GLC5        0.0000 
     40 CA          4.8900   23.6990    6.2130 C.3       9 GLL5        0.0000 
     41 CA          0.8770   25.0920    4.9400 C.3       6 GLP5        0.0000 
     42 CA         -3.5585   27.1932    9.6730 C.3       3 GLC5        0.0000 
     43 CA         -2.6860   28.5470   10.6050 C.3       9 GLL5        0.0000 
     44 CA         -4.6585   28.3682   11.0715 C.3       3 GLC5        0.0000 
     45 CA         -3.1090   28.7048   12.8560 C.3       3 GLC5        0.0000 
     46 CA         -3.0600   27.4100   11.5270 C.3       9 GLL5        0.0000 
     47 CA         -3.3450   29.4310   14.6460 C.3       6 GLP5        0.0000 
     48 CA          0.6898   30.9082    9.6510 C.3       3 GLC5        0.0000 
     49 CA         -1.5400   29.8640    9.2960 C.3       9 GLL5        0.0000 
     50 CA         -2.3024   28.9850    7.6509 C.3       3 GLC5        0.0000 
     51 CA         -0.4490   30.4510    8.4960 C.3       9 GLL5        0.0000 
     52 CA         -3.2930   27.6900    6.3790 C.3       6 GLP5        0.0000 
     53 CA         -0.1200   33.7968    8.7363 C.3       3 GLC5        0.0000 
     54 CA         -0.4440   31.8430    8.2470 C.3       9 GLL5        0.0000 
     55 CA         -0.3160   35.5030    9.6100 C.3       6 GLP5        0.0000 
     56 CA         -1.5825   33.3362    7.4893 C.3       3 GLC5        0.0000 
     57 CA         -3.2410   34.5820    7.1160 C.3       6 GLP5        0.0000 
     58 CA          1.2250   31.8747    9.1342 C.3       3 GLC5        0.0000 
     59 CA         -0.8421   31.5033    6.4584 C.3       3 GLC5        0.0000 
     60 CA          3.5151   28.3986    9.1395 C.3       3 GLC5        0.0000 
     61 CA          3.2010   26.1370    8.1780 C.3       9 GLL5        0.0000 
     62 CA          3.9980   29.8180   10.4250 C.3       6 GLP5        0.0000 
     63 CA          2.5304   25.6525    5.9873 C.3       3 GLC5        0.0000 
     64 CA          1.7956   27.6644    5.9700 C.3       3 GLC5        0.0000 
@<TRIPOS>BOND
@<TRIPOS>SUBSTRUCTURE
     1 ALC1       27 GROUP        1 X    ALC  0     ROOT ALC X 1
     2 SEC2       17 GROUP        1 X    SEC  0     **** SEC X 2
     3 GLC5        1 GROUP        1 X    GLC  0     **** GLC X 6
     4 ALP1       29 GROUP        1 Y    ALP  0     ROOT ALP Y 8
     5 SEP2       19 GROUP        1 Y    SEP  0     **** SEP Y 9
     6 GLP5        3 GROUP        1 Y    GLP  0     **** GLP Y 13
     7 ALL1       28 GROUP        1 Z    ALL  0     ROOT ALL Z 15
     8 SEL2       18 GROUP        1 Z    SEL  0     **** SEL Z 16
     9 GLL5        2 GROUP        1 Z    GLL  0     **** GLL Z 20
@<TRIPOS>SET

