#    Name: 2vv9_IM9_1_ligand
#    Modification time : Tue Mar 25 03:02:11 2014

@<TRIPOS>MOLECULE
2vv9_IM9_1_ligand
   62    65     1     0     0
SMALL
NO_CHARGES


@<TRIPOS>ATOM
      1 C1          0.1430   27.8850   11.7300 C.3       1 IM91300     0.0000 
      2 C2         -0.2850   27.8580   10.2590 C.3       1 IM91300     0.0000 
      3 C3         -0.5410   26.4200    9.8130 C.3       1 IM91300     0.0000 
      4 N4         -1.4660   28.7070   10.0580 N.pl3     1 IM91300     0.0000 
      5 C5         -2.6860   28.5470   10.6050 C.2       1 IM91300     0.0000 
      6 C6         -3.0600   27.4100   11.5270 C.3       1 IM91300     0.0000 
      7 N7         -3.4770   29.5310   10.2210 N.pl3     1 IM91300     0.0000 
      8 C8         -2.8090   30.3540    9.4030 C.2       1 IM91300     0.0000 
      9 C9         -1.5400   29.8640    9.2960 C.2       1 IM91300     0.0000 
     10 C10        -0.4490   30.4510    8.4960 C.ar      1 IM91300     0.0000 
     11 C11        -0.4440   31.8430    8.2470 C.ar      1 IM91300     0.0000 
     12 C12         0.5960   32.3380    7.4780 C.ar      1 IM91300     0.0000 
     13 N13         1.5450   31.5190    7.0220 N.ar      1 IM91300     0.0000 
     14 C14         1.5440   30.2190    7.3010 C.ar      1 IM91300     0.0000 
     15 N15         2.6180   29.5230    6.7600 N.pl3     1 IM91300     0.0000 
     16 C16         3.0890   28.2370    7.0170 C.ar      1 IM91300     0.0000 
     17 C17         2.6380   27.4060    8.0430 C.ar      1 IM91300     0.0000 
     18 C18         3.2010   26.1370    8.1780 C.ar      1 IM91300     0.0000 
     19 C19         4.2020   25.6810    7.3260 C.ar      1 IM91300     0.0000 
     20 C20         4.6660   26.5170    6.3170 C.ar      1 IM91300     0.0000 
     21 C21         4.1070   27.7820    6.1860 C.ar      1 IM91300     0.0000 
     22 N22         4.7890   24.4050    7.4980 N.3       1 IM91300     0.0000 
     23 C23         4.0950   23.6010    8.5120 C.3       1 IM91300     0.0000 
     24 C24         4.9130   22.3380    8.7680 C.3       1 IM91300     0.0000 
     25 N25         5.1630   21.6640    7.4750 N.am      1 IM91300     0.0000 
     26 C26         5.7820   22.4540    6.3990 C.3       1 IM91300     0.0000 
     27 C27         4.8900   23.6990    6.2130 C.3       1 IM91300     0.0000 
     28 C28         4.8460   20.3640    7.2700 C.2       1 IM91300     0.0000 
     29 O29         5.1040   19.8400    6.1920 O.2       1 IM91300     0.0000 
     30 C30         4.1920   19.5550    8.3640 C.3       1 IM91300     0.0000 
     31 O31         4.0100   18.1830    7.9730 O.3       1 IM91300     0.0000 
     32 N32         0.5460   29.6620    8.0220 N.ar      1 IM91300     0.0000 
     33 H           0.5505   28.2458    9.6714 H         1 IM91300     0.0000 
     34 H          -4.4139   29.6511   10.4881 H         1 IM91300     0.0000 
     35 H          -3.1427   31.1375    8.9699 H         1 IM91300     0.0000 
     36 H          -1.1669   32.4330    8.6166 H         1 IM91300     0.0000 
     37 H           0.6168   33.3573    7.2674 H         1 IM91300     0.0000 
     38 H           3.1948   30.0802    6.0003 H         1 IM91300     0.0000 
     39 H           1.9101   27.7208    8.6824 H         1 IM91300     0.0000 
     40 H           2.8610   25.5135    8.9395 H         1 IM91300     0.0000 
     41 H           5.4038   26.2068    5.6843 H         1 IM91300     0.0000 
     42 H           4.4644   28.4158    5.4352 H         1 IM91300     0.0000 
     43 H           3.1078   23.3096    8.1667 H         1 IM91300     0.0000 
     44 H           4.0034   24.1487    9.4449 H         1 IM91300     0.0000 
     45 H           4.3534   21.6896    9.4352 H         1 IM91300     0.0000 
     46 H           5.8494   22.6190    9.2400 H         1 IM91300     0.0000 
     47 H           5.7990   21.9077    5.4738 H         1 IM91300     0.0000 
     48 H           6.7683   22.7813    6.6727 H         1 IM91300     0.0000 
     49 H           5.3435   24.3298    5.4550 H         1 IM91300     0.0000 
     50 H           3.9145   23.3681    5.8710 H         1 IM91300     0.0000 
     51 H           3.2248   20.0282    8.6106 H         1 IM91300     0.0000 
     52 H           4.8206   19.6288    9.2693 H         1 IM91300     0.0000 
     53 H           0.9821   27.3628   11.8823 H         1 IM91300     0.0000 
     54 H           0.3155   28.8167   12.0496 H         1 IM91300     0.0000 
     55 H          -0.5574   27.4951   12.3278 H         1 IM91300     0.0000 
     56 H           0.2766   25.8516    9.9046 H         1 IM91300     0.0000 
     57 H          -1.2617   25.9862   10.3538 H         1 IM91300     0.0000 
     58 H          -0.8247   26.3731    8.8552 H         1 IM91300     0.0000 
     59 H          -2.9468   26.5204   11.0845 H         1 IM91300     0.0000 
     60 H          -2.4959   27.4005   12.3527 H         1 IM91300     0.0000 
     61 H          -4.0130   27.4706   11.8238 H         1 IM91300     0.0000 
     62 H           4.2169   18.1632    6.9949 H         1 IM91300     0.0000 
@<TRIPOS>BOND
     1    2    1 1    
     2   53    1 1    
     3   54    1 1    
     4   55    1 1    
     5    3    2 1    
     6    4    2 1    
     7   33    2 1    
     8   56    3 1    
     9   57    3 1    
    10   58    3 1    
    11    5    4 2    
    12    9    4 1    
    13    6    5 1    
    14    7    5 1    
    15   59    6 1    
    16   60    6 1    
    17   61    6 1    
    18    8    7 1    
    19   34    7 1    
    20    9    8 2    
    21   35    8 1    
    22   10    9 1    
    23   11   10 ar   
    24   32   10 ar   
    25   12   11 ar   
    26   36   11 1    
    27   13   12 ar   
    28   37   12 1    
    29   14   13 ar   
    30   15   14 1    
    31   32   14 ar   
    32   16   15 1    
    33   38   15 1    
    34   17   16 ar   
    35   21   16 ar   
    36   18   17 ar   
    37   39   17 1    
    38   19   18 ar   
    39   40   18 1    
    40   20   19 ar   
    41   22   19 1    
    42   21   20 ar   
    43   41   20 1    
    44   42   21 1    
    45   23   22 1    
    46   27   22 1    
    47   24   23 1    
    48   43   23 1    
    49   44   23 1    
    50   25   24 1    
    51   45   24 1    
    52   46   24 1    
    53   26   25 1    
    54   28   25 am   
    55   27   26 1    
    56   47   26 1    
    57   48   26 1    
    58   49   27 1    
    59   50   27 1    
    60   29   28 2    
    61   30   28 1    
    62   31   30 1    
    63   51   30 1    
    64   52   30 1    
    65   62   31 1    
@<TRIPOS>SUBSTRUCTURE
     1 IM91300     1 GROUP   
@<TRIPOS>SET

