#    Name: 2uzv_SS5_1_INTS_M
#    Modification time : Tue Mar 25 00:37:41 2014

@<TRIPOS>MOLECULE
2uzv_SS5_1_INTS_M
   92     0     9     0     0
SMALL
NO_CHARGES


@<TRIPOS>ATOM
      1 CA         16.0985    4.9480    1.9880 C.3       3 GLC5        0.0000 
      2 CA         16.0990    6.5570    3.2560 C.3       9 GLL5        0.0000 
      3 CA         16.0980    3.3390    0.7200 C.3       6 GLP5        0.0000 
      4 CA         15.0535    5.1055    4.0360 C.3       3 GLC5        0.0000 
      5 CA         14.0080    3.6540    4.8160 C.3       6 GLP5        0.0000 
      6 CA         18.7980    5.0060    4.6040 C.3       3 GLC5        0.0000 
      7 CA         17.1640    6.4120    4.1710 C.3       9 GLL5        0.0000 
      8 CA         20.4320    3.6000    5.0370 C.3       6 GLP5        0.0000 
      9 CA         16.1265    4.8395    4.9850 C.3       3 GLC5        0.0000 
     10 CA         15.0890    3.2670    5.7990 C.3       6 GLP5        0.0000 
     11 CA         19.5510    8.1815    3.1670 C.3       3 GLC5        0.0000 
     12 CA         17.7320    8.8240    3.9050 C.3       9 GLL5        0.0000 
     13 CA         21.3700    7.5390    2.4290 C.3       6 GLP5        0.0000 
     14 CA         11.6530    7.6360   -0.5325 C.3       3 GLC5        0.0000 
     15 CA         12.3820    8.6650    1.1510 C.3       9 GLL5        0.0000 
     16 CA         10.9240    6.6070   -2.2160 C.3       6 GLP5        0.0000 
     17 O          12.6985    6.1235    1.9885 O.2       1 ALC1        0.0000 
     18 O          12.8660    7.2070    3.0130 O.2       7 ALL1        0.0000 
     19 O          12.5310    5.0400    0.9640 O.2       4 ALP1        0.0000 
     20 CA         10.4850   11.2115   -1.8365 C.3       3 GLC5        0.0000 
     21 CA         10.3140    9.6830   -0.6150 C.3       9 GLL5        0.0000 
     22 CA         10.6560   12.7400   -3.0580 C.3       6 GLP5        0.0000 
     23 N           9.8345   10.7640   -2.6330 N.am      2 SEC2        0.0000 
     24 N           9.2920   10.0160   -1.4290 N.am      8 SEL2        0.0000 
     25 N          10.3770   11.5120   -3.8370 N.am      5 SEP2        0.0000 
     26 CA          8.6750   11.6635   -1.7850 C.3       3 GLC5        0.0000 
     27 CA          8.0170   10.0520   -0.9430 C.3       9 GLL5        0.0000 
     28 CA          9.3330   13.2750   -2.6270 C.3       6 GLP5        0.0000 
     29 CA          6.4570   11.3015   -1.5280 C.3       3 GLC5        0.0000 
     30 CA          4.8970   12.5510   -2.1130 C.3       6 GLP5        0.0000 
     31 CA          8.8850    8.5390   -2.0305 C.3       3 GLC5        0.0000 
     32 CA          9.7530    7.0260   -3.1180 C.3       6 GLP5        0.0000 
     33 CA          4.3670    8.1995   -1.2040 C.3       3 GLC5        0.0000 
     34 CA          5.1790    9.5660    0.0360 C.3       9 GLL5        0.0000 
     35 CA          3.5550    6.8330   -2.4440 C.3       6 GLP5        0.0000 
     36 CA          6.6630   11.8380    3.0180 C.3       3 GLC5        0.0000 
     37 CA          5.9640   10.0140    2.3130 C.3       9 GLL5        0.0000 
     38 CA          7.3620   13.6620    3.7230 C.3       6 GLP5        0.0000 
     39 O           1.2760   10.0500    2.0775 O.2       1 ALC1        0.0000 
     40 O           2.4360    9.8550    2.5940 O.2       7 ALL1        0.0000 
     41 O           0.1160   10.2450    1.5610 O.2       4 ALP1        0.0000 
     42 N           1.4980    9.5385    4.4390 N.am      2 SEC2        0.0000 
     43 N           2.7140   10.0970    3.8830 N.am      8 SEL2        0.0000 
     44 N           0.2820    8.9800    4.9950 N.am      5 SEP2        0.0000 
     45 CA          4.7535   11.7100    6.8400 C.3       3 GLC5        0.0000 
     46 CA          4.6560   10.4840    5.4310 C.3       9 GLL5        0.0000 
     47 CA          4.8510   12.9360    8.2490 C.3       6 GLP5        0.0000 
     48 CA          3.8060   11.7915    3.9140 C.3       3 GLC5        0.0000 
     49 CA          2.9560   13.0990    2.3970 C.3       6 GLP5        0.0000 
     50 CA          2.8990   11.2040    5.9975 C.3       3 GLC5        0.0000 
     51 CA          1.1420   11.9240    6.5640 C.3       6 GLP5        0.0000 
     52 CA          4.7055    8.5995    4.8325 C.3       3 GLC5        0.0000 
     53 CA          4.7550    6.7150    4.2340 C.3       6 GLP5        0.0000 
     54 CA          4.7545    9.6165    6.9375 C.3       3 GLC5        0.0000 
     55 CA          4.8530    8.7490    8.4440 C.3       6 GLP5        0.0000 
     56 CA         20.4635    8.7780    3.7225 C.3       3 GLC5        0.0000 
     57 CA         19.5570   10.0170    5.0160 C.3       9 GLL5        0.0000 
     58 CA         21.4595    9.5215    3.3960 C.3       3 GLC5        0.0000 
     59 CA         21.5490   11.5040    4.3630 C.3       9 GLL5        0.0000 
     60 CA         20.6625   14.2260    2.1330 C.3       3 GLC5        0.0000 
     61 CA         21.2700   14.0560    4.2160 C.3       9 GLL5        0.0000 
     62 CA         20.0550   14.3960    0.0500 C.3       6 GLP5        0.0000 
     63 CA         17.5580    6.4545    6.1138 C.3       3 GLC5        0.0000 
     64 CA         17.9860    7.5360    4.5020 C.3       9 GLL5        0.0000 
     65 CA         17.5410    5.9350    7.8910 C.3       6 GLP5        0.0000 
     66 CA         19.0810    6.6050    3.3213 C.3       3 GLC5        0.0000 
     67 CA         20.5870    6.2360    2.3060 C.3       6 GLP5        0.0000 
     68 CA         10.5678    8.0645   -1.0700 C.3       3 GLC5        0.0000 
     69 CA         10.1090    9.3610    0.7670 C.3       9 GLL5        0.0000 
     70 CA          8.8369   11.4926    1.3628 C.3       3 GLC5        0.0000 
     71 CA          7.7000    9.7550    0.4060 C.3       9 GLL5        0.0000 
     72 CA          9.1000   13.4150    2.0200 C.3       6 GLP5        0.0000 
     73 CA          7.6466    7.8914    0.2556 C.3       3 GLC5        0.0000 
     74 CA          8.7860    9.4100    1.2430 C.3       9 GLL5        0.0000 
     75 CA          6.9710    6.1260    0.0240 C.3       6 GLP5        0.0000 
     76 CA          3.3265   11.3887    1.7768 C.3       3 GLC5        0.0000 
     77 CA          3.8350    9.5690    0.4860 C.3       9 GLL5        0.0000 
     78 CA          3.1070    8.0122    0.4773 C.3       3 GLC5        0.0000 
     79 CA          3.5590    9.7880    1.8270 C.3       9 GLL5        0.0000 
     80 CA          2.5170    6.3460   -0.2020 C.3       6 GLP5        0.0000 
     81 CA          4.8260    7.9089    0.8755 C.3       3 GLC5        0.0000 
     82 CA          5.6190    6.1400    0.7070 C.3       6 GLP5        0.0000 
     83 CA          4.1290   11.5575    2.4700 C.3       3 GLC5        0.0000 
     84 CA          4.8934    8.3368    3.2702 C.3       3 GLC5        0.0000 
     85 CA          5.8693    8.0198    1.1620 C.3       3 GLC5        0.0000 
     86 CA          5.1440   11.1136   -0.7610 C.3       3 GLC5        0.0000 
     87 CA          6.2750    9.7850    0.9210 C.3       9 GLL5        0.0000 
     88 CA         18.0087   13.4880    5.7685 C.3       3 GLC5        0.0000 
     89 CA         19.2740   12.5690    4.8040 C.3       9 GLL5        0.0000 
     90 CA         16.4150   13.7140    6.6450 C.3       6 GLP5        0.0000 
     91 CA         18.3042   13.2860    3.4430 C.3       3 GLC5        0.0000 
     92 CA         17.0060   13.3100    1.9940 C.3       6 GLP5        0.0000 
@<TRIPOS>BOND
@<TRIPOS>SUBSTRUCTURE
     1 ALC1       17 GROUP        1 X    ALC  0     ROOT ALC X 1
     2 SEC2       23 GROUP        1 X    SEC  0     **** SEC X 2
     3 GLC5        1 GROUP        1 X    GLC  0     **** GLC X 6
     4 ALP1       19 GROUP        1 Y    ALP  0     ROOT ALP Y 8
     5 SEP2       25 GROUP        1 Y    SEP  0     **** SEP Y 9
     6 GLP5        3 GROUP        1 Y    GLP  0     **** GLP Y 13
     7 ALL1       18 GROUP        1 Z    ALL  0     ROOT ALL Z 15
     8 SEL2       24 GROUP        1 Z    SEL  0     **** SEL Z 16
     9 GLL5        2 GROUP        1 Z    GLL  0     **** GLL Z 20
@<TRIPOS>SET

