#    Name: 2uzv_SS5_1_ligand
#    Modification time : Tue Mar 25 00:37:41 2014

@<TRIPOS>MOLECULE
2uzv_SS5_1_ligand
   70    74     1     0     0
SMALL
NO_CHARGES


@<TRIPOS>ATOM
      1 C1         15.8390    7.8210    2.6620 C.ar      1 SS51351     0.0000 
      2 C2         16.0990    6.5570    3.2560 C.ar      1 SS51351     0.0000 
      3 C3         17.1640    6.4120    4.1710 C.ar      1 SS51351     0.0000 
      4 C4         17.9860    7.5360    4.5020 C.ar      1 SS51351     0.0000 
      5 C5         17.7320    8.8240    3.9050 C.ar      1 SS51351     0.0000 
      6 C6         16.6610    8.9280    3.0000 C.ar      1 SS51351     0.0000 
      7 C7         14.7300    8.0470    1.6700 C.3       1 SS51351     0.0000 
      8 O8         18.4530   10.0330    4.1220 O.3       1 SS51351     0.0000 
      9 C9         13.3670    8.3610    2.2770 C.3       1 SS51351     0.0000 
     10 C10        12.3820    8.6650    1.1510 C.3       1 SS51351     0.0000 
     11 O11        11.1130    9.0080    1.6850 O.3       1 SS51351     0.0000 
     12 N12        12.8660    7.2070    3.0130 N.4       1 SS51351     0.0000 
     13 C13        10.1090    9.3610    0.7670 C.ar      1 SS51351     0.0000 
     14 C14        10.3140    9.6830   -0.6150 C.ar      1 SS51351     0.0000 
     15 N15         9.2920   10.0160   -1.4290 N.ar      1 SS51351     0.0000 
     16 C16         8.0170   10.0520   -0.9430 C.ar      1 SS51351     0.0000 
     17 C17         7.7000    9.7550    0.4060 C.ar      1 SS51351     0.0000 
     18 C18         8.7860    9.4100    1.2430 C.ar      1 SS51351     0.0000 
     19 C19         5.1790    9.5660    0.0360 C.ar      1 SS51351     0.0000 
     20 C20         3.8350    9.5690    0.4860 C.ar      1 SS51351     0.0000 
     21 C21         3.5590    9.7880    1.8270 C.ar      1 SS51351     0.0000 
     22 C22         4.6400   10.0180    2.7730 C.ar      1 SS51351     0.0000 
     23 C23         5.9640   10.0140    2.3130 C.ar      1 SS51351     0.0000 
     24 C24         6.2750    9.7850    0.9210 C.ar      1 SS51351     0.0000 
     25 N25         2.4360    9.8550    2.5940 N.pl3     1 SS51351     0.0000 
     26 N26         2.7140   10.0970    3.8830 N.2       1 SS51351     0.0000 
     27 C27         4.0270   10.2120    4.0830 C.2       1 SS51351     0.0000 
     28 C28         4.6560   10.4840    5.4310 C.3       1 SS51351     0.0000 
     29 C29        19.5570   10.0170    5.0160 C.3       1 SS51351     0.0000 
     30 C30        20.2370   11.4000    5.1820 C.3       1 SS51351     0.0000 
     31 C31        21.5490   11.5040    4.3630 C.3       1 SS51351     0.0000 
     32 C32        22.2310   12.8840    4.5410 C.3       1 SS51351     0.0000 
     33 C33        21.2700   14.0560    4.2160 C.3       1 SS51351     0.0000 
     34 C34        19.9310   13.9550    4.9800 C.3       1 SS51351     0.0000 
     35 C35        19.2740   12.5690    4.8040 C.3       1 SS51351     0.0000 
     36 H          15.5135    5.7562    3.0186 H         1 SS51351     0.0000 
     37 H          17.3552    5.5083    4.6018 H         1 SS51351     0.0000 
     38 H          18.7523    7.4310    5.1593 H         1 SS51351     0.0000 
     39 H          16.4591    9.8464    2.5594 H         1 SS51351     0.0000 
     40 H          14.6286    7.1490    1.0236 H         1 SS51351     0.0000 
     41 H          15.0118    8.8787    0.9893 H         1 SS51351     0.0000 
     42 H          13.4465    9.2164    2.9028 H         1 SS51351     0.0000 
     43 H          12.3292    7.7751    0.5067 H         1 SS51351     0.0000 
     44 H          12.8078    9.4808    0.5485 H         1 SS51351     0.0000 
     45 H          11.2950    9.6482   -0.9658 H         1 SS51351     0.0000 
     46 H           7.2227   10.3080   -1.5777 H         1 SS51351     0.0000 
     47 H           8.5986    9.1868    2.2374 H         1 SS51351     0.0000 
     48 H           5.3744    9.4001   -0.9649 H         1 SS51351     0.0000 
     49 H           3.0814    9.4089   -0.1867 H         1 SS51351     0.0000 
     50 H           6.7418   10.1753    2.9643 H         1 SS51351     0.0000 
     51 H           1.5227    9.7368    2.2304 H         1 SS51351     0.0000 
     52 H          20.3472    9.3105    4.6840 H         1 SS51351     0.0000 
     53 H          19.2602    9.6830    6.0330 H         1 SS51351     0.0000 
     54 H          20.4970   11.5246    6.2382 H         1 SS51351     0.0000 
     55 H          21.3214   11.3545    3.3095 H         1 SS51351     0.0000 
     56 H          22.2341   10.7252    4.6918 H         1 SS51351     0.0000 
     57 H          23.0944   12.9404    3.8790 H         1 SS51351     0.0000 
     58 H          22.5711   12.9807    5.5715 H         1 SS51351     0.0000 
     59 H          21.0682   14.0591    3.1427 H         1 SS51351     0.0000 
     60 H          21.7596   14.9963    4.4783 H         1 SS51351     0.0000 
     61 H          19.2514   14.7205    4.6078 H         1 SS51351     0.0000 
     62 H          20.1128   14.1304    6.0395 H         1 SS51351     0.0000 
     63 H          18.3885   12.5080    5.4374 H         1 SS51351     0.0000 
     64 H          18.9690   12.4452    3.7644 H         1 SS51351     0.0000 
     65 H          12.7645    6.4058    2.4232 H         1 SS51351     0.0000 
     66 H          13.4800    6.9466    3.7581 H         1 SS51351     0.0000 
     67 H          11.9705    7.3865    3.4203 H         1 SS51351     0.0000 
     68 H           5.2802    9.7520    5.7040 H         1 SS51351     0.0000 
     69 H           5.1832   11.3337    5.4302 H         1 SS51351     0.0000 
     70 H           3.9680   10.5666    6.1520 H         1 SS51351     0.0000 
@<TRIPOS>BOND
     1    2    1 ar   
     2    6    1 ar   
     3    7    1 1    
     4    3    2 ar   
     5   36    2 1    
     6    4    3 ar   
     7   37    3 1    
     8    5    4 ar   
     9   38    4 1    
    10    6    5 ar   
    11    8    5 1    
    12   39    6 1    
    13    9    7 1    
    14   40    7 1    
    15   41    7 1    
    16   29    8 1    
    17   10    9 1    
    18   12    9 1    
    19   42    9 1    
    20   11   10 1    
    21   43   10 1    
    22   44   10 1    
    23   13   11 1    
    24   65   12 1    
    25   66   12 1    
    26   67   12 1    
    27   14   13 ar   
    28   18   13 ar   
    29   15   14 ar   
    30   45   14 1    
    31   16   15 ar   
    32   17   16 ar   
    33   46   16 1    
    34   18   17 ar   
    35   24   17 1    
    36   47   18 1    
    37   20   19 ar   
    38   24   19 ar   
    39   48   19 1    
    40   21   20 ar   
    41   49   20 1    
    42   22   21 ar   
    43   25   21 1    
    44   23   22 ar   
    45   27   22 1    
    46   24   23 ar   
    47   50   23 1    
    48   26   25 1    
    49   51   25 1    
    50   27   26 2    
    51   28   27 1    
    52   68   28 1    
    53   69   28 1    
    54   70   28 1    
    55   30   29 1    
    56   52   29 1    
    57   53   29 1    
    58   31   30 1    
    59   35   30 1    
    60   54   30 1    
    61   32   31 1    
    62   55   31 1    
    63   56   31 1    
    64   33   32 1    
    65   57   32 1    
    66   58   32 1    
    67   34   33 1    
    68   59   33 1    
    69   60   33 1    
    70   35   34 1    
    71   61   34 1    
    72   62   34 1    
    73   63   35 1    
    74   64   35 1    
@<TRIPOS>SUBSTRUCTURE
     1 SS51351     1 GROUP   
@<TRIPOS>SET

