#    Name: 4DQI_1_CAVITY_N1_ALL.mol2
#    Modification time : Mon Mar 10 14:37:09 2014

@<TRIPOS>MOLECULE
4DQI_1_CAVITY_N1_ALL.mol2
   77     0     6     0     0
SMALL
NO_CHARGES


@<TRIPOS>ATOM
      1 NZ        128.0097  -29.2757   45.3213 N.2       3 LYS4        0.0000 
      2 OD1       129.3950  -28.9198   42.2874 O.3       2 ASP3        0.0000 
      3 OD1       128.3312  -28.6679   43.3145 O.3       2 ASP3        0.0000 
      4 OD1       127.2674  -28.4160   44.3416 O.3       2 ASP3        0.0000 
      5 NZ        129.7165  -28.3120   40.2807 N.2       3 LYS4        0.0000 
      6 NZ        128.6527  -28.0600   41.3077 N.2       3 LYS4        0.0000 
      7 DU        127.5889  -27.8081   42.3348 H         6 CUB7        0.0000 
      8 DU        126.5251  -27.5562   43.3618 H         6 CUB7        0.0000 
      9 CA        130.0381  -27.7041   38.2739 C.3       5 GLY6        0.0000 
     10 CA        128.9743  -27.4522   39.3009 C.3       5 GLY6        0.0000 
     11 DU        127.9105  -27.2003   40.3280 H         6 CUB7        0.0000 
     12 DU        126.8467  -26.9483   41.3551 H         6 CUB7        0.0000 
     13 DU        125.7829  -26.6964   42.3821 H         6 CUB7        0.0000 
     14 NZ        129.2958  -26.8443   37.2942 N.2       3 LYS4        0.0000 
     15 NZ        128.2320  -26.5924   38.3212 N.2       3 LYS4        0.0000 
     16 DU        127.1682  -26.3405   39.3483 H         6 CUB7        0.0000 
     17 DU        126.1044  -26.0885   40.3754 H         6 CUB7        0.0000 
     18 NZ        127.4897  -25.7326   37.3415 N.2       3 LYS4        0.0000 
     19 CZ        126.4259  -25.4807   38.3686 C.ar      4 PHE5        0.0000 
     20 DU        125.3621  -25.2288   39.3957 H         6 CUB7        0.0000 
     21 NZ        126.7475  -24.8728   36.3618 N.2       3 LYS4        0.0000 
     22 CZ        125.6837  -24.6209   37.3889 C.ar      4 PHE5        0.0000 
     23 CA        124.9414  -23.7611   36.4092 C.3       5 GLY6        0.0000 
     24 NZ        127.5780  -29.8709   42.8294 N.2       3 LYS4        0.0000 
     25 CA        130.0271  -29.7669   38.7685 C.3       5 GLY6        0.0000 
     26 NZ        128.9633  -29.5150   39.7956 N.2       3 LYS4        0.0000 
     27 NZ        127.8995  -29.2631   40.8226 N.2       3 LYS4        0.0000 
     28 NZ        126.8357  -29.0112   41.8497 N.2       3 LYS4        0.0000 
     29 DU        125.7719  -28.7592   42.8768 H         6 CUB7        0.0000 
     30 CA        130.3486  -29.1591   36.7617 C.3       5 GLY6        0.0000 
     31 NZ        129.2848  -28.9072   37.7888 N.2       3 LYS4        0.0000 
     32 O         128.2210  -28.6552   38.8159 O.2       1 ALA2        0.0000 
     33 O         127.1572  -28.4033   39.8429 O.2       1 ALA2        0.0000 
     34 DU        126.0934  -28.1514   40.8700 H         6 CUB7        0.0000 
     35 O         127.4788  -27.7954   37.8362 O.2       1 ALA2        0.0000 
     36 O         126.4150  -27.5435   38.8632 O.2       1 ALA2        0.0000 
     37 DU        125.3512  -27.2916   39.8903 H         6 CUB7        0.0000 
     38 NZ        126.7365  -26.9357   36.8564 N.2       3 LYS4        0.0000 
     39 O         125.6727  -26.6837   37.8835 O.2       1 ALA2        0.0000 
     40 NZ        125.9942  -26.0759   35.8767 N.2       3 LYS4        0.0000 
     41 DU        124.9304  -25.8239   36.9038 H         6 CUB7        0.0000 
     42 O         125.2520  -25.2161   34.8970 O.2       1 ALA2        0.0000 
     43 OD1       129.8267  -28.3246   44.7793 O.3       2 ASP3        0.0000 
     44 OD1       129.0844  -27.4649   43.7996 O.3       2 ASP3        0.0000 
     45 OD1       130.4698  -27.1089   40.7657 O.3       2 ASP3        0.0000 
     46 OD1       129.4060  -26.8570   41.7928 O.3       2 ASP3        0.0000 
     47 OD1       128.3422  -26.6051   42.8199 O.3       2 ASP3        0.0000 
     48 OD1       127.2784  -26.3531   43.8469 O.3       2 ASP3        0.0000 
     49 OD1       126.2146  -26.1012   44.8740 O.3       2 ASP3        0.0000 
     50 CA        130.7913  -26.5011   38.7590 C.3       5 GLY6        0.0000 
     51 CZ        129.7275  -26.2491   39.7860 C.ar      4 PHE5        0.0000 
     52 CZ        128.6637  -25.9972   40.8131 C.ar      4 PHE5        0.0000 
     53 CA        127.5999  -25.7453   41.8402 C.3       5 GLY6        0.0000 
     54 CA        126.5361  -25.4934   42.8672 C.3       5 GLY6        0.0000 
     55 CZ        130.0491  -25.6413   37.7793 C.ar      4 PHE5        0.0000 
     56 CZ        128.9853  -25.3894   38.8063 C.ar      4 PHE5        0.0000 
     57 CZ        127.9215  -25.1374   39.8334 C.ar      4 PHE5        0.0000 
     58 CA        126.8577  -24.8855   40.8605 C.3       5 GLY6        0.0000 
     59 CZ        128.2430  -24.5296   37.8266 C.ar      4 PHE5        0.0000 
     60 CZ        126.1154  -24.0257   39.8808 C.ar      4 PHE5        0.0000 
     61 CZ        126.4369  -23.4179   37.8740 C.ar      4 PHE5        0.0000 
     62 CZ        125.3731  -23.1659   38.9011 C.ar      4 PHE5        0.0000 
     63 OD1       131.3332  -25.9186   45.7495 O.3       2 ASP3        0.0000 
     64 NZ        125.7609  -30.8220   43.3714 N.2       3 LYS4        0.0000 
     65 CA        129.2738  -30.9700   38.2834 C.3       5 GLY6        0.0000 
     66 NZ        128.2100  -30.7180   39.3105 N.2       3 LYS4        0.0000 
     67 NZ        127.1462  -30.4661   40.3375 N.2       3 LYS4        0.0000 
     68 NZ        126.0824  -30.2142   41.3646 N.2       3 LYS4        0.0000 
     69 O         128.5316  -30.1102   37.3037 O.2       1 ALA2        0.0000 
     70 O         126.4040  -29.6063   39.3578 O.2       1 ALA2        0.0000 
     71 O         125.3402  -29.3544   40.3849 O.2       1 ALA2        0.0000 
     72 OD1       130.5799  -27.1216   45.2644 O.3       2 ASP3        0.0000 
     73 OD1       130.9015  -26.5137   43.2576 O.3       2 ASP3        0.0000 
     74 OD1       131.2230  -25.9059   41.2508 O.3       2 ASP3        0.0000 
     75 CA        130.1592  -25.6540   42.2779 C.3       5 GLY6        0.0000 
     76 CZ        130.4808  -25.0461   40.2711 C.ar      4 PHE5        0.0000 
     77 CZ        129.4170  -24.7942   41.2982 C.ar      4 PHE5        0.0000 
@<TRIPOS>BOND
@<TRIPOS>SUBSTRUCTURE
     1 ALA2       32 GROUP   
     2 ASP3        2 GROUP   
     3 LYS4        1 GROUP   
     4 PHE5       19 GROUP   
     5 GLY6        9 GROUP   
     6 CUB7        7 GROUP   
@<TRIPOS>SET

