#    Name: 4dqi_DCP_1_INTS_M
#    Modification time : Mon Apr  7 22:55:19 2014

@<TRIPOS>MOLECULE
4dqi_DCP_1_INTS_M
   58     0    12     0     0
SMALL
NO_CHARGES


@<TRIPOS>ATOM
      1 CA        126.6365  -24.0010   42.1325 C.3       4 GLC5        0.0000 
      2 CA        125.2740  -24.6080   40.5320 C.3      12 GLL5        0.0000 
      3 CA        127.9990  -23.3940   43.7330 C.3       8 GLP5        0.0000 
      4 CA        129.4275  -24.3865   38.0550 C.3       4 GLC5        0.0000 
      5 CA        128.3720  -25.7590   37.6280 C.3      12 GLL5        0.0000 
      6 CA        130.4830  -23.0140   38.4820 C.3       8 GLP5        0.0000 
      7 CA        129.2610  -24.5095   39.0540 C.3       4 GLC5        0.0000 
      8 CA        129.1210  -26.2120   38.7570 C.3      12 GLL5        0.0000 
      9 CA        129.4010  -22.8070   39.3510 C.3       8 GLP5        0.0000 
     10 N         126.6375  -28.6480   37.6030 N.am      1 SEC2        0.0000 
     11 N         127.3100  -27.5910   38.5140 N.am      9 SEL2        0.0000 
     12 N         125.9650  -29.7050   36.6920 N.am      5 SEP2        0.0000 
     13 N         131.8130  -26.1910   37.6720 N.am      1 SEC2        0.0000 
     14 N         130.5670  -26.1000   38.6100 N.am      9 SEL2        0.0000 
     15 N         133.0590  -26.2820   36.7340 N.am      5 SEP2        0.0000 
     16 CA        129.9615  -30.1730   40.0620 C.3       4 GLC5        0.0000 
     17 CA        128.9220  -28.2340   40.1780 C.3      12 GLL5        0.0000 
     18 CA        131.0010  -32.1120   39.9460 C.3       8 GLP5        0.0000 
     19 NZ        128.3505  -25.9695   44.5125 N.4       2 LYC4        0.0000 
     20 NZ        127.8780  -26.9240   43.5690 N.4      10 LYL4        0.0000 
     21 NZ        128.8230  -25.0150   45.4560 N.4       6 LYP4        0.0000 
     22 N         128.3505  -25.9695   44.5125 N.am      1 SEC2        0.0000 
     23 N         127.8780  -26.9240   43.5690 N.am      9 SEL2        0.0000 
     24 N         128.8230  -25.0150   45.4560 N.am      5 SEP2        0.0000 
     25 Zn        130.7890  -28.7680   43.0430 Zn        3 ZIC7        0.0000 
     26 Zn        129.7030  -28.5480   43.1060 Zn       11 ZIL7        0.0000 
     27 Zn        131.8750  -28.9880   42.9800 Zn        7 ZIP7        0.0000 
     28 N         131.6780  -23.6335   41.4870 N.am      1 SEC2        0.0000 
     29 N         131.4240  -24.9800   40.9470 N.am      9 SEL2        0.0000 
     30 N         131.9320  -22.2870   42.0270 N.am      5 SEP2        0.0000 
     31 Zn        131.8925  -28.1105   42.3290 Zn        3 ZIC7        0.0000 
     32 Zn        131.9100  -27.2330   41.6780 Zn       11 ZIL7        0.0000 
     33 N         133.0340  -27.0155   40.5665 N.am      1 SEC2        0.0000 
     34 N         131.9100  -27.2330   41.6780 N.am      9 SEL2        0.0000 
     35 N         134.1580  -26.7980   39.4550 N.am      5 SEP2        0.0000 
     36 N         133.5090  -25.7085   42.7225 N.am      1 SEC2        0.0000 
     37 N         131.9770  -25.3790   43.3180 N.am      9 SEL2        0.0000 
     38 N         135.0410  -26.0380   42.1270 N.am      5 SEP2        0.0000 
     39 NZ        131.7485  -24.3990   46.4495 N.4       2 LYC4        0.0000 
     40 NZ        131.5480  -25.5730   45.7290 N.4      10 LYL4        0.0000 
     41 NZ        133.1300  -22.6310   47.1130 N.4       6 LYP4        0.0000 
     42 NZ        130.1855  -25.2940   45.5925 N.4       2 LYC4        0.0000 
     43 N         131.7485  -24.3990   46.4495 N.am      1 SEC2        0.0000 
     44 N         131.5480  -25.5730   45.7290 N.am      9 SEL2        0.0000 
     45 N         131.9490  -23.2250   47.1700 N.am      5 SEP2        0.0000 
     46 N         130.1855  -25.2940   45.5925 N.am      1 SEC2        0.0000 
     47 Zn        132.1300  -28.3350   43.7235 Zn        3 ZIC7        0.0000 
     48 Zn        132.3850  -27.6820   44.4670 Zn       11 ZIL7        0.0000 
     49 NZ        133.9375  -24.3395   45.5325 N.4       2 LYC4        0.0000 
     50 NZ        133.8470  -25.6230   44.8340 N.4      10 LYL4        0.0000 
     51 N         134.4440  -25.8305   43.4805 N.am      1 SEC2        0.0000 
     52 N         133.8470  -25.6230   44.8340 N.am      9 SEL2        0.0000 
     53 N         133.9375  -24.3395   45.5325 N.am      1 SEC2        0.0000 
     54 N         134.0280  -23.0560   46.2310 N.am      5 SEP2        0.0000 
     55 CA        129.9952  -25.8103   36.6957 C.3       4 GLC5        0.0000 
     56 CA        131.2440  -25.6350   35.1990 C.3       8 GLP5        0.0000 
     57 CA        130.6656  -28.2996   38.8820 C.3       4 GLC5        0.0000 
     58 CA        132.4150  -29.0230   38.2850 C.3       8 GLP5        0.0000 
@<TRIPOS>BOND
@<TRIPOS>SUBSTRUCTURE
     1 SEC2       10 GROUP        1 X    SEC  0     ROOT SEC X 2
     2 LYC4       19 GROUP        1 X    LYC  0     **** LYC X 4
     3 ZIC7       25 GROUP        1 X    ZIC  0     **** ZIC X 5
     4 GLC5        1 GROUP        1 X    GLC  0     **** GLC X 6
     5 SEP2       12 GROUP        1 Y    SEP  0     ROOT SEP Y 9
     6 LYP4       21 GROUP        1 Y    LYP  0     **** LYP Y 11
     7 ZIP7       27 GROUP        1 Y    ZIP  0     **** ZIP Y 12
     8 GLP5        3 GROUP        1 Y    GLP  0     **** GLP Y 13
     9 SEL2       11 GROUP        1 Z    SEL  0     ROOT SEL Z 16
    10 LYL4       20 GROUP        1 Z    LYL  0     **** LYL Z 18
    11 ZIL7       26 GROUP        1 Z    ZIL  0     **** ZIL Z 19
    12 GLL5        2 GROUP        1 Z    GLL  0     **** GLL Z 20
@<TRIPOS>SET

