#    Name: 4dqi_DCP_1_ligand
#    Modification time : Mon Apr  7 22:55:20 2014

@<TRIPOS>MOLECULE
4dqi_DCP_1_ligand
   40    41     1     0     0
SMALL
NO_CHARGES


@<TRIPOS>ATOM
      1 N1        126.1050  -25.4890   38.5000 N.am      1 DCP902      0.0000 
      2 C2        125.4180  -24.5550   37.8220 C.2       1 DCP902      0.0000 
      3 N3        124.6510  -23.6880   38.4600 N.2       1 DCP902      0.0000 
      4 C4        124.5600  -23.6790   39.8000 C.2       1 DCP902      0.0000 
      5 C5        125.2740  -24.6080   40.5320 C.2       1 DCP902      0.0000 
      6 C6        126.0560  -25.5140   39.8610 C.2       1 DCP902      0.0000 
      7 O2        125.4580  -24.5080   36.5140 O.2       1 DCP902      0.0000 
      8 N4        123.7550  -22.7470   40.4390 N.pl3     1 DCP902      0.0000 
      9 C1'       127.0210  -26.4220   37.8090 C.3       1 DCP902      0.0000 
     10 C2'       128.3720  -25.7590   37.6280 C.3       1 DCP902      0.0000 
     11 C3'       129.1210  -26.2120   38.7570 C.3       1 DCP902      0.0000 
     12 C4'       128.7000  -27.6250   38.8030 C.3       1 DCP902      0.0000 
     13 O4'       127.3100  -27.5910   38.5140 O.3       1 DCP902      0.0000 
     14 O3'       130.5670  -26.1000   38.6100 O.3       1 DCP902      0.0000 
     15 C5'       128.9220  -28.2340   40.1780 C.3       1 DCP902      0.0000 
     16 O5'       128.1420  -27.7520   41.2420 O.3       1 DCP902      0.0000 
     17 PA        128.8880  -27.3460   42.6080 P.3       1 DCP902      0.0000 
     18 O1A       127.8780  -26.9240   43.5690 O.co2     1 DCP902      0.0000 
     19 O2A       129.7030  -28.5480   43.1060 O.co2     1 DCP902      0.0000 
     20 O3A       129.8000  -26.0320   42.3280 O.3       1 DCP902      0.0000 
     21 PB        131.3650  -25.9960   42.0660 P.3       1 DCP902      0.0000 
     22 O1B       131.4240  -24.9800   40.9470 O.co2     1 DCP902      0.0000 
     23 O2B       131.9100  -27.2330   41.6780 O.co2     1 DCP902      0.0000 
     24 O3B       131.9770  -25.3790   43.3180 O.3       1 DCP902      0.0000 
     25 PG        132.4270  -26.1230   44.6480 P.3       1 DCP902      0.0000 
     26 O1G       131.5480  -25.5730   45.7290 O.co2     1 DCP902      0.0000 
     27 O2G       132.3850  -27.6820   44.4670 O.co2     1 DCP902      0.0000 
     28 O3G       133.8470  -25.6230   44.8340 O.co2     1 DCP902      0.0000 
     29 H         125.2178  -24.6166   41.5540 H         1 DCP902      0.0000 
     30 H         126.6052  -26.2124   40.3914 H         1 DCP902      0.0000 
     31 H         123.2431  -22.1266   39.8447 H         1 DCP902      0.0000 
     32 H         123.7563  -22.7762   41.4386 H         1 DCP902      0.0000 
     33 H         126.6532  -26.6391   36.8143 H         1 DCP902      0.0000 
     34 H         128.2343  -24.6951   37.6338 H         1 DCP902      0.0000 
     35 H         128.7954  -26.0931   36.7007 H         1 DCP902      0.0000 
     36 H         128.7670  -25.7359   39.6494 H         1 DCP902      0.0000 
     37 H         129.2309  -28.1852   38.0707 H         1 DCP902      0.0000 
     38 H         130.0290  -28.1277   40.4037 H         1 DCP902      0.0000 
     39 H         128.7991  -29.3558   40.0584 H         1 DCP902      0.0000 
     40 H         130.8207  -25.2982   39.1512 H         1 DCP902      0.0000 
@<TRIPOS>BOND
     1    2    1 am   
     2    6    1 1    
     3    9    1 1    
     4    3    2 1    
     5    7    2 2    
     6    4    3 2    
     7    5    4 1    
     8    8    4 1    
     9    6    5 2    
    10   29    5 1    
    11   30    6 1    
    12   31    8 1    
    13   32    8 1    
    14   10    9 1    
    15   13    9 1    
    16   33    9 1    
    17   11   10 1    
    18   34   10 1    
    19   35   10 1    
    20   12   11 1    
    21   14   11 1    
    22   36   11 1    
    23   13   12 1    
    24   15   12 1    
    25   37   12 1    
    26   40   14 1    
    27   16   15 1    
    28   38   15 1    
    29   39   15 1    
    30   17   16 1    
    31   18   17 ar   
    32   19   17 ar   
    33   20   17 1    
    34   21   20 1    
    35   22   21 ar   
    36   23   21 ar   
    37   24   21 1    
    38   25   24 1    
    39   26   25 ar   
    40   27   25 ar   
    41   28   25 ar   
@<TRIPOS>SUBSTRUCTURE
     1 DCP902      1 GROUP   
@<TRIPOS>SET

