#    Name: 3r1n_05B_1_INTS_M
#    Modification time : Tue Mar 25 10:27:47 2014

@<TRIPOS>MOLECULE
3r1n_05B_1_INTS_M
   71     0     9     0     0
SMALL
NO_CHARGES


@<TRIPOS>ATOM
      1 CA         19.1960    9.1015   10.8800 C.3       3 GLC5        0.0000 
      2 CA         17.4500    7.8940   11.3790 C.3       9 GLL5        0.0000 
      3 CA         20.9420   10.3090   10.3810 C.3       6 GLP5        0.0000 
      4 CA         18.5985    7.4055   10.1070 C.3       3 GLC5        0.0000 
      5 CA         19.7470    6.9170    8.8350 C.3       6 GLP5        0.0000 
      6 O          16.7530    5.5190   10.1810 O.2       1 ALC1        0.0000 
      7 O          16.5730    7.0240   10.5630 O.2       7 ALL1        0.0000 
      8 O          16.9330    4.0140    9.7990 O.2       4 ALP1        0.0000 
      9 CA         19.9855    9.7420   12.1650 C.3       3 GLC5        0.0000 
     10 CA         19.0290    9.1750   13.9490 C.3       9 GLL5        0.0000 
     11 CA         18.4125    5.6730   15.6020 C.3       3 GLC5        0.0000 
     12 CA         18.3350    6.8140   14.1800 C.3       9 GLL5        0.0000 
     13 CA         18.4900    4.5320   17.0240 C.3       6 GLP5        0.0000 
     14 N          15.2800    6.5560    8.0870 N.am      2 SEC2        0.0000 
     15 N          14.6070    6.7170    9.3790 N.am      8 SEL2        0.0000 
     16 N          15.9530    6.3950    6.7950 N.am      5 SEP2        0.0000 
     17 CA         12.2270    9.6465    9.7295 C.3       3 GLC5        0.0000 
     18 CA         13.4260    8.8780   11.3130 C.3       9 GLL5        0.0000 
     19 CA         11.0280   10.4150    8.1460 C.3       6 GLP5        0.0000 
     20 CA         13.4060   11.9415   11.8135 C.3       3 GLC5        0.0000 
     21 CA         12.3890   10.5580   12.9240 C.3       9 GLL5        0.0000 
     22 CA         14.4230   13.3250   10.7030 C.3       6 GLP5        0.0000 
     23 CA         10.5150    9.9875   10.6365 C.3       3 GLC5        0.0000 
     24 CA         11.1290   10.6720   12.3490 C.3       9 GLL5        0.0000 
     25 CA          9.9010    9.3030    8.9240 C.3       6 GLP5        0.0000 
     26 CA          9.1210   11.3790   11.0410 C.3       3 GLC5        0.0000 
     27 CA         10.2270   11.5530   12.9040 C.3       9 GLL5        0.0000 
     28 CA          8.0150   11.2050    9.1780 C.3       6 GLP5        0.0000 
     29 N           9.3205   12.5905   14.8245 N.am      2 SEC2        0.0000 
     30 N          10.5090   12.2820   13.9550 N.am      8 SEL2        0.0000 
     31 N           8.1320   12.8990   15.6940 N.am      5 SEP2        0.0000 
     32 CA         11.1940   13.2255   12.7655 C.3       3 GLC5        0.0000 
     33 CA         11.7470   12.1670   14.4730 C.3       9 GLL5        0.0000 
     34 CA         10.6410   14.2840   11.0580 C.3       6 GLP5        0.0000 
     35 CA         11.8275   10.1955   15.1705 C.3       3 GLC5        0.0000 
     36 CA         11.9080    8.2240   15.8680 C.3       6 GLP5        0.0000 
     37 CA          9.8565   13.1745   16.2900 C.3       3 GLC5        0.0000 
     38 CA         11.4750   14.2490   15.6480 C.3       9 GLL5        0.0000 
     39 CA          8.2380   12.1000   16.9320 C.3       6 GLP5        0.0000 
     40 CA         12.3555   10.3755   16.2815 C.3       3 GLC5        0.0000 
     41 CA         12.8030   12.5270   16.6950 C.3       9 GLL5        0.0000 
     42 CA         12.6825   12.1085   19.4640 C.3       3 GLC5        0.0000 
     43 CA         13.0050   13.3920   17.7610 C.3       9 GLL5        0.0000 
     44 CA         12.3600   10.8250   21.1670 C.3       6 GLP5        0.0000 
     45 CA         11.2230   14.4840   19.7055 C.3       3 GLC5        0.0000 
     46 CA         13.2230   14.3110   19.8220 C.3       9 GLL5        0.0000 
     47 CA          9.2230   14.6570   19.5890 C.3       6 GLP5        0.0000 
     48 CA         12.7915   12.5680   20.4945 C.3       3 GLC5        0.0000 
     49 CA         18.9782   10.9438   13.4470 C.3       3 GLC5        0.0000 
     50 CA         17.6360    9.4600   13.3190 C.3       9 GLL5        0.0000 
     51 CA         19.6240   12.5700   13.2600 C.3       6 GLP5        0.0000 
     52 CA         16.5345   10.0796   11.2689 C.3       3 GLC5        0.0000 
     53 CA         15.6760   11.3880    9.8530 C.3       6 GLP5        0.0000 
     54 CA         10.6595   12.6983   11.8422 C.3       3 GLC5        0.0000 
     55 CA          9.3610   10.5933   14.0408 C.3       3 GLC5        0.0000 
     56 CA          8.0440   10.0740   15.4550 C.3       6 GLP5        0.0000 
     57 CA         11.9616    9.3056   14.1884 C.3       3 GLC5        0.0000 
     58 CA         12.4394   14.7301   14.3592 C.3       3 GLC5        0.0000 
     59 CA         13.1990   16.0490   13.3680 C.3       6 GLP5        0.0000 
     60 CA         10.0743   15.6608   15.8575 C.3       3 GLC5        0.0000 
     61 CA          8.5820   16.6510   15.5290 C.3       6 GLP5        0.0000 
     62 CA         13.1728   16.0872   16.2720 C.3       3 GLC5        0.0000 
     63 CA         11.6580   15.0920   16.7240 C.3       9 GLL5        0.0000 
     64 CA         14.2980   17.2870   15.2930 C.3       6 GLP5        0.0000 
     65 CA         10.5754   11.6386   16.2460 C.3       3 GLC5        0.0000 
     66 CA          8.8070   10.7270   16.6180 C.3       6 GLP5        0.0000 
     67 CA         10.8746   14.3984   18.5475 C.3       3 GLC5        0.0000 
     68 CA         14.9515   10.1277   10.8494 C.3       3 GLC5        0.0000 
     69 CA         13.2255    7.3298   12.2934 C.3       3 GLC5        0.0000 
     70 CA         14.6750    8.2680   11.2680 C.3       9 GLL5        0.0000 
     71 CA         12.2240    5.7920   12.7410 C.3       6 GLP5        0.0000 
@<TRIPOS>BOND
@<TRIPOS>SUBSTRUCTURE
     1 ALC1        6 GROUP        1 X    ALC  0     ROOT ALC X 1
     2 SEC2       14 GROUP        1 X    SEC  0     **** SEC X 2
     3 GLC5        1 GROUP        1 X    GLC  0     **** GLC X 6
     4 ALP1        8 GROUP        1 Y    ALP  0     ROOT ALP Y 8
     5 SEP2       16 GROUP        1 Y    SEP  0     **** SEP Y 9
     6 GLP5        3 GROUP        1 Y    GLP  0     **** GLP Y 13
     7 ALL1        7 GROUP        1 Z    ALL  0     ROOT ALL Z 15
     8 SEL2       15 GROUP        1 Z    SEL  0     **** SEL Z 16
     9 GLL5        2 GROUP        1 Z    GLL  0     **** GLL Z 20
@<TRIPOS>SET

