#    Name: 3r1n_05B_1_ligand
#    Modification time : Tue Mar 25 10:27:47 2014

@<TRIPOS>MOLECULE
3r1n_05B_1_ligand
   50    55     1     0     0
SMALL
NO_CHARGES


@<TRIPOS>ATOM
      1 C1         16.8500    8.2710   12.7220 C.3       1 05B1        0.0000 
      2 C2         17.4500    7.8940   11.3790 C.3       1 05B1        0.0000 
      3 N3         16.5730    7.0240   10.5630 N.am      1 05B1        0.0000 
      4 C4         15.2420    7.2660   10.3230 C.2       1 05B1        0.0000 
      5 N5         18.9410    8.0020   14.7900 N.4       1 05B1        0.0000 
      6 C6         16.8830    7.1000   13.6850 C.3       1 05B1        0.0000 
      7 C7         17.6360    9.4600   13.3190 C.3       1 05B1        0.0000 
      8 C8         19.0290    9.1750   13.9490 C.3       1 05B1        0.0000 
      9 C9         18.3350    6.8140   14.1800 C.3       1 05B1        0.0000 
     10 O10        14.6070    6.7170    9.3790 O.2       1 05B1        0.0000 
     11 C11        15.3930    8.6770   12.3890 C.2       1 05B1        0.0000 
     12 C12        14.6750    8.2680   11.2680 C.2       1 05B1        0.0000 
     13 C13        13.4260    8.8780   11.3130 C.2       1 05B1        0.0000 
     14 C14        13.4140    9.6470   12.4130 C.2       1 05B1        0.0000 
     15 N15        14.6340    9.5220   13.0410 N.pl3     1 05B1        0.0000 
     16 C16        12.3890   10.5580   12.9240 C.ar      1 05B1        0.0000 
     17 C17        11.1290   10.6720   12.3490 C.ar      1 05B1        0.0000 
     18 C18        10.2270   11.5530   12.9040 C.ar      1 05B1        0.0000 
     19 N19        10.5090   12.2820   13.9550 N.ar      1 05B1        0.0000 
     20 C20        11.7470   12.1670   14.4730 C.ar      1 05B1        0.0000 
     21 N21        12.6770   11.3270   13.9840 N.ar      1 05B1        0.0000 
     22 C22        12.0220   12.9800   15.6330 C.ar      1 05B1        0.0000 
     23 C23        11.4750   14.2490   15.6480 C.ar      1 05B1        0.0000 
     24 C24        11.6580   15.0920   16.7240 C.ar      1 05B1        0.0000 
     25 C25        12.8030   12.5270   16.6950 C.ar      1 05B1        0.0000 
     26 C26        13.0050   13.3920   17.7610 C.ar      1 05B1        0.0000 
     27 C27        12.4370   14.6830   17.7780 C.ar      1 05B1        0.0000 
     28 O28        12.7360   15.3400   18.9420 O.3       1 05B1        0.0000 
     29 C29        13.2230   14.3110   19.8220 C.3       1 05B1        0.0000 
     30 O30        13.6880   13.2470   18.9170 O.3       1 05B1        0.0000 
     31 H          18.4193    7.3907   11.5580 H         1 05B1        0.0000 
     32 H          17.6793    8.8242   10.8249 H         1 05B1        0.0000 
     33 H          17.0396    6.1748   10.1587 H         1 05B1        0.0000 
     34 H          16.5072    6.2038   13.1946 H         1 05B1        0.0000 
     35 H          16.2627    7.3144   14.5535 H         1 05B1        0.0000 
     36 H          16.9995    9.9502   14.0944 H         1 05B1        0.0000 
     37 H          17.7679   10.2314   12.5226 H         1 05B1        0.0000 
     38 H          19.7345    9.0350   13.1311 H         1 05B1        0.0000 
     39 H          19.3178   10.0591   14.5159 H         1 05B1        0.0000 
     40 H          18.2804    5.9860   14.8957 H         1 05B1        0.0000 
     41 H          18.9154    6.4737   13.3150 H         1 05B1        0.0000 
     42 H          12.7357    8.7553   10.6753 H         1 05B1        0.0000 
     43 H          14.8639   10.0121   13.8574 H         1 05B1        0.0000 
     44 H          10.8821   10.1116   11.5317 H         1 05B1        0.0000 
     45 H           9.2741   11.6228   12.4408 H         1 05B1        0.0000 
     46 H          10.9160   14.5727   14.8334 H         1 05B1        0.0000 
     47 H          11.2128   16.0202   16.7342 H         1 05B1        0.0000 
     48 H          13.2072   11.5993   16.6861 H         1 05B1        0.0000 
     49 H          12.4344   13.9339   20.4548 H         1 05B1        0.0000 
     50 H          14.0470   14.6678   20.4205 H         1 05B1        0.0000 
@<TRIPOS>BOND
     1    2    1 1    
     2    6    1 1    
     3    7    1 1    
     4   11    1 1    
     5    3    2 1    
     6   31    2 1    
     7   32    2 1    
     8    4    3 am   
     9   33    3 1    
    10   10    4 2    
    11   12    4 1    
    12    8    5 1    
    13    9    5 1    
    14    9    6 1    
    15   34    6 1    
    16   35    6 1    
    17    8    7 1    
    18   36    7 1    
    19   37    7 1    
    20   38    8 1    
    21   39    8 1    
    22   40    9 1    
    23   41    9 1    
    24   12   11 2    
    25   15   11 1    
    26   13   12 1    
    27   14   13 2    
    28   42   13 1    
    29   15   14 1    
    30   16   14 1    
    31   43   15 1    
    32   17   16 ar   
    33   21   16 ar   
    34   18   17 ar   
    35   44   17 1    
    36   19   18 ar   
    37   45   18 1    
    38   20   19 ar   
    39   21   20 ar   
    40   22   20 1    
    41   23   22 ar   
    42   25   22 ar   
    43   24   23 ar   
    44   46   23 1    
    45   27   24 ar   
    46   47   24 1    
    47   26   25 ar   
    48   48   25 1    
    49   27   26 ar   
    50   30   26 1    
    51   28   27 1    
    52   29   28 1    
    53   30   29 1    
    54   49   29 1    
    55   50   29 1    
@<TRIPOS>SUBSTRUCTURE
     1 05B1        1 GROUP   
@<TRIPOS>SET

