#    Name: 2zre_AGS_1_INTS_M
#    Modification time : Mon Apr  7 18:49:00 2014

@<TRIPOS>MOLECULE
2zre_AGS_1_INTS_M
   55     0    12     0     0
SMALL
NO_CHARGES


@<TRIPOS>ATOM
      1 NZ         -5.4715  -23.5120   -5.0785 N.4       3 LYC4        0.0000 
      2 NZ         -6.4330  -23.3220   -6.2170 N.4      11 LYL4        0.0000 
      3 NZ         -4.5100  -23.7020   -3.9400 N.4       7 LYP4        0.0000 
      4 N          -5.4715  -23.5120   -5.0785 N.am      2 SEC2        0.0000 
      5 N          -6.4330  -23.3220   -6.2170 N.am     10 SEL2        0.0000 
      6 N          -4.5100  -23.7020   -3.9400 N.am      6 SEP2        0.0000 
      7 N          -5.7195  -22.3710   -5.5315 N.am      2 SEC2        0.0000 
      8 N          -5.0060  -21.4200   -4.8460 N.am      6 SEP2        0.0000 
      9 N          -5.1400  -22.8880   -9.2175 N.am      2 SEC2        0.0000 
     10 N          -6.3570  -22.9800   -8.8210 N.am     10 SEL2        0.0000 
     11 N          -3.9230  -22.7960   -9.6140 N.am      6 SEP2        0.0000 
     12 N          -3.3205  -26.2355   -8.5040 N.am      2 SEC2        0.0000 
     13 N          -4.2990  -25.0210   -8.4740 N.am     10 SEL2        0.0000 
     14 N          -2.3420  -27.4500   -8.5340 N.am      6 SEP2        0.0000 
     15 NZ         -4.7350  -24.9055   -5.0650 N.4       3 LYC4        0.0000 
     16 NZ         -4.9600  -26.1090   -6.1900 N.4      11 LYL4        0.0000 
     17 N          -4.3195  -27.1800   -6.2705 N.am      2 SEC2        0.0000 
     18 N          -4.9600  -26.1090   -6.1900 N.am     10 SEL2        0.0000 
     19 N          -3.6790  -28.2510   -6.3510 N.am      6 SEP2        0.0000 
     20 N          -5.6485  -27.3710   -5.8075 N.am      2 SEC2        0.0000 
     21 N          -6.3370  -28.6330   -5.4250 N.am      6 SEP2        0.0000 
     22 N          -5.9490  -27.9945   -6.9195 N.am      2 SEC2        0.0000 
     23 N          -5.5610  -27.3560   -8.4140 N.am     10 SEL2        0.0000 
     24 N          -6.2250  -29.6160  -10.4660 N.am      2 SEC2        0.0000 
     25 N          -5.6900  -28.2060  -10.7800 N.am     10 SEL2        0.0000 
     26 N          -6.7600  -31.0260  -10.1520 N.am      6 SEP2        0.0000 
     27 CA         -4.3445  -25.6465  -11.3405 C.3       4 GLC5        0.0000 
     28 CA         -5.0220  -27.6420  -11.9150 C.3      12 GLL5        0.0000 
     29 CA         -3.6670  -23.6510  -10.7660 C.3       8 GLP5        0.0000 
     30 CA         -3.9635  -28.2140  -10.2465 C.3       4 GLC5        0.0000 
     31 CA         -2.9050  -28.7860   -8.5780 C.3       8 GLP5        0.0000 
     32 CA         -4.8120  -30.4460  -13.2110 C.3       4 GLC5        0.0000 
     33 CA         -5.3790  -28.4110  -13.1960 C.3      12 GLL5        0.0000 
     34 CA         -4.2450  -32.4810  -13.2260 C.3       8 GLP5        0.0000 
     35 N          -2.8655  -26.5785  -14.4430 N.am      2 SEC2        0.0000 
     36 N          -4.4700  -26.9500  -14.9160 N.am     10 SEL2        0.0000 
     37 N          -1.2610  -26.2070  -13.9700 N.am      6 SEP2        0.0000 
     38 CA         -6.4380  -29.5785  -17.0590 C.3       4 GLC5        0.0000 
     39 CA         -6.4030  -28.3570  -15.2790 C.3      12 GLL5        0.0000 
     40 CA         -6.4730  -30.8000  -18.8390 C.3       8 GLP5        0.0000 
     41 CA         -8.3520  -30.6050  -13.3595 C.3       4 GLC5        0.0000 
     42 CA         -7.2810  -29.1690  -14.3180 C.3      12 GLL5        0.0000 
     43 CA         -9.4230  -32.0410  -12.4010 C.3       8 GLP5        0.0000 
     44 O         -14.3035  -27.8415  -14.3000 O.2       1 ALC1        0.0000 
     45 O         -13.0240  -27.5030  -14.2590 O.2       9 ALL1        0.0000 
     46 O         -15.5830  -28.1800  -14.3410 O.2       5 ALP1        0.0000 
     47 CA        -10.4370  -30.8945  -17.3080 C.3       4 GLC5        0.0000 
     48 CA        -11.0910  -29.2940  -16.6140 C.3      12 GLL5        0.0000 
     49 CA         -9.7830  -32.4950  -18.0020 C.3       8 GLP5        0.0000 
     50 N          -9.2430  -30.4825  -17.0180 N.am      2 SEC2        0.0000 
     51 N          -9.8930  -29.3040  -16.0520 N.am     10 SEL2        0.0000 
     52 N          -8.5930  -31.6610  -17.9840 N.am      6 SEP2        0.0000 
     53 CA        -12.4540  -29.7063  -13.9520 C.3       4 GLC5        0.0000 
     54 CA        -10.7240  -28.0670  -14.2460 C.3      12 GLL5        0.0000 
     55 CA        -13.5560  -31.3410  -13.3570 C.3       8 GLP5        0.0000 
@<TRIPOS>BOND
@<TRIPOS>SUBSTRUCTURE
     1 ALC1       44 GROUP        1 X    ALC  0     ROOT ALC X 1
     2 SEC2        4 GROUP        1 X    SEC  0     **** SEC X 2
     3 LYC4        1 GROUP        1 X    LYC  0     **** LYC X 4
     4 GLC5       27 GROUP        1 X    GLC  0     **** GLC X 6
     5 ALP1       46 GROUP        1 Y    ALP  0     ROOT ALP Y 8
     6 SEP2        6 GROUP        1 Y    SEP  0     **** SEP Y 9
     7 LYP4        3 GROUP        1 Y    LYP  0     **** LYP Y 11
     8 GLP5       29 GROUP        1 Y    GLP  0     **** GLP Y 13
     9 ALL1       45 GROUP        1 Z    ALL  0     ROOT ALL Z 15
    10 SEL2        5 GROUP        1 Z    SEL  0     **** SEL Z 16
    11 LYL4        2 GROUP        1 Z    LYL  0     **** LYL Z 18
    12 GLL5       28 GROUP        1 Z    GLL  0     **** GLL Z 20
@<TRIPOS>SET

