#    Name: 2zre_AGS_1_ligand
#    Modification time : Mon Apr  7 18:49:00 2014

@<TRIPOS>MOLECULE
2zre_AGS_1_ligand
   43    45     1     0     0
SMALL
NO_CHARGES


@<TRIPOS>ATOM
      1 PG         -6.5790  -23.7900   -7.6110 P.3       1 AGS430      0.0000 
      2 S1G        -8.5140  -23.8420   -7.6790 S.3       1 AGS430      0.0000 
      3 O2G        -6.4330  -23.3220   -6.2170 O.co2     1 AGS430      0.0000 
      4 O3G        -6.3570  -22.9800   -8.8210 O.co2     1 AGS430      0.0000 
      5 PB         -4.9980  -26.0450   -7.6610 P.3       1 AGS430      0.0000 
      6 O1B        -4.2990  -25.0210   -8.4740 O.co2     1 AGS430      0.0000 
      7 O2B        -4.9600  -26.1090   -6.1900 O.co2     1 AGS430      0.0000 
      8 O3B        -6.4640  -25.3890   -7.7620 O.3       1 AGS430      0.0000 
      9 PA         -6.4380  -27.2100   -9.7510 P.3       1 AGS430      0.0000 
     10 O1A        -6.2820  -25.8350  -10.2880 O.co2     1 AGS430      0.0000 
     11 O2A        -7.8030  -27.7130   -9.5110 O.co2     1 AGS430      0.0000 
     12 O3A        -5.5610  -27.3560   -8.4140 O.3       1 AGS430      0.0000 
     13 O5'        -5.6900  -28.2060  -10.7800 O.3       1 AGS430      0.0000 
     14 C5'        -5.0220  -27.6420  -11.9150 C.3       1 AGS430      0.0000 
     15 C4'        -5.3790  -28.4110  -13.1960 C.3       1 AGS430      0.0000 
     16 O4'        -6.6190  -29.1350  -13.0440 O.3       1 AGS430      0.0000 
     17 C3'        -5.6800  -27.4160  -14.3180 C.3       1 AGS430      0.0000 
     18 O3'        -4.4700  -26.9500  -14.9160 O.3       1 AGS430      0.0000 
     19 C2'        -6.4030  -28.3570  -15.2790 C.3       1 AGS430      0.0000 
     20 O2'        -5.4710  -29.2160  -15.9440 O.3       1 AGS430      0.0000 
     21 C1'        -7.2810  -29.1690  -14.3180 C.3       1 AGS430      0.0000 
     22 N9         -8.6080  -28.5630  -14.0990 N.pl3     1 AGS430      0.0000 
     23 C8         -8.9730  -27.8550  -13.0390 C.2       1 AGS430      0.0000 
     24 N7        -10.2580  -27.5530  -13.1080 N.2       1 AGS430      0.0000 
     25 C5        -10.7240  -28.0670  -14.2460 C.ar      1 AGS430      0.0000 
     26 C6        -11.9800  -28.0760  -14.8480 C.ar      1 AGS430      0.0000 
     27 N6        -13.0240  -27.5030  -14.2590 N.pl3     1 AGS430      0.0000 
     28 N1        -12.1210  -28.7010  -16.0340 N.ar      1 AGS430      0.0000 
     29 C2        -11.0910  -29.2940  -16.6140 C.ar      1 AGS430      0.0000 
     30 N3         -9.8930  -29.3040  -16.0520 N.ar      1 AGS430      0.0000 
     31 C4         -9.6790  -28.7020  -14.8790 C.ar      1 AGS430      0.0000 
     32 H          -3.9293  -27.6770  -11.8017 H         1 AGS430      0.0000 
     33 H          -5.3033  -26.5909  -12.0707 H         1 AGS430      0.0000 
     34 H          -4.5892  -29.0302  -13.4926 H         1 AGS430      0.0000 
     35 H          -6.3347  -26.7035  -13.9799 H         1 AGS430      0.0000 
     36 H          -7.0187  -27.7987  -15.9066 H         1 AGS430      0.0000 
     37 H          -7.3641  -30.1616  -14.6705 H         1 AGS430      0.0000 
     38 H          -8.3686  -27.5917  -12.3033 H         1 AGS430      0.0000 
     39 H         -12.8257  -26.7017  -13.6946 H         1 AGS430      0.0000 
     40 H         -13.9138  -27.9248  -14.4333 H         1 AGS430      0.0000 
     41 H         -11.2278  -29.7725  -17.5508 H         1 AGS430      0.0000 
     42 H          -4.3791  -27.4774  -15.7607 H         1 AGS430      0.0000 
     43 H          -5.9333  -29.4978  -16.7847 H         1 AGS430      0.0000 
@<TRIPOS>BOND
     1    2    1 1    
     2    3    1 ar   
     3    4    1 ar   
     4    8    1 1    
     5    6    5 ar   
     6    7    5 ar   
     7    8    5 1    
     8   12    5 1    
     9   10    9 ar   
    10   11    9 ar   
    11   12    9 1    
    12   13    9 1    
    13   14   13 1    
    14   15   14 1    
    15   32   14 1    
    16   33   14 1    
    17   16   15 1    
    18   17   15 1    
    19   34   15 1    
    20   21   16 1    
    21   18   17 1    
    22   19   17 1    
    23   35   17 1    
    24   42   18 1    
    25   20   19 1    
    26   21   19 1    
    27   36   19 1    
    28   43   20 1    
    29   22   21 1    
    30   37   21 1    
    31   23   22 1    
    32   31   22 1    
    33   24   23 2    
    34   38   23 1    
    35   25   24 1    
    36   26   25 ar   
    37   31   25 ar   
    38   27   26 1    
    39   28   26 ar   
    40   39   27 1    
    41   40   27 1    
    42   29   28 ar   
    43   30   29 ar   
    44   41   29 1    
    45   31   30 ar   
@<TRIPOS>SUBSTRUCTURE
     1 AGS430      1 GROUP   
@<TRIPOS>SET

