#    Name: 3i60_E86_1_INTS_M
#    Modification time : Tue Mar 25 15:55:20 2014

@<TRIPOS>MOLECULE
3i60_E86_1_INTS_M
   91     0     9     0     0
SMALL
NO_CHARGES


@<TRIPOS>ATOM
      1 CA          7.5260    1.3275   47.8160 C.3       3 GLC5        0.0000 
      2 CA          7.0410   -0.6920   47.4130 C.3       9 GLL5        0.0000 
      3 CA          8.0110    3.3470   48.2190 C.3       6 GLP5        0.0000 
      4 CA          7.1180    0.0215   49.3365 C.3       3 GLC5        0.0000 
      5 CA          7.1950    0.7350   51.2600 C.3       6 GLP5        0.0000 
      6 CA          2.9540   -0.1210   47.7510 C.3       3 GLC5        0.0000 
      7 CA          4.6510   -0.6730   46.7690 C.3       9 GLL5        0.0000 
      8 CA          1.2570    0.4310   48.7330 C.3       6 GLP5        0.0000 
      9 CA          3.8840    1.1030   45.9190 C.3       3 GLC5        0.0000 
     10 CA          3.1170    2.8790   45.0690 C.3       6 GLP5        0.0000 
     11 N           2.5090   -0.0985   46.1810 N.am      2 SEC2        0.0000 
     12 N           3.6330   -1.0390   45.9970 N.am      8 SEL2        0.0000 
     13 N           1.3850    0.8420   46.3650 N.am      5 SEP2        0.0000 
     14 CA          3.4265   -3.5740   45.8790 C.3       3 GLC5        0.0000 
     15 CA          3.8310   -1.8330   44.9620 C.3       9 GLL5        0.0000 
     16 CA          3.0220   -5.3150   46.7960 C.3       6 GLP5        0.0000 
     17 CA          2.2405   -2.1960   46.4120 C.3       3 GLC5        0.0000 
     18 CA          0.6500   -2.5590   47.8620 C.3       6 GLP5        0.0000 
     19 CA          3.0260    0.0340   44.6375 C.3       3 GLC5        0.0000 
     20 CA          2.2210    1.9010   44.3130 C.3       6 GLP5        0.0000 
     21 CA          5.0440   -0.8535   43.5860 C.3       3 GLC5        0.0000 
     22 CA          6.2570    0.1260   42.2100 C.3       6 GLP5        0.0000 
     23 O           1.4785   -1.4635   44.3585 O.2       1 ALC1        0.0000 
     24 O           2.7540   -2.1640   44.1740 O.2       7 ALL1        0.0000 
     25 O           0.2030   -0.7630   44.5430 O.2       4 ALP1        0.0000 
     26 CA          2.9370   -4.1230   44.8980 C.3       3 GLC5        0.0000 
     27 CA          2.8520   -2.9310   43.0000 C.3       9 GLL5        0.0000 
     28 CA          5.0670   -1.3120   42.1380 C.3       3 GLC5        0.0000 
     29 CA          3.8770   -2.7500   42.0660 C.3       9 GLL5        0.0000 
     30 CA          0.7745   -5.6845   44.8210 C.3       3 GLC5        0.0000 
     31 CA          0.5960   -4.0790   43.9120 C.3       9 GLL5        0.0000 
     32 CA          0.9530   -7.2900   45.7300 C.3       6 GLP5        0.0000 
     33 CA          0.6230   -3.3190   45.8870 C.3       3 GLC5        0.0000 
     34 CA          9.1390   -4.9055   45.5740 C.3       3 GLC5        0.0000 
     35 CA          9.5560   -3.1650   44.7570 C.3       9 GLL5        0.0000 
     36 CA          8.7220   -6.6460   46.3910 C.3       6 GLP5        0.0000 
     37 N          12.8380   -3.0755   46.6550 N.am      2 SEC2        0.0000 
     38 N          11.6000   -2.7650   45.7830 N.am      8 SEL2        0.0000 
     39 N          14.0760   -3.3860   47.5270 N.am      5 SEP2        0.0000 
     40 CA         13.6265   -7.1955   43.2895 C.3       3 GLC5        0.0000 
     41 CA         13.5200   -5.1550   43.0600 C.3       9 GLL5        0.0000 
     42 CA         13.7330   -9.2360   43.5190 C.3       6 GLP5        0.0000 
     43 O          14.0155   -3.5285   42.2505 O.2       1 ALC1        0.0000 
     44 O          13.0100   -4.2790   42.0450 O.2       7 ALL1        0.0000 
     45 O          15.0210   -2.7780   42.4560 O.2       4 ALP1        0.0000 
     46 CA         11.2975   -9.2060   47.3130 C.3       3 GLC5        0.0000 
     47 CA         12.6550   -7.6210   46.8900 C.3       9 GLL5        0.0000 
     48 CA          9.9400  -10.7910   47.7360 C.3       6 GLP5        0.0000 
     49 CA          4.9098   -1.6224   48.2551 C.3       3 GLC5        0.0000 
     50 CA          4.2510   -2.4520   49.6490 C.3       6 GLP5        0.0000 
     51 CA          2.1547   -1.9287   41.2060 C.3       3 GLC5        0.0000 
     52 CA          0.9450   -1.0170   39.8790 C.3       6 GLP5        0.0000 
     53 CA          4.6713   -2.1175   39.9140 C.3       3 GLC5        0.0000 
     54 CA          5.4470   -1.0930   38.3320 C.3       6 GLP5        0.0000 
     55 CA          2.1825   -2.5143   40.3440 C.3       3 GLC5        0.0000 
     56 CA          3.9140   -3.5340   40.9260 C.3       9 GLL5        0.0000 
     57 CA          2.1452   -5.7355   43.6990 C.3       3 GLC5        0.0000 
     58 CA          1.8950   -4.6610   41.6030 C.3       9 GLL5        0.0000 
     59 CA          2.4120   -7.2000   45.2210 C.3       6 GLP5        0.0000 
     60 CA          1.4118   -2.6440   41.0280 C.3       3 GLC5        0.0000 
     61 CA          1.8620   -3.8810   42.7510 C.3       9 GLL5        0.0000 
     62 CA          6.2364    0.0763   45.1848 C.3       3 GLC5        0.0000 
     63 CA          6.1070   -1.9940   45.3900 C.3       9 GLL5        0.0000 
     64 CA          6.6350    1.5460   44.2440 C.3       6 GLP5        0.0000 
     65 CA          6.8907   -1.3197   43.2498 C.3       3 GLC5        0.0000 
     66 CA          7.4120   -2.5310   44.9300 C.3       9 GLL5        0.0000 
     67 CA          7.2609   -4.0361   46.5255 C.3       3 GLC5        0.0000 
     68 CA          8.6420   -2.6200   45.6260 C.3       9 GLL5        0.0000 
     69 CA          6.8210   -5.6310   47.6580 C.3       6 GLP5        0.0000 
     70 CA         13.6745   -2.8465   43.5185 C.3       3 GLC5        0.0000 
     71 CA         13.0060   -4.7450   44.4460 C.3       9 GLL5        0.0000 
     72 CA         14.0860   -0.7430   43.2840 C.3       6 GLP5        0.0000 
     73 CA         13.2803   -7.7363   44.6138 C.3       3 GLC5        0.0000 
     74 CA         13.3300   -5.8530   45.4230 C.3       9 GLL5        0.0000 
     75 CA         10.6060   -6.8833   46.4165 C.3       3 GLC5        0.0000 
     76 CA         12.3250   -6.6200   45.9940 C.3       9 GLL5        0.0000 
     77 CA         13.0240   -5.7453   47.4780 C.3       3 GLC5        0.0000 
     78 CA         13.5580   -4.3700   48.5140 C.3       6 GLP5        0.0000 
     79 CA         13.5262   -8.4895   45.2828 C.3       3 GLC5        0.0000 
     80 CA         13.4813   -9.4320   47.7028 C.3       3 GLC5        0.0000 
     81 CA         13.6430  -11.1210   48.3590 C.3       6 GLP5        0.0000 
     82 CA         14.0248   -5.9292   47.7157 C.3       3 GLC5        0.0000 
     83 CA         13.9840   -7.8650   47.2030 C.3       9 GLL5        0.0000 
     84 CA         14.2818   -7.9212   44.8535 C.3       3 GLC5        0.0000 
     85 CA         14.9990   -7.1120   46.6320 C.3       9 GLL5        0.0000 
     86 CA         14.7056   -7.2278   48.6561 C.3       3 GLC5        0.0000 
     87 CA         15.2520   -7.0280   50.4730 C.3       6 GLP5        0.0000 
     88 CA         13.7365   -5.0350   46.9266 C.3       3 GLC5        0.0000 
     89 CA         14.6620   -6.1010   45.7440 C.3       9 GLL5        0.0000 
     90 CA          9.1399   -1.2270   43.7908 C.3       3 GLC5        0.0000 
     91 CA          9.9680    0.3750   42.8410 C.3       6 GLP5        0.0000 
@<TRIPOS>BOND
@<TRIPOS>SUBSTRUCTURE
     1 ALC1       23 GROUP        1 X    ALC  0     ROOT ALC X 1
     2 SEC2       11 GROUP        1 X    SEC  0     **** SEC X 2
     3 GLC5        1 GROUP        1 X    GLC  0     **** GLC X 6
     4 ALP1       25 GROUP        1 Y    ALP  0     ROOT ALP Y 8
     5 SEP2       13 GROUP        1 Y    SEP  0     **** SEP Y 9
     6 GLP5        3 GROUP        1 Y    GLP  0     **** GLP Y 13
     7 ALL1       24 GROUP        1 Z    ALL  0     ROOT ALL Z 15
     8 SEL2       12 GROUP        1 Z    SEL  0     **** SEL Z 16
     9 GLL5        2 GROUP        1 Z    GLL  0     **** GLL Z 20
@<TRIPOS>SET

