#    Name: 3i60_E86_1_ligand
#    Modification time : Tue Mar 25 15:55:20 2014

@<TRIPOS>MOLECULE
3i60_E86_1_ligand
   54    57     1     0     0
SMALL
NO_CHARGES


@<TRIPOS>ATOM
      1 C1          7.0410   -0.6920   47.4130 C.3       1 E86401      0.0000 
      2 C2          5.9310   -1.1330   46.4940 C.ar      1 E86401      0.0000 
      3 C3          4.6510   -0.6730   46.7690 C.ar      1 E86401      0.0000 
      4 N4          3.6330   -1.0390   45.9970 N.ar      1 E86401      0.0000 
      5 C5          3.8310   -1.8330   44.9620 C.ar      1 E86401      0.0000 
      6 N6          2.7540   -2.1640   44.1740 N.pl3     1 E86401      0.0000 
      7 C7          2.8520   -2.9310   43.0000 C.ar      1 E86401      0.0000 
      8 C8          3.8770   -2.7500   42.0660 C.ar      1 E86401      0.0000 
      9 C9          3.9140   -3.5340   40.9260 C.ar      1 E86401      0.0000 
     10 C10         2.9260   -4.4890   40.6920 C.ar      1 E86401      0.0000 
     11 C11         1.8950   -4.6610   41.6030 C.ar      1 E86401      0.0000 
     12 C12         1.8620   -3.8810   42.7510 C.ar      1 E86401      0.0000 
     13 CL13        0.5960   -4.0790   43.9120 Cl        1 E86401      0.0000 
     14 N14         5.0320   -2.2850   44.6570 N.ar      1 E86401      0.0000 
     15 C15         6.1070   -1.9940   45.3900 C.ar      1 E86401      0.0000 
     16 C16         7.4120   -2.5310   44.9300 C.2       1 E86401      0.0000 
     17 C17         7.6370   -3.0000   43.6490 C.2       1 E86401      0.0000 
     18 N18         8.9330   -3.3750   43.5510 N.pl3     1 E86401      0.0000 
     19 C20         9.5560   -3.1650   44.7570 C.2       1 E86401      0.0000 
     20 C21         8.6420   -2.6200   45.6260 C.2       1 E86401      0.0000 
     21 C22        10.9690   -3.4540   44.9920 C.2       1 E86401      0.0000 
     22 O23        11.6000   -2.7650   45.7830 O.2       1 E86401      0.0000 
     23 N24        11.5670   -4.4470   44.2960 N.am      1 E86401      0.0000 
     24 C25        13.0060   -4.7450   44.4460 C.3       1 E86401      0.0000 
     25 C27        13.5200   -5.1550   43.0600 C.3       1 E86401      0.0000 
     26 O28        13.0100   -4.2790   42.0450 O.3       1 E86401      0.0000 
     27 C29        13.3300   -5.8530   45.4230 C.ar      1 E86401      0.0000 
     28 C30        12.3250   -6.6200   45.9940 C.ar      1 E86401      0.0000 
     29 C31        12.6550   -7.6210   46.8900 C.ar      1 E86401      0.0000 
     30 C32        13.9840   -7.8650   47.2030 C.ar      1 E86401      0.0000 
     31 C33        14.9990   -7.1120   46.6320 C.ar      1 E86401      0.0000 
     32 C34        14.6620   -6.1010   45.7440 C.ar      1 E86401      0.0000 
     33 H           4.5158   -0.0432   47.5848 H         1 E86401      0.0000 
     34 H           1.7941   -1.8294   44.4557 H         1 E86401      0.0000 
     35 H           4.5962   -2.0366   42.2312 H         1 E86401      0.0000 
     36 H           4.6771   -3.4139   40.2413 H         1 E86401      0.0000 
     37 H           2.9648   -5.0659   39.8405 H         1 E86401      0.0000 
     38 H           1.1629   -5.3580   41.4311 H         1 E86401      0.0000 
     39 H           6.9736   -3.0449   42.9578 H         1 E86401      0.0000 
     40 H           9.3627   -3.7341   42.7647 H         1 E86401      0.0000 
     41 H           8.7813   -2.3504   46.5143 H         1 E86401      0.0000 
     42 H          11.0495   -5.0437   43.6279 H         1 E86401      0.0000 
     43 H          13.5453   -3.8492   44.7241 H         1 E86401      0.0000 
     44 H          13.2135   -6.1967   42.8866 H         1 E86401      0.0000 
     45 H          14.6189   -5.1376   43.0945 H         1 E86401      0.0000 
     46 H          11.3423   -6.4444   45.7519 H         1 E86401      0.0000 
     47 H          11.9127   -8.1877   47.3269 H         1 E86401      0.0000 
     48 H          14.2213   -8.6192   47.8717 H         1 E86401      0.0000 
     49 H          15.9764   -7.2982   46.8609 H         1 E86401      0.0000 
     50 H          15.4049   -5.5251   45.3154 H         1 E86401      0.0000 
     51 H           7.9244   -1.0703   47.1365 H         1 E86401      0.0000 
     52 H           7.1393    0.3031   47.4258 H         1 E86401      0.0000 
     53 H           6.8799   -0.9828   48.3561 H         1 E86401      0.0000 
     54 H          13.6778   -3.5371   41.9842 H         1 E86401      0.0000 
@<TRIPOS>BOND
     1    2    1 1    
     2   51    1 1    
     3   52    1 1    
     4   53    1 1    
     5    3    2 ar   
     6   15    2 ar   
     7    4    3 ar   
     8   33    3 1    
     9    5    4 ar   
    10    6    5 1    
    11   14    5 ar   
    12    7    6 1    
    13   34    6 1    
    14    8    7 ar   
    15   12    7 ar   
    16    9    8 ar   
    17   35    8 1    
    18   10    9 ar   
    19   36    9 1    
    20   11   10 ar   
    21   37   10 1    
    22   12   11 ar   
    23   38   11 1    
    24   13   12 1    
    25   15   14 ar   
    26   16   15 1    
    27   17   16 2    
    28   20   16 1    
    29   18   17 1    
    30   39   17 1    
    31   19   18 1    
    32   40   18 1    
    33   20   19 2    
    34   21   19 1    
    35   41   20 1    
    36   22   21 2    
    37   23   21 am   
    38   24   23 1    
    39   42   23 1    
    40   25   24 1    
    41   27   24 1    
    42   43   24 1    
    43   26   25 1    
    44   44   25 1    
    45   45   25 1    
    46   54   26 1    
    47   28   27 ar   
    48   32   27 ar   
    49   29   28 ar   
    50   46   28 1    
    51   30   29 ar   
    52   47   29 1    
    53   31   30 ar   
    54   48   30 1    
    55   32   31 ar   
    56   49   31 1    
    57   50   32 1    
@<TRIPOS>SUBSTRUCTURE
     1 E86401      1 GROUP   
@<TRIPOS>SET

