#    Name: 3g8i_RO7_1_INTS_M
#    Modification time : Tue Mar 25 07:22:34 2014

@<TRIPOS>MOLECULE
3g8i_RO7_1_INTS_M
   92     0     6     0     0
SMALL
NO_CHARGES


@<TRIPOS>ATOM
      1 CA         44.2945   33.8125   38.4705 C.3       2 GLC5        0.0000 
      2 CA         45.5950   33.3750   37.1100 C.3       6 GLL5        0.0000 
      3 CA         42.9940   34.2500   39.8310 C.3       4 GLP5        0.0000 
      4 CA         45.0425   35.2620   37.1760 C.3       2 GLC5        0.0000 
      5 CA         44.4900   37.1490   37.2420 C.3       4 GLP5        0.0000 
      6 CA         48.3185   29.8345   38.2685 C.3       2 GLC5        0.0000 
      7 CA         49.8280   31.1940   38.3710 C.3       6 GLL5        0.0000 
      8 CA         46.8090   28.4750   38.1660 C.3       4 GLP5        0.0000 
      9 CA         49.2385   28.7625   37.8630 C.3       2 GLC5        0.0000 
     10 CA         50.5750   30.0860   37.9470 C.3       6 GLL5        0.0000 
     11 CA         47.9020   27.4390   37.7790 C.3       4 GLP5        0.0000 
     12 CA         53.4330   31.4625   38.4385 C.3       2 GLC5        0.0000 
     13 CA         52.2240   30.5280   39.6630 C.3       6 GLL5        0.0000 
     14 CA         54.6420   32.3970   37.2140 C.3       4 GLP5        0.0000 
     15 CA         50.5610   30.0930   41.4320 C.3       2 GLC5        0.0000 
     16 CA         51.4860   31.6320   40.0920 C.3       6 GLL5        0.0000 
     17 CA         49.6360   28.5540   42.7720 C.3       4 GLP5        0.0000 
     18 CA         51.2760   33.6470   40.6500 C.3       2 GLC5        0.0000 
     19 CA         51.0660   35.6620   41.2080 C.3       4 GLP5        0.0000 
     20 CA         49.8530   33.9975   39.3795 C.3       2 GLC5        0.0000 
     21 CA         50.2900   31.9670   39.4470 C.3       6 GLL5        0.0000 
     22 CA         49.4160   36.0280   39.3120 C.3       4 GLP5        0.0000 
     23 CA         47.6390   33.1125   35.6990 C.3       2 GLC5        0.0000 
     24 CA         47.0720   31.2530   36.2680 C.3       6 GLL5        0.0000 
     25 CA         48.2060   34.9720   35.1300 C.3       4 GLP5        0.0000 
     26 CA         47.3435   33.2495   34.5045 C.3       2 GLC5        0.0000 
     27 CA         46.4810   31.5270   33.8790 C.3       6 GLL5        0.0000 
     28 CA         47.3970   30.8250   32.0280 C.3       2 GLC5        0.0000 
     29 CA         48.3130   30.1230   30.1770 C.3       4 GLP5        0.0000 
     30 CA         47.4990   31.7675   30.9745 C.3       2 GLC5        0.0000 
     31 CA         46.6850   33.4120   31.7720 C.3       6 GLL5        0.0000 
     32 CA         41.9580   36.9425   33.3835 C.3       2 GLC5        0.0000 
     33 CA         43.7710   36.4980   33.8890 C.3       6 GLL5        0.0000 
     34 CA         40.1450   37.3870   32.8780 C.3       4 GLP5        0.0000 
     35 CA         42.8155   38.0405   31.8195 C.3       2 GLC5        0.0000 
     36 CA         44.4160   37.2470   32.4990 C.3       6 GLL5        0.0000 
     37 CA         41.2150   38.8340   31.1400 C.3       4 GLP5        0.0000 
     38 CA         46.5680   37.1365   27.8565 C.3       2 GLC5        0.0000 
     39 CA         46.5010   36.7250   29.8760 C.3       6 GLL5        0.0000 
     40 CA         46.6350   37.5480   25.8370 C.3       4 GLP5        0.0000 
     41 CA         44.5495   36.5610   29.4840 C.3       2 GLC5        0.0000 
     42 CA         42.5980   36.3970   29.0920 C.3       4 GLP5        0.0000 
     43 CA         48.4435   36.4405   31.9730 C.3       2 GLC5        0.0000 
     44 CA         47.7790   37.4680   30.2810 C.3       6 GLL5        0.0000 
     45 CA         49.1080   35.4130   33.6650 C.3       4 GLP5        0.0000 
     46 CA         49.4035   40.3675   32.5095 C.3       2 GLC5        0.0000 
     47 CA         48.6880   39.0080   31.8670 C.3       6 GLL5        0.0000 
     48 CA         50.1190   41.7270   33.1520 C.3       4 GLP5        0.0000 
     49 CA         48.8980   37.2105   32.7660 C.3       2 GLC5        0.0000 
     50 CA         47.5075   39.5250   33.3670 C.3       2 GLC5        0.0000 
     51 CA         46.3270   40.0420   34.8670 C.3       4 GLP5        0.0000 
     52 N          48.7815   36.2510   28.0110 N.am      1 SEC2        0.0000 
     53 N          49.0280   37.5890   28.2940 N.am      5 SEL2        0.0000 
     54 N          48.5350   34.9130   27.7280 N.am      3 SEP2        0.0000 
     55 N          48.9670   37.9700   27.0095 N.am      1 SEC2        0.0000 
     56 N          48.9060   38.3510   25.7250 N.am      3 SEP2        0.0000 
     57 N          46.7800   39.8880   29.1435 N.am      1 SEC2        0.0000 
     58 N          47.9770   39.3710   28.8980 N.am      5 SEL2        0.0000 
     59 N          45.5830   40.4050   29.3890 N.am      3 SEP2        0.0000 
     60 N          47.5785   40.1145   27.9020 N.am      1 SEC2        0.0000 
     61 N          47.1800   40.8580   26.9060 N.am      3 SEP2        0.0000 
     62 CA         47.1900   33.9327   36.1238 C.3       2 GLC5        0.0000 
     63 CA         44.3290   32.2107   36.6457 C.3       2 GLC5        0.0000 
     64 CA         46.7530   32.4120   37.1250 C.3       6 GLL5        0.0000 
     65 CA         42.4840   31.5280   36.1740 C.3       4 GLP5        0.0000 
     66 CA         45.4465   31.7933   38.6688 C.3       2 GLC5        0.0000 
     67 CA         44.7190   30.6930   40.2200 C.3       4 GLP5        0.0000 
     68 CA         48.5270   31.8832   40.2815 C.3       2 GLC5        0.0000 
     69 CA         46.9950   32.1860   41.6540 C.3       4 GLP5        0.0000 
     70 CA         53.4645   29.2295   39.3600 C.3       2 GLC5        0.0000 
     71 CA         54.9290   28.3250   39.5980 C.3       4 GLP5        0.0000 
     72 CA         52.0324   31.4130   37.3320 C.3       2 GLC5        0.0000 
     73 CA         51.7760   29.7400   38.5810 C.3       6 GLL5        0.0000 
     74 CA         53.0760   32.6360   36.2940 C.3       4 GLP5        0.0000 
     75 CA         51.9820   32.2178   38.0318 C.3       2 GLC5        0.0000 
     76 CA         51.4492   32.0247   41.5786 C.3       2 GLC5        0.0000 
     77 CA         51.8260   32.5260   43.4950 C.3       4 GLP5        0.0000 
     78 CA         44.4113   30.9228   34.5547 C.3       2 GLC5        0.0000 
     79 CA         46.1820   30.7880   35.1620 C.3       6 GLL5        0.0000 
     80 CA         42.4910   30.6880   34.5890 C.3       4 GLP5        0.0000 
     81 CA         46.6781   29.8926   37.0476 C.3       2 GLC5        0.0000 
     82 CA         44.4608   33.0793   31.7760 C.3       2 GLC5        0.0000 
     83 CA         45.8420   33.6110   32.8740 C.3       6 GLL5        0.0000 
     84 CA         42.6580   32.6470   31.2290 C.3       4 GLP5        0.0000 
     85 CA         47.9458   34.6670   32.4808 C.3       2 GLC5        0.0000 
     86 CA         46.5245   34.8420   34.3355 C.3       2 GLC5        0.0000 
     87 CA         44.2390   36.4950   35.6235 C.3       2 GLC5        0.0000 
     88 CA         44.2050   35.1840   34.1210 C.3       6 GLL5        0.0000 
     89 CA         45.2103   38.4573   34.0305 C.3       2 GLC5        0.0000 
     90 CA         47.4357   35.6090   32.5865 C.3       2 GLC5        0.0000 
     91 CA         45.3020   35.9310   32.0820 C.3       6 GLL5        0.0000 
     92 CA         43.8201   34.0629   32.0311 C.3       2 GLC5        0.0000 
@<TRIPOS>BOND
@<TRIPOS>SUBSTRUCTURE
     1 SEC2       52 GROUP        1 X    SEC  0     ROOT SEC X 2
     2 GLC5        1 GROUP        1 X    GLC  0     **** GLC X 6
     3 SEP2       54 GROUP        1 Y    SEP  0     ROOT SEP Y 9
     4 GLP5        3 GROUP        1 Y    GLP  0     **** GLP Y 13
     5 SEL2       53 GROUP        1 Z    SEL  0     ROOT SEL Z 16
     6 GLL5        2 GROUP        1 Z    GLL  0     **** GLL Z 20
@<TRIPOS>SET

