#    Name: 3g8i_RO7_1_ligand
#    Modification time : Tue Mar 25 07:22:34 2014

@<TRIPOS>MOLECULE
3g8i_RO7_1_ligand
   53    56     1     0     0
SMALL
NO_CHARGES


@<TRIPOS>ATOM
      1 C25        45.5950   33.3750   37.1100 C.3       1 RO71        0.0000 
      2 C7         46.7530   32.4120   37.1250 C.2       1 RO71        0.0000 
      3 O3         47.7480   32.5800   38.0350 O.3       1 RO71        0.0000 
      4 C2         48.6300   31.5530   37.7480 C.2       1 RO71        0.0000 
      5 C16        49.8280   31.1940   38.3710 C.ar      1 RO71        0.0000 
      6 C26        50.5750   30.0860   37.9470 C.ar      1 RO71        0.0000 
      7 C29        51.7760   29.7400   38.5810 C.ar      1 RO71        0.0000 
      8 C31        52.2240   30.5280   39.6630 C.ar      1 RO71        0.0000 
      9 C30        51.4860   31.6320   40.0920 C.ar      1 RO71        0.0000 
     10 C27        50.2900   31.9670   39.4470 C.ar      1 RO71        0.0000 
     11 N1         48.2380   30.7570   36.7070 N.2       1 RO71        0.0000 
     12 C4         47.0720   31.2530   36.2680 C.2       1 RO71        0.0000 
     13 C20        46.1820   30.7880   35.1620 C.3       1 RO71        0.0000 
     14 C23        46.4810   31.5270   33.8790 C.3       1 RO71        0.0000 
     15 O22        45.6220   32.6470   33.8060 O.3       1 RO71        0.0000 
     16 C13        45.8420   33.6110   32.8740 C.ar      1 RO71        0.0000 
     17 C19        46.6850   33.4120   31.7720 C.ar      1 RO71        0.0000 
     18 C17        46.8820   34.4300   30.8210 C.ar      1 RO71        0.0000 
     19 C5         45.1200   34.8690   33.0480 C.ar      1 RO71        0.0000 
     20 C15        44.2050   35.1840   34.1210 C.2       1 RO71        0.0000 
     21 C12        43.7710   36.4980   33.8890 C.2       1 RO71        0.0000 
     22 C6         45.3020   35.9310   32.0820 C.ar      1 RO71        0.0000 
     23 S9         44.4160   37.2470   32.4990 S.3       1 RO71        0.0000 
     24 C8         46.2250   35.6790   30.9340 C.ar      1 RO71        0.0000 
     25 C11        46.5010   36.7250   29.8760 C.3       1 RO71        0.0000 
     26 C14        47.7790   37.4680   30.2810 C.3       1 RO71        0.0000 
     27 O24        47.4970   38.3590   31.3810 O.3       1 RO71        0.0000 
     28 C28        48.6880   39.0080   31.8670 C.3       1 RO71        0.0000 
     29 C10        48.3050   38.1990   29.0840 C.2       1 RO71        0.0000 
     30 O21        49.0280   37.5890   28.2940 O.co2     1 RO71        0.0000 
     31 O18        47.9770   39.3710   28.8980 O.co2     1 RO71        0.0000 
     32 H          50.2354   29.5170   37.1564 H         1 RO71        0.0000 
     33 H          52.3163   28.9395   38.2717 H         1 RO71        0.0000 
     34 H          53.1035   30.2804   40.1351 H         1 RO71        0.0000 
     35 H          51.8185   32.1989   40.8796 H         1 RO71        0.0000 
     36 H          49.7483   32.7800   39.7607 H         1 RO71        0.0000 
     37 H          45.1343   30.9531   35.4351 H         1 RO71        0.0000 
     38 H          46.3238   29.7143   34.9987 H         1 RO71        0.0000 
     39 H          46.3267   30.8366   33.0456 H         1 RO71        0.0000 
     40 H          47.5346   31.8182   33.8925 H         1 RO71        0.0000 
     41 H          47.1675   32.5098   31.6548 H         1 RO71        0.0000 
     42 H          47.5162   34.2670   30.0252 H         1 RO71        0.0000 
     43 H          43.9697   34.6178   34.8087 H         1 RO71        0.0000 
     44 H          43.1740   37.0497   34.3762 H         1 RO71        0.0000 
     45 H          45.6845   37.4249   29.8286 H         1 RO71        0.0000 
     46 H          46.6542   36.2515   28.9215 H         1 RO71        0.0000 
     47 H          48.5047   36.7138   30.5736 H         1 RO71        0.0000 
     48 H          45.8947   34.3136   36.9390 H         1 RO71        0.0000 
     49 H          44.9303   33.1455   36.3991 H         1 RO71        0.0000 
     50 H          45.1034   33.3783   37.9808 H         1 RO71        0.0000 
     51 H          49.3662   38.3472   32.1886 H         1 RO71        0.0000 
     52 H          49.1279   39.5572   31.1565 H         1 RO71        0.0000 
     53 H          48.4909   39.6215   32.6318 H         1 RO71        0.0000 
@<TRIPOS>BOND
     1    2    1 1    
     2   48    1 1    
     3   49    1 1    
     4   50    1 1    
     5    3    2 1    
     6   12    2 2    
     7    4    3 1    
     8    5    4 1    
     9   11    4 2    
    10    6    5 ar   
    11   10    5 ar   
    12    7    6 ar   
    13   32    6 1    
    14    8    7 ar   
    15   33    7 1    
    16    9    8 ar   
    17   34    8 1    
    18   10    9 ar   
    19   35    9 1    
    20   36   10 1    
    21   12   11 1    
    22   13   12 1    
    23   14   13 1    
    24   37   13 1    
    25   38   13 1    
    26   15   14 1    
    27   39   14 1    
    28   40   14 1    
    29   16   15 1    
    30   17   16 ar   
    31   19   16 ar   
    32   18   17 ar   
    33   41   17 1    
    34   24   18 ar   
    35   42   18 1    
    36   20   19 1    
    37   22   19 ar   
    38   21   20 2    
    39   43   20 1    
    40   23   21 1    
    41   44   21 1    
    42   23   22 1    
    43   24   22 ar   
    44   25   24 1    
    45   26   25 1    
    46   45   25 1    
    47   46   25 1    
    48   27   26 1    
    49   29   26 1    
    50   47   26 1    
    51   28   27 1    
    52   51   28 1    
    53   52   28 1    
    54   53   28 1    
    55   30   29 ar   
    56   31   29 ar   
@<TRIPOS>SUBSTRUCTURE
     1 RO71        1 GROUP   
@<TRIPOS>SET

