#    Name: 1amu_AMP_2_INTS_M
#    Modification time : Mon Mar 24 18:31:31 2014

@<TRIPOS>MOLECULE
1amu_AMP_2_INTS_M
   65     0    15     0     0
SMALL
NO_CHARGES


@<TRIPOS>ATOM
      1 Zn        -11.9420  138.1830   65.8570 Zn        4 ZIC7        0.0000 
      2 Zn        -11.2630  137.5490   66.4340 Zn       14 ZIL7        0.0000 
      3 Zn        -12.6210  138.8170   65.2800 Zn        9 ZIP7        0.0000 
      4 N         -10.4130  137.6205   65.2080 N.am      2 SEC2        0.0000 
      5 N         -11.2630  137.5490   66.4340 N.am     12 SEL2        0.0000 
      6 N          -9.5630  137.6920   63.9820 N.am      7 SEP2        0.0000 
      7 N         -10.6160  136.3925   65.9060 N.am      2 SEC2        0.0000 
      8 N          -9.9690  135.2360   65.3780 N.am      7 SEP2        0.0000 
      9 N         -13.4110  136.0720   67.6920 N.am      2 SEC2        0.0000 
     10 N         -12.7140  137.0080   68.3630 N.am     12 SEL2        0.0000 
     11 N         -14.1080  135.1360   67.0210 N.am      7 SEP2        0.0000 
     12 NZ        -10.1205  137.7305   69.8175 N.4       3 LYC4        0.0000 
     13 NZ        -10.3150  136.6420   68.5590 N.4      13 LYL4        0.0000 
     14 NZ         -9.9260  138.8190   71.0760 N.4       8 LYP4        0.0000 
     15 N         -10.1420  135.9390   66.9685 N.am      2 SEC2        0.0000 
     16 N         -10.3150  136.6420   68.5590 N.am     12 SEL2        0.0000 
     17 CA        -10.1010  140.0870   66.0325 C.3       5 GLC5        0.0000 
     18 CA        -10.7930  140.0680   67.8160 C.3      15 GLL5        0.0000 
     19 CA         -9.4090  140.1060   64.2490 C.3      10 GLP5        0.0000 
     20 N         -10.1210  140.1570   70.4075 N.am      2 SEC2        0.0000 
     21 N         -10.3160  141.4950   69.7390 N.am     12 SEL2        0.0000 
     22 N          -9.9260  138.8190   71.0760 N.am      7 SEP2        0.0000 
     23 CA        -10.1430  141.3195   65.9835 C.3       5 GLC5        0.0000 
     24 CA        -10.8770  142.5330   67.7180 C.3      15 GLL5        0.0000 
     25 O         -12.0525  144.1345   66.5415 O.2       1 ALC1        0.0000 
     26 O         -11.9440  142.8100   66.8260 O.2      11 ALL1        0.0000 
     27 O         -12.1610  145.4590   66.2570 O.2       6 ALP1        0.0000 
     28 CA        -10.9990  145.7210   69.0530 C.3       5 GLC5        0.0000 
     29 CA        -10.7770  143.6050   68.7770 C.3      15 GLL5        0.0000 
     30 CA        -11.2210  147.8370   69.3290 C.3      10 GLP5        0.0000 
     31 N         -12.2790  145.3360   70.1330 N.am      2 SEC2        0.0000 
     32 N         -12.0550  144.0190   69.2850 N.am     12 SEL2        0.0000 
     33 N         -12.5030  146.6530   70.9810 N.am      7 SEP2        0.0000 
     34 O         -12.8840  144.8730   68.5355 O.2       1 ALC1        0.0000 
     35 O         -12.0550  144.0190   69.2850 O.2      11 ALL1        0.0000 
     36 O         -13.7130  145.7270   67.7860 O.2       6 ALP1        0.0000 
     37 O         -12.1080  144.7390   67.7710 O.2       1 ALC1        0.0000 
     38 N          -5.7025  142.3520   70.4730 N.am      2 SEC2        0.0000 
     39 N          -6.4160  143.3220   69.4080 N.am     12 SEL2        0.0000 
     40 N          -4.9890  141.3820   71.5380 N.am      7 SEP2        0.0000 
     41 CA         -5.5890  144.5500   68.4880 C.3       5 GLC5        0.0000 
     42 CA         -6.7540  144.3770   70.1430 C.3      15 GLL5        0.0000 
     43 CA         -4.4240  144.7230   66.8330 C.3      10 GLP5        0.0000 
     44 CA         -5.5010  145.7350   68.6935 C.3       5 GLC5        0.0000 
     45 CA         -5.8960  145.3700   70.6140 C.3      15 GLL5        0.0000 
     46 CA         -5.1060  146.1000   66.7730 C.3      10 GLP5        0.0000 
     47 CA         -5.7410  147.2865   69.7220 C.3       5 GLC5        0.0000 
     48 CA         -5.5860  149.2030   68.8300 C.3      10 GLP5        0.0000 
     49 O          -3.3355  146.1100   70.9605 O.2       1 ALC1        0.0000 
     50 O          -4.5910  145.3520   70.4220 O.2      11 ALL1        0.0000 
     51 O          -2.0800  146.8680   71.4990 O.2       6 ALP1        0.0000 
     52 O          -3.6870  144.5850   69.6415 O.2       1 ALC1        0.0000 
     53 O          -2.7830  143.8180   68.8610 O.2       6 ALP1        0.0000 
     54 CA         -7.6595  144.9560   72.8415 C.3       5 GLC5        0.0000 
     55 CA         -7.7790  146.4300   71.5010 C.3      15 GLL5        0.0000 
     56 CA         -7.5400  143.4820   74.1820 C.3      10 GLP5        0.0000 
     57 CA         -7.2670  146.7570   73.2885 C.3       5 GLC5        0.0000 
     58 CA         -6.7550  147.0840   75.0760 C.3      10 GLP5        0.0000 
     59 CA         -6.6825  147.8165   70.1655 C.3       5 GLC5        0.0000 
     60 CA         -9.8645  144.5265   67.2782 C.3       5 GLC5        0.0000 
     61 CA         -8.9020  145.9840   66.3090 C.3      10 GLP5        0.0000 
     62 CA         -6.8173  142.5507   71.1222 C.3       5 GLC5        0.0000 
     63 CA         -8.1090  144.4100   70.3860 C.3      15 GLL5        0.0000 
     64 CA         -6.2030  140.7080   71.9800 C.3      10 GLP5        0.0000 
     65 CA         -7.3785  144.0619   72.2821 C.3       5 GLC5        0.0000 
@<TRIPOS>BOND
@<TRIPOS>SUBSTRUCTURE
     1 ALC1       25 GROUP        1 X    ALC  0     ROOT ALC X 1
     2 SEC2        4 GROUP        1 X    SEC  0     **** SEC X 2
     3 LYC4       12 GROUP        1 X    LYC  0     **** LYC X 4
     4 ZIC7        1 GROUP        1 X    ZIC  0     **** ZIC X 5
     5 GLC5       17 GROUP        1 X    GLC  0     **** GLC X 6
     6 ALP1       27 GROUP        1 Y    ALP  0     ROOT ALP Y 8
     7 SEP2        6 GROUP        1 Y    SEP  0     **** SEP Y 9
     8 LYP4       14 GROUP        1 Y    LYP  0     **** LYP Y 11
     9 ZIP7        3 GROUP        1 Y    ZIP  0     **** ZIP Y 12
    10 GLP5       19 GROUP        1 Y    GLP  0     **** GLP Y 13
    11 ALL1       26 GROUP        1 Z    ALL  0     ROOT ALL Z 15
    12 SEL2        5 GROUP        1 Z    SEL  0     **** SEL Z 16
    13 LYL4       13 GROUP        1 Z    LYL  0     **** LYL Z 18
    14 ZIL7        2 GROUP        1 Z    ZIL  0     **** ZIL Z 19
    15 GLL5       18 GROUP        1 Z    GLL  0     **** GLL Z 20
@<TRIPOS>SET

