#    Name: 1amu_AMP_2_ligand
#    Modification time : Mon Mar 24 18:31:31 2014

@<TRIPOS>MOLECULE
1amu_AMP_2_ligand
   35    37     1     0     0
SMALL
NO_CHARGES


@<TRIPOS>ATOM
      1 P         -11.3690  137.4270   67.9020 P.3       1 AMP567      0.0000 
      2 O1P       -11.2630  137.5490   66.4340 O.co2     1 AMP567      0.0000 
      3 O2P       -12.7140  137.0080   68.3630 O.co2     1 AMP567      0.0000 
      4 O3P       -10.3150  136.6420   68.5590 O.co2     1 AMP567      0.0000 
      5 O5'       -11.3510  138.9320   68.5160 O.3       1 AMP567      0.0000 
      6 C5'       -10.7930  140.0680   67.8160 C.3       1 AMP567      0.0000 
      7 C4'       -11.1350  141.3260   68.5770 C.3       1 AMP567      0.0000 
      8 O4'       -10.3160  141.4950   69.7390 O.3       1 AMP567      0.0000 
      9 C3'       -10.8770  142.5330   67.7180 C.3       1 AMP567      0.0000 
     10 O3'       -11.9440  142.8100   66.8260 O.3       1 AMP567      0.0000 
     11 C2'       -10.7770  143.6050   68.7770 C.3       1 AMP567      0.0000 
     12 O2'       -12.0550  144.0190   69.2850 O.3       1 AMP567      0.0000 
     13 C1'       -10.0130  142.8970   69.8720 C.3       1 AMP567      0.0000 
     14 N9         -8.5860  143.3100   69.8100 N.pl3     1 AMP567      0.0000 
     15 C8         -7.5710  142.6620   69.2100 C.2       1 AMP567      0.0000 
     16 N7         -6.4160  143.3220   69.4080 N.2       1 AMP567      0.0000 
     17 C5         -6.7540  144.3770   70.1430 C.ar      1 AMP567      0.0000 
     18 C6         -5.8960  145.3700   70.6140 C.ar      1 AMP567      0.0000 
     19 N6         -4.5910  145.3520   70.4220 N.pl3     1 AMP567      0.0000 
     20 N1         -6.4640  146.3880   71.2900 N.ar      1 AMP567      0.0000 
     21 C2         -7.7790  146.4300   71.5010 C.ar      1 AMP567      0.0000 
     22 N3         -8.5950  145.4640   71.0710 N.ar      1 AMP567      0.0000 
     23 C4         -8.1090  144.4100   70.3860 C.ar      1 AMP567      0.0000 
     24 H         -11.2029  140.1492   66.8071 H         1 AMP567      0.0000 
     25 H          -9.7063  139.9903   67.7424 H         1 AMP567      0.0000 
     26 H         -12.1767  141.3183   68.8376 H         1 AMP567      0.0000 
     27 H          -9.9312  142.4320   67.2632 H         1 AMP567      0.0000 
     28 H         -10.1805  144.3964   68.4170 H         1 AMP567      0.0000 
     29 H         -10.4496  143.2781   70.8188 H         1 AMP567      0.0000 
     30 H          -7.6606  141.8298   68.7024 H         1 AMP567      0.0000 
     31 H          -4.0806  146.1270   70.7947 H         1 AMP567      0.0000 
     32 H          -4.2308  144.5650   69.9212 H         1 AMP567      0.0000 
     33 H          -8.1911  147.2541   72.0256 H         1 AMP567      0.0000 
     34 H         -11.9506  143.8055   66.7318 H         1 AMP567      0.0000 
     35 H         -12.4398  144.6043   68.5713 H         1 AMP567      0.0000 
@<TRIPOS>BOND
     1    2    1 ar   
     2    3    1 ar   
     3    4    1 ar   
     4    5    1 1    
     5    6    5 1    
     6    7    6 1    
     7   24    6 1    
     8   25    6 1    
     9    8    7 1    
    10    9    7 1    
    11   26    7 1    
    12   13    8 1    
    13   10    9 1    
    14   11    9 1    
    15   27    9 1    
    16   34   10 1    
    17   12   11 1    
    18   13   11 1    
    19   28   11 1    
    20   35   12 1    
    21   14   13 1    
    22   29   13 1    
    23   15   14 1    
    24   23   14 1    
    25   16   15 2    
    26   30   15 1    
    27   17   16 1    
    28   18   17 ar   
    29   23   17 ar   
    30   19   18 1    
    31   20   18 ar   
    32   31   19 1    
    33   32   19 1    
    34   21   20 ar   
    35   22   21 ar   
    36   33   21 1    
    37   23   22 ar   
@<TRIPOS>SUBSTRUCTURE
     1 AMP567      1 GROUP   
@<TRIPOS>SET

