#    Name: 3lxl_IZA_1_INTS_M
#    Modification time : Mon Mar 24 22:25:28 2014

@<TRIPOS>MOLECULE
3lxl_IZA_1_INTS_M
   60     0     9     0     0
SMALL
NO_CHARGES


@<TRIPOS>ATOM
      1 N          -4.2635   13.2175    2.6205 N.am      2 SEC2        0.0000 
      2 N          -2.8790   13.5630    2.7270 N.am      8 SEL2        0.0000 
      3 N          -5.6480   12.8720    2.5140 N.am      5 SEP2        0.0000 
      4 O          -2.3010   10.9010    2.7575 O.2       1 ALC1        0.0000 
      5 O          -1.4780   11.9060    3.3560 O.2       7 ALL1        0.0000 
      6 O          -3.1240    9.8960    2.1590 O.2       4 ALP1        0.0000 
      7 CA         -1.1570   10.1475    5.0150 C.3       3 GLC5        0.0000 
      8 CA         -0.2970   11.4250    3.8890 C.3       9 GLL5        0.0000 
      9 CA         -2.0170    8.8700    6.1410 C.3       6 GLP5        0.0000 
     10 CA         -0.7525   13.0245    2.0295 C.3       3 GLC5        0.0000 
     11 CA         -0.8320   14.2260    3.7800 C.3       9 GLL5        0.0000 
     12 CA         -0.6730   11.8230    0.2790 C.3       6 GLP5        0.0000 
     13 CA         -4.0665   16.9445    1.1505 C.3       3 GLC5        0.0000 
     14 CA         -3.5440   18.0760    2.6530 C.3       9 GLL5        0.0000 
     15 CA         -4.5890   15.8130   -0.3520 C.3       6 GLP5        0.0000 
     16 CA         -5.5535   17.4460    2.2335 C.3       3 GLC5        0.0000 
     17 CA         -7.5630   16.8160    1.8140 C.3       6 GLP5        0.0000 
     18 CA          4.9585   13.8535    8.4190 C.3       3 GLC5        0.0000 
     19 CA          5.0540   14.5930    6.6050 C.3       9 GLL5        0.0000 
     20 CA          4.8630   13.1140   10.2330 C.3       6 GLP5        0.0000 
     21 CA          3.0540   16.1710    9.8850 C.3       3 GLC5        0.0000 
     22 CA          3.8560   16.3250    7.8570 C.3       9 GLL5        0.0000 
     23 CA          2.2520   16.0170   11.9130 C.3       6 GLP5        0.0000 
     24 CA          4.3595   14.7195    9.0450 C.3       3 GLC5        0.0000 
     25 CA          4.7000   18.1330    4.2625 C.3       3 GLC5        0.0000 
     26 CA          5.1230   16.9580    5.8420 C.3       9 GLL5        0.0000 
     27 CA          4.2770   19.3080    2.6830 C.3       6 GLP5        0.0000 
     28 CA          6.5395   17.8700    4.6115 C.3       3 GLC5        0.0000 
     29 CA          7.9560   18.7820    3.3810 C.3       6 GLP5        0.0000 
     30 CA         -0.2575   11.8360    2.2067 C.3       3 GLC5        0.0000 
     31 CA          0.6130   12.2730    4.3800 C.3       9 GLL5        0.0000 
     32 CA          1.4975   10.7785    3.4938 C.3       3 GLC5        0.0000 
     33 CA          2.8370    9.7080    2.8530 C.3       6 GLP5        0.0000 
     34 CA         -0.9180   12.3730    5.5168 C.3       3 GLC5        0.0000 
     35 CA         -1.9940   12.8970    6.8990 C.3       6 GLP5        0.0000 
     36 CA         -1.1210   13.4303    5.4775 C.3       3 GLC5        0.0000 
     37 CA          0.3360   13.7010    4.3320 C.3       9 GLL5        0.0000 
     38 CA          1.9247   14.6055    2.9970 C.3       3 GLC5        0.0000 
     39 CA          1.2530   14.5970    4.8430 C.3       9 GLL5        0.0000 
     40 CA          2.6980   13.9310    1.1620 C.3       6 GLP5        0.0000 
     41 CA         -0.2658   15.2810    6.2080 C.3       3 GLC5        0.0000 
     42 CA         -1.6830   15.2820    7.5840 C.3       6 GLP5        0.0000 
     43 CA          1.2596   13.7688    2.6150 C.3       3 GLC5        0.0000 
     44 CA         -1.1270   15.6590    1.5354 C.3       3 GLC5        0.0000 
     45 CA         -1.0700   15.6020    3.7430 C.3       9 GLL5        0.0000 
     46 CA         -0.6640   15.7760   -0.4130 C.3       6 GLP5        0.0000 
     47 CA         -2.2938   17.9672    1.1818 C.3       3 GLC5        0.0000 
     48 CA         -2.4070   17.5410    3.1960 C.3       9 GLL5        0.0000 
     49 CA         -1.6120   18.1260   -0.5610 C.3       6 GLP5        0.0000 
     50 CA         -3.3758   18.2132    4.5385 C.3       3 GLC5        0.0000 
     51 CA         -1.4540   18.4010    3.7210 C.3       9 GLL5        0.0000 
     52 CA         -4.5590   18.4930    5.7530 C.3       6 GLP5        0.0000 
     53 CA         -1.0646   16.1165    5.8576 C.3       3 GLC5        0.0000 
     54 CA         -0.2940   17.8580    4.2590 C.3       9 GLL5        0.0000 
     55 CA          0.1027   17.4894    2.3370 C.3       3 GLC5        0.0000 
     56 CA         -0.1270   16.4860    4.2640 C.3       9 GLL5        0.0000 
     57 CA          0.7060   17.6710    0.5470 C.3       6 GLP5        0.0000 
     58 CA          4.8205   15.0880    4.3818 C.3       3 GLC5        0.0000 
     59 CA          4.2680   15.8830    6.4690 C.3       9 GLL5        0.0000 
     60 CA          4.7490   14.0780    2.5740 C.3       6 GLP5        0.0000 
@<TRIPOS>BOND
@<TRIPOS>SUBSTRUCTURE
     1 ALC1        4 GROUP        1 X    ALC  0     ROOT ALC X 1
     2 SEC2        1 GROUP        1 X    SEC  0     **** SEC X 2
     3 GLC5        7 GROUP        1 X    GLC  0     **** GLC X 6
     4 ALP1        6 GROUP        1 Y    ALP  0     ROOT ALP Y 8
     5 SEP2        3 GROUP        1 Y    SEP  0     **** SEP Y 9
     6 GLP5        9 GROUP        1 Y    GLP  0     **** GLP Y 13
     7 ALL1        5 GROUP        1 Z    ALL  0     ROOT ALL Z 15
     8 SEL2        2 GROUP        1 Z    SEL  0     **** SEL Z 16
     9 GLL5        8 GROUP        1 Z    GLL  0     **** GLL Z 20
@<TRIPOS>SET

