#    Name: 3lxl_IZA_1_ligand
#    Modification time : Mon Mar 24 22:25:28 2014

@<TRIPOS>MOLECULE
3lxl_IZA_1_ligand
   39    42     1     0     0
SMALL
NO_CHARGES


@<TRIPOS>ATOM
      1 O0         -2.8790   13.5630    2.7270 O.2       1 IZA1        0.0000 
      2 C11        -1.8130   13.2280    3.2460 C.2       1 IZA1        0.0000 
      3 N2         -1.4780   11.9060    3.3560 N.am      1 IZA1        0.0000 
      4 C12        -0.2970   11.4250    3.8890 C.2       1 IZA1        0.0000 
      5 C13         0.6130   12.2730    4.3800 C.2       1 IZA1        0.0000 
      6 C9          0.3360   13.7010    4.3320 C.ar      1 IZA1        0.0000 
      7 C1          1.2530   14.5970    4.8430 C.ar      1 IZA1        0.0000 
      8 C10        -0.8320   14.2260    3.7800 C.ar      1 IZA1        0.0000 
      9 C8         -1.0700   15.6020    3.7430 C.ar      1 IZA1        0.0000 
     10 C7         -2.2290   16.1700    3.2060 C.ar      1 IZA1        0.0000 
     11 C6         -2.4070   17.5410    3.1960 C.ar      1 IZA1        0.0000 
     12 F1         -3.5440   18.0760    2.6530 F         1 IZA1        0.0000 
     13 C5         -1.4540   18.4010    3.7210 C.ar      1 IZA1        0.0000 
     14 C4         -0.2940   17.8580    4.2590 C.ar      1 IZA1        0.0000 
     15 C3         -0.1270   16.4860    4.2640 C.ar      1 IZA1        0.0000 
     16 C0          1.0500   15.9630    4.8210 C.ar      1 IZA1        0.0000 
     17 N1          2.1140   16.6110    5.4000 N.2       1 IZA1        0.0000 
     18 C2          2.9700   15.6730    5.7670 C.2       1 IZA1        0.0000 
     19 N0          2.4820   14.4340    5.4500 N.pl3     1 IZA1        0.0000 
     20 C14         4.2680   15.8830    6.4690 C.3       1 IZA1        0.0000 
     21 C17         5.0540   14.5930    6.6050 C.3       1 IZA1        0.0000 
     22 C16         3.8560   16.3250    7.8570 C.3       1 IZA1        0.0000 
     23 C15         5.1230   16.9580    5.8420 C.3       1 IZA1        0.0000 
     24 H          -2.1828   11.1826    3.0028 H         1 IZA1        0.0000 
     25 H          -0.1346   10.3980    3.8990 H         1 IZA1        0.0000 
     26 H           1.4982   11.9797    4.7903 H         1 IZA1        0.0000 
     27 H          -2.9584   15.5512    2.8129 H         1 IZA1        0.0000 
     28 H          -1.6005   19.4094    3.7128 H         1 IZA1        0.0000 
     29 H           0.4295   18.4719    4.6479 H         1 IZA1        0.0000 
     30 H           2.9118   13.5983    5.6169 H         1 IZA1        0.0000 
     31 H           5.2623   14.1894    5.7141 H         1 IZA1        0.0000 
     32 H           5.9261   14.7370    7.0727 H         1 IZA1        0.0000 
     33 H           4.5510   13.9050    7.1281 H         1 IZA1        0.0000 
     34 H           4.6483   16.5006    8.4413 H         1 IZA1        0.0000 
     35 H           3.3166   17.1667    7.8339 H         1 IZA1        0.0000 
     36 H           3.2999   15.6330    8.3173 H         1 IZA1        0.0000 
     37 H           5.9854   17.0803    6.3332 H         1 IZA1        0.0000 
     38 H           5.3541   16.7425    4.8933 H         1 IZA1        0.0000 
     39 H           4.6604   17.8446    5.8368 H         1 IZA1        0.0000 
@<TRIPOS>BOND
     1    2    1 2    
     2    3    2 am   
     3    8    2 1    
     4    4    3 1    
     5   24    3 1    
     6    5    4 2    
     7   25    4 1    
     8    6    5 1    
     9   26    5 1    
    10    7    6 ar   
    11    8    6 ar   
    12   16    7 ar   
    13   19    7 1    
    14    9    8 ar   
    15   10    9 ar   
    16   15    9 ar   
    17   11   10 ar   
    18   27   10 1    
    19   12   11 1    
    20   13   11 ar   
    21   14   13 ar   
    22   28   13 1    
    23   15   14 ar   
    24   29   14 1    
    25   16   15 ar   
    26   17   16 1    
    27   18   17 2    
    28   19   18 1    
    29   20   18 1    
    30   30   19 1    
    31   21   20 1    
    32   22   20 1    
    33   23   20 1    
    34   31   21 1    
    35   32   21 1    
    36   33   21 1    
    37   34   22 1    
    38   35   22 1    
    39   36   22 1    
    40   37   23 1    
    41   38   23 1    
    42   39   23 1    
@<TRIPOS>SUBSTRUCTURE
     1 IZA1        1 GROUP   
@<TRIPOS>SET

