#    Name: 1day_GNP_1_INTS_M
#    Modification time : Mon Mar 24 21:36:28 2014

@<TRIPOS>MOLECULE
1day_GNP_1_INTS_M
   71     0    18     0     0
SMALL
NO_CHARGES


@<TRIPOS>ATOM
      1 NZ         23.9040   -1.7420   16.2480 N.4       4 LYC4        0.0000 
      2 NZ         24.5700   -0.4240   16.1380 N.4      16 LYL4        0.0000 
      3 NZ         23.2380   -3.0600   16.3580 N.4      10 LYP4        0.0000 
      4 Zn         24.1705    0.4020   16.2170 Zn        5 ZIC7        0.0000 
      5 Zn         24.5700   -0.4240   16.1380 Zn       17 ZIL7        0.0000 
      6 Zn         23.7710    1.2280   16.2960 Zn       11 ZIP7        0.0000 
      7 N          23.9040   -1.7420   16.2480 N.am      2 SEC2        0.0000 
      8 N          24.5700   -0.4240   16.1380 N.am     14 SEL2        0.0000 
      9 N          23.2380   -3.0600   16.3580 N.am      8 SEP2        0.0000 
     10 NZ         24.9175   -2.3150   16.5840 N.4       4 LYC4        0.0000 
     11 NZ         26.5970   -1.5700   16.8100 N.4      16 LYL4        0.0000 
     12 Zn         26.3455    0.3460   14.1240 Zn        5 ZIC7        0.0000 
     13 Zn         26.5020   -0.5280   14.6840 Zn       17 ZIL7        0.0000 
     14 Zn         26.1890    1.2200   13.5640 Zn       11 ZIP7        0.0000 
     15 OD1        25.5180    1.1595   15.5405 O.co2     3 ASC3        0.0000 
     16 OD1        26.7630    0.8800   16.6640 O.co2    15 ASL3        0.0000 
     17 OD1        24.2730    1.4390   14.4170 O.co2     9 ASP3        0.0000 
     18 NZ         27.6090    4.1010   15.5180 N.4       4 LYC4        0.0000 
     19 NZ         28.1440    2.8910   16.9740 N.4      16 LYL4        0.0000 
     20 NZ         27.0740    5.3110   14.0620 N.4      10 LYP4        0.0000 
     21 N          28.8995    3.7535   17.4965 N.am      2 SEC2        0.0000 
     22 N          28.1440    2.8910   16.9740 N.am     14 SEL2        0.0000 
     23 N          29.6550    4.6160   18.0190 N.am      8 SEP2        0.0000 
     24 NZ         27.2175    4.0500   14.4110 N.4       4 LYC4        0.0000 
     25 NZ         27.3610    2.7890   14.7600 N.4      16 LYL4        0.0000 
     26 Zn         26.7750    2.0045   14.1620 Zn        5 ZIC7        0.0000 
     27 Zn         27.3610    2.7890   14.7600 Zn       17 ZIL7        0.0000 
     28 N          27.2175    4.0500   14.4110 N.am      2 SEC2        0.0000 
     29 N          27.3610    2.7890   14.7600 N.am     14 SEL2        0.0000 
     30 N          27.0740    5.3110   14.0620 N.am      8 SEP2        0.0000 
     31 Zn         24.8280    2.0500   16.6535 Zn        5 ZIC7        0.0000 
     32 Zn         25.8850    2.8720   17.0110 Zn       17 ZIL7        0.0000 
     33 NZ         25.7760    5.2430   15.1710 N.4       4 LYC4        0.0000 
     34 NZ         24.4780    5.1750   16.2800 N.4      16 LYL4        0.0000 
     35 N          25.7760    5.2430   15.1710 N.am      2 SEC2        0.0000 
     36 N          24.4780    5.1750   16.2800 N.am     14 SEL2        0.0000 
     37 Zn         23.6685    2.1100   16.5810 Zn        5 ZIC7        0.0000 
     38 Zn         23.5660    2.9920   16.8660 Zn       17 ZIL7        0.0000 
     39 CA         26.0635    4.9215   19.5970 C.3       6 GLC5        0.0000 
     40 CA         24.7840    3.4590   19.5980 C.3      18 GLL5        0.0000 
     41 CA         27.3430    6.3840   19.5960 C.3      12 GLP5        0.0000 
     42 CA         21.5330    4.4895   18.6350 C.3       6 GLC5        0.0000 
     43 CA         22.2960    3.5420   20.2290 C.3      18 GLL5        0.0000 
     44 CA         20.7700    5.4370   17.0410 C.3      12 GLP5        0.0000 
     45 O          20.9165    2.0580   19.3655 O.2       1 ALC1        0.0000 
     46 O          21.9680    2.1390   20.0710 O.2      13 ALL1        0.0000 
     47 O          19.8650    1.9770   18.6600 O.2       7 ALP1        0.0000 
     48 CA         23.4720    6.7925   22.7665 C.3       6 GLC5        0.0000 
     49 CA         22.6890    5.3320   21.8160 C.3      18 GLL5        0.0000 
     50 CA         24.2550    8.2530   23.7170 C.3      12 GLP5        0.0000 
     51 CA         24.4135    4.7635   22.7770 C.3       6 GLC5        0.0000 
     52 CA         26.1380    4.1950   23.7380 C.3      12 GLP5        0.0000 
     53 N          18.8470   11.3450   20.3245 N.am      2 SEC2        0.0000 
     54 N          19.8750   10.2020   19.9730 N.am     14 SEL2        0.0000 
     55 N          17.8190   12.4880   20.6760 N.am      8 SEP2        0.0000 
     56 O          18.4915   10.1605   22.5035 O.2       1 ALC1        0.0000 
     57 O          19.6680    9.4810   22.1730 O.2      13 ALL1        0.0000 
     58 O          17.3150   10.8400   22.8340 O.2       7 ALP1        0.0000 
     59 O          18.3635    9.8625   23.5475 O.2       1 ALC1        0.0000 
     60 O          19.4120    8.8850   24.2610 O.2      13 ALL1        0.0000 
     61 CA         25.2018    3.8857   21.9310 C.3       6 GLC5        0.0000 
     62 CA         23.7470    3.6940   20.6500 C.3      18 GLL5        0.0000 
     63 CA         20.0607    4.1100   20.4610 C.3       6 GLC5        0.0000 
     64 CA         18.1520    4.3290   20.0890 C.3      12 GLP5        0.0000 
     65 CA         22.6920    8.0597   22.4815 C.3       6 GLC5        0.0000 
     66 CA         21.2530    7.4460   21.7750 C.3      18 GLL5        0.0000 
     67 CA         21.9420    9.5892   21.2350 C.3       6 GLC5        0.0000 
     68 CA         22.7550   11.3120   21.2240 C.3      12 GLP5        0.0000 
     69 CA         19.7490    6.9698   20.8430 C.3       6 GLC5        0.0000 
     70 CA         21.0050    8.2870   20.7170 C.3      18 GLL5        0.0000 
     71 CA         18.3690    6.0730   20.4400 C.3      12 GLP5        0.0000 
@<TRIPOS>BOND
@<TRIPOS>SUBSTRUCTURE
     1 ALC1       45 GROUP        1 X    ALC  0     ROOT ALC X 1
     2 SEC2        7 GROUP        1 X    SEC  0     **** SEC X 2
     3 ASC3       15 GROUP        1 X    ASC  0     **** ASC X 3
     4 LYC4        1 GROUP        1 X    LYC  0     **** LYC X 4
     5 ZIC7        4 GROUP        1 X    ZIC  0     **** ZIC X 5
     6 GLC5       39 GROUP        1 X    GLC  0     **** GLC X 6
     7 ALP1       47 GROUP        1 Y    ALP  0     ROOT ALP Y 8
     8 SEP2        9 GROUP        1 Y    SEP  0     **** SEP Y 9
     9 ASP3       17 GROUP        1 Y    ASP  0     **** ASP Y 10
    10 LYP4        3 GROUP        1 Y    LYP  0     **** LYP Y 11
    11 ZIP7        6 GROUP        1 Y    ZIP  0     **** ZIP Y 12
    12 GLP5       41 GROUP        1 Y    GLP  0     **** GLP Y 13
    13 ALL1       46 GROUP        1 Z    ALL  0     ROOT ALL Z 15
    14 SEL2        8 GROUP        1 Z    SEL  0     **** SEL Z 16
    15 ASL3       16 GROUP        1 Z    ASL  0     **** ASL Z 17
    16 LYL4        2 GROUP        1 Z    LYL  0     **** LYL Z 18
    17 ZIL7        5 GROUP        1 Z    ZIL  0     **** ZIL Z 19
    18 GLL5       40 GROUP        1 Z    GLL  0     **** GLL Z 20
@<TRIPOS>SET

