#    Name: 1day_GNP_1_ligand
#    Modification time : Mon Mar 24 21:36:28 2014

@<TRIPOS>MOLECULE
1day_GNP_1_ligand
   44    46     1     0     0
SMALL
NO_CHARGES


@<TRIPOS>ATOM
      1 PG         26.0150   -0.3580   16.1130 P.3       1 GNP340      0.0000 
      2 O1G        24.5700   -0.4240   16.1380 O.co2     1 GNP340      0.0000 
      3 O2G        26.5970   -1.5700   16.8100 O.co2     1 GNP340      0.0000 
      4 O3G        26.5020   -0.5280   14.6840 O.co2     1 GNP340      0.0000 
      5 N3B        26.7630    0.8800   16.6640 N.4       1 GNP340      0.0000 
      6 PB         27.0570    2.3500   16.1620 P.3       1 GNP340      0.0000 
      7 O1B        28.1440    2.8910   16.9740 O.co2     1 GNP340      0.0000 
      8 O2B        27.3610    2.7890   14.7600 O.co2     1 GNP340      0.0000 
      9 O3A        25.8850    2.8720   17.0110 O.3       1 GNP340      0.0000 
     10 PA         24.7210    3.8980   17.0240 P.3       1 GNP340      0.0000 
     11 O1A        24.4780    5.1750   16.2800 O.co2     1 GNP340      0.0000 
     12 O2A        23.5660    2.9920   16.8660 O.co2     1 GNP340      0.0000 
     13 O5'        24.9380    4.3570   18.5120 O.3       1 GNP340      0.0000 
     14 C5'        24.7840    3.4590   19.5980 C.3       1 GNP340      0.0000 
     15 C4'        23.7470    3.6940   20.6500 C.3       1 GNP340      0.0000 
     16 O4'        23.8710    5.0260   21.1820 O.3       1 GNP340      0.0000 
     17 C3'        22.2960    3.5420   20.2290 C.3       1 GNP340      0.0000 
     18 O3'        21.9680    2.1390   20.0710 O.3       1 GNP340      0.0000 
     19 C2'        21.6430    4.2400   21.4370 C.3       1 GNP340      0.0000 
     20 O2'        21.3400    3.3240   22.4910 O.3       1 GNP340      0.0000 
     21 C1'        22.6890    5.3320   21.8160 C.3       1 GNP340      0.0000 
     22 N9         22.1240    6.5320   21.2270 N.pl3     1 GNP340      0.0000 
     23 C8         22.2440    6.9130   19.9380 C.2       1 GNP340      0.0000 
     24 N7         21.6240    7.9770   19.6000 N.2       1 GNP340      0.0000 
     25 C5         21.0050    8.2870   20.7170 C.2       1 GNP340      0.0000 
     26 C6         20.1690    9.3500   20.9390 C.2       1 GNP340      0.0000 
     27 O6         19.8750   10.2020   19.9730 O.2       1 GNP340      0.0000 
     28 N1         19.6680    9.4810   22.1730 N.am      1 GNP340      0.0000 
     29 C2         20.0070    8.5550   23.1450 C.2       1 GNP340      0.0000 
     30 N2         19.4120    8.8850   24.2610 N.pl3     1 GNP340      0.0000 
     31 N3         20.7820    7.5120   23.0390 N.2       1 GNP340      0.0000 
     32 C4         21.2530    7.4460   21.7750 C.2       1 GNP340      0.0000 
     33 H          25.7883    3.3322   20.1437 H         1 GNP340      0.0000 
     34 H          24.6188    2.3925   19.2008 H         1 GNP340      0.0000 
     35 H          23.9177    2.9847   21.4820 H         1 GNP340      0.0000 
     36 H          22.1448    4.1375   19.3796 H         1 GNP340      0.0000 
     37 H          20.7770    4.7628   21.0585 H         1 GNP340      0.0000 
     38 H          22.7241    5.3913   22.8507 H         1 GNP340      0.0000 
     39 H          22.8142    6.3505   19.2887 H         1 GNP340      0.0000 
     40 H          19.0326   10.2583   22.4193 H         1 GNP340      0.0000 
     41 H          19.8945    8.6471   25.1039 H         1 GNP340      0.0000 
     42 H          18.5289    9.3451   24.1694 H         1 GNP340      0.0000 
     43 H          20.9705    2.1123   20.0058 H         1 GNP340      0.0000 
     44 H          21.8084    2.4769   22.2402 H         1 GNP340      0.0000 
@<TRIPOS>BOND
     1    2    1 ar   
     2    3    1 ar   
     3    4    1 ar   
     4    5    1 1    
     5    6    5 1    
     6    7    6 ar   
     7    8    6 ar   
     8    9    6 1    
     9   10    9 1    
    10   11   10 ar   
    11   12   10 ar   
    12   13   10 1    
    13   14   13 1    
    14   15   14 1    
    15   33   14 1    
    16   34   14 1    
    17   16   15 1    
    18   17   15 1    
    19   35   15 1    
    20   21   16 1    
    21   18   17 1    
    22   19   17 1    
    23   36   17 1    
    24   43   18 1    
    25   20   19 1    
    26   21   19 1    
    27   37   19 1    
    28   44   20 1    
    29   22   21 1    
    30   38   21 1    
    31   23   22 1    
    32   32   22 1    
    33   24   23 2    
    34   39   23 1    
    35   25   24 1    
    36   26   25 1    
    37   32   25 2    
    38   27   26 2    
    39   28   26 am   
    40   29   28 1    
    41   40   28 1    
    42   30   29 1    
    43   31   29 2    
    44   41   30 1    
    45   42   30 1    
    46   32   31 1    
@<TRIPOS>SUBSTRUCTURE
     1 GNP340      1 GROUP   
@<TRIPOS>SET

