#    Name: 1jgt_APC_2_INTS_M
#    Modification time : Tue Mar 25 08:55:02 2014

@<TRIPOS>MOLECULE
1jgt_APC_2_INTS_M
   73     0    15     0     0
SMALL
NO_CHARGES


@<TRIPOS>ATOM
      1 NZ        -47.7285  102.7230   38.0715 N.4       3 LYC4        0.0000 
      2 NZ        -47.7520  104.3860   37.1940 N.4      13 LYL4        0.0000 
      3 NZ        -47.7050  101.0600   38.9490 N.4       8 LYP4        0.0000 
      4 NZ        -44.9660  103.7560   38.8385 N.4       3 LYC4        0.0000 
      5 NZ        -45.6420  103.1330   37.5370 N.4      13 LYL4        0.0000 
      6 NZ        -44.2900  104.3790   40.1400 N.4       8 LYP4        0.0000 
      7 NZ        -46.6735  102.0965   38.2430 N.4       3 LYC4        0.0000 
      8 Zn        -44.8030  102.6830   37.2030 Zn        4 ZIC7        0.0000 
      9 Zn        -45.6420  103.1330   37.5370 Zn       14 ZIL7        0.0000 
     10 Zn        -43.9640  102.2330   36.8690 Zn        9 ZIP7        0.0000 
     11 N         -46.6735  102.0965   38.2430 N.am      2 SEC2        0.0000 
     12 N         -45.6420  103.1330   37.5370 N.am     12 SEL2        0.0000 
     13 N         -47.7050  101.0600   38.9490 N.am      7 SEP2        0.0000 
     14 NZ        -45.0225  104.9695   39.2185 N.4       3 LYC4        0.0000 
     15 NZ        -45.7550  105.5600   38.2970 N.4      13 LYL4        0.0000 
     16 N         -45.4820  107.2160   37.8240 N.am      2 SEC2        0.0000 
     17 N         -45.7550  105.5600   38.2970 N.am     12 SEL2        0.0000 
     18 N         -45.2090  108.8720   37.3510 N.am      7 SEP2        0.0000 
     19 N         -45.0225  104.9695   39.2185 N.am      2 SEC2        0.0000 
     20 N         -44.2900  104.3790   40.1400 N.am      7 SEP2        0.0000 
     21 N         -44.3165  106.1995   32.7740 N.am      2 SEC2        0.0000 
     22 N         -44.8840  104.8510   33.3730 N.am     12 SEL2        0.0000 
     23 N         -43.7490  107.5480   32.1750 N.am      7 SEP2        0.0000 
     24 Zn        -43.8855  102.8285   35.9850 Zn        4 ZIC7        0.0000 
     25 Zn        -43.8070  103.4240   35.1010 Zn       14 ZIL7        0.0000 
     26 Zn        -44.5245  101.5355   36.2470 Zn        4 ZIC7        0.0000 
     27 Zn        -45.0850  100.8380   35.6250 Zn       14 ZIL7        0.0000 
     28 CA        -46.4360  104.4315   32.7200 C.3       5 GLC5        0.0000 
     29 CA        -46.1170  102.8380   34.0650 C.3      15 GLL5        0.0000 
     30 CA        -46.7550  106.0250   31.3750 C.3      10 GLP5        0.0000 
     31 CA        -42.2685   99.1220   32.4155 C.3       5 GLC5        0.0000 
     32 CA        -43.4710  100.3860   32.5760 C.3      15 GLL5        0.0000 
     33 CA        -41.0660   97.8580   32.2550 C.3      10 GLP5        0.0000 
     34 CA        -40.9830  103.6550   32.6830 C.3       5 GLC5        0.0000 
     35 CA        -42.8480  102.8730   31.9800 C.3      15 GLL5        0.0000 
     36 CA        -39.1180  104.4370   33.3860 C.3      10 GLP5        0.0000 
     37 N         -40.3905  104.1635   31.0710 N.am      2 SEC2        0.0000 
     38 N         -41.7320  104.0810   30.1930 N.am     12 SEL2        0.0000 
     39 N         -39.0490  104.2460   31.9490 N.am      7 SEP2        0.0000 
     40 O         -41.8005  105.1700   29.4060 O.2       1 ALC1        0.0000 
     41 O         -41.7320  104.0810   30.1930 O.2      11 ALL1        0.0000 
     42 O         -41.8690  106.2590   28.6190 O.2       6 ALP1        0.0000 
     43 CA        -43.2975  101.0015   28.4600 C.3       5 GLC5        0.0000 
     44 CA        -43.2840  102.3370   29.6330 C.3      15 GLL5        0.0000 
     45 CA        -43.3110   99.6660   27.2870 C.3      10 GLP5        0.0000 
     46 CA        -48.1310  102.9675   25.4050 C.3       5 GLC5        0.0000 
     47 CA        -47.7100  103.2440   27.3500 C.3      15 GLL5        0.0000 
     48 CA        -48.5520  102.6910   23.4600 C.3      10 GLP5        0.0000 
     49 O         -49.7515  103.5155   26.3615 O.2       1 ALC1        0.0000 
     50 O         -48.8970  102.9580   27.2380 O.2      11 ALL1        0.0000 
     51 O         -50.6060  104.0730   25.4850 O.2       6 ALP1        0.0000 
     52 N         -47.7540  104.6405   25.3785 N.am      2 SEC2        0.0000 
     53 N         -47.1050  104.2460   26.6040 N.am     12 SEL2        0.0000 
     54 N         -48.4030  105.0350   24.1530 N.am      7 SEP2        0.0000 
     55 CA        -43.6665  104.5175   26.4655 C.3       5 GLC5        0.0000 
     56 CA        -45.7640  104.6500   26.6540 C.3      15 GLL5        0.0000 
     57 CA        -41.5690  104.3850   26.2770 C.3      10 GLP5        0.0000 
     58 CA        -44.8385  106.3605   27.4615 C.3       5 GLC5        0.0000 
     59 CA        -43.9130  108.0710   28.2690 C.3      10 GLP5        0.0000 
     60 CA        -46.4640  105.8710   25.5090 C.3       5 GLC5        0.0000 
     61 CA        -47.1640  107.0920   24.3640 C.3      10 GLP5        0.0000 
     62 CA        -45.1395  103.7535   25.2055 C.3       5 GLC5        0.0000 
     63 CA        -44.5150  102.8570   23.7570 C.3      10 GLP5        0.0000 
     64 CA        -44.3660  101.3605   27.7750 C.3       5 GLC5        0.0000 
     65 CA        -45.4210  103.0550   28.2630 C.3      15 GLL5        0.0000 
     66 CA        -41.1190  101.3945   32.7737 C.3       5 GLC5        0.0000 
     67 CA        -42.6440  101.3610   31.7310 C.3      15 GLL5        0.0000 
     68 CA        -39.4920  100.6720   33.6920 C.3      10 GLP5        0.0000 
     69 CA        -42.6690  105.1457   31.5945 C.3       5 GLC5        0.0000 
     70 CA        -42.4250  107.1270   31.9060 C.3      10 GLP5        0.0000 
     71 CA        -41.8350  103.3777   28.6788 C.3       5 GLC5        0.0000 
     72 CA        -42.9780  103.4560   30.5860 C.3      15 GLL5        0.0000 
     73 CA        -40.5390  103.8590   27.2480 C.3      10 GLP5        0.0000 
@<TRIPOS>BOND
@<TRIPOS>SUBSTRUCTURE
     1 ALC1       40 GROUP        1 X    ALC  0     ROOT ALC X 1
     2 SEC2       11 GROUP        1 X    SEC  0     **** SEC X 2
     3 LYC4        1 GROUP        1 X    LYC  0     **** LYC X 4
     4 ZIC7        8 GROUP        1 X    ZIC  0     **** ZIC X 5
     5 GLC5       28 GROUP        1 X    GLC  0     **** GLC X 6
     6 ALP1       42 GROUP        1 Y    ALP  0     ROOT ALP Y 8
     7 SEP2       13 GROUP        1 Y    SEP  0     **** SEP Y 9
     8 LYP4        3 GROUP        1 Y    LYP  0     **** LYP Y 11
     9 ZIP7       10 GROUP        1 Y    ZIP  0     **** ZIP Y 12
    10 GLP5       30 GROUP        1 Y    GLP  0     **** GLP Y 13
    11 ALL1       41 GROUP        1 Z    ALL  0     ROOT ALL Z 15
    12 SEL2       12 GROUP        1 Z    SEL  0     **** SEL Z 16
    13 LYL4        2 GROUP        1 Z    LYL  0     **** LYL Z 18
    14 ZIL7        9 GROUP        1 Z    ZIL  0     **** ZIL Z 19
    15 GLL5       29 GROUP        1 Z    GLL  0     **** GLL Z 20
@<TRIPOS>SET

