#    Name: 1jgt_APC_2_ligand
#    Modification time : Tue Mar 25 08:55:02 2014

@<TRIPOS>MOLECULE
1jgt_APC_2_ligand
   45    47     1     0     0
SMALL
NO_CHARGES


@<TRIPOS>ATOM
      1 PG        -46.2350  104.4710   37.2170 P.3       1 APC802      0.0000 
      2 O1G       -47.7520  104.3860   37.1940 O.co2     1 APC802      0.0000 
      3 O2G       -45.6420  103.1330   37.5370 O.co2     1 APC802      0.0000 
      4 O3G       -45.7550  105.5600   38.2970 O.co2     1 APC802      0.0000 
      5 PB        -45.0830  104.0080   34.6150 P.3       1 APC802      0.0000 
      6 O1B       -44.8840  104.8510   33.3730 O.co2     1 APC802      0.0000 
      7 O2B       -43.8070  103.4240   35.1010 O.co2     1 APC802      0.0000 
      8 O3B       -45.7270  104.9100   35.7620 O.3       1 APC802      0.0000 
      9 PA        -45.4930  101.1360   34.2130 P.3       1 APC802      0.0000 
     10 O1A       -45.0850  100.8380   35.6250 O.co2     1 APC802      0.0000 
     11 O2A       -46.5680  100.1430   33.8420 O.co2     1 APC802      0.0000 
     12 C3A       -46.1170  102.8380   34.0650 C.3       1 APC802      0.0000 
     13 O5'       -44.1670  100.8900   33.3550 O.3       1 APC802      0.0000 
     14 C5'       -43.4710  100.3860   32.5760 C.3       1 APC802      0.0000 
     15 C4'       -42.6440  101.3610   31.7310 C.3       1 APC802      0.0000 
     16 O4'       -42.9990  101.1480   30.3360 O.3       1 APC802      0.0000 
     17 C3'       -42.8480  102.8730   31.9800 C.3       1 APC802      0.0000 
     18 O3'       -41.8990  103.5080   32.8280 O.3       1 APC802      0.0000 
     19 C2'       -42.9780  103.4560   30.5860 C.3       1 APC802      0.0000 
     20 O2'       -41.7320  104.0810   30.1930 O.3       1 APC802      0.0000 
     21 C1'       -43.2840  102.3370   29.6330 C.3       1 APC802      0.0000 
     22 N9        -44.7400  102.2690   29.2230 N.pl3     1 APC802      0.0000 
     23 C8        -45.7290  101.4050   29.7150 C.2       1 APC802      0.0000 
     24 N7        -46.9290  101.5610   29.1820 N.2       1 APC802      0.0000 
     25 C5        -46.7660  102.5990   28.2580 C.ar      1 APC802      0.0000 
     26 C6        -47.7100  103.2440   27.3500 C.ar      1 APC802      0.0000 
     27 N6        -48.8970  102.9580   27.2380 N.pl3     1 APC802      0.0000 
     28 N1        -47.1050  104.2460   26.6040 N.ar      1 APC802      0.0000 
     29 C2        -45.7640  104.6500   26.6540 C.ar      1 APC802      0.0000 
     30 N3        -44.8940  104.0820   27.4670 N.ar      1 APC802      0.0000 
     31 C4        -45.4210  103.0550   28.2630 C.ar      1 APC802      0.0000 
     32 H         -46.2960  102.9595   33.0222 H         1 APC802      0.0000 
     33 H         -47.0153  102.8361   34.6370 H         1 APC802      0.0000 
     34 H         -43.9683   99.7173   31.7736 H         1 APC802      0.0000 
     35 H         -42.6676   99.6557   32.9755 H         1 APC802      0.0000 
     36 H         -41.5906  101.1363   31.8530 H         1 APC802      0.0000 
     37 H         -43.8845  102.9410   32.4153 H         1 APC802      0.0000 
     38 H         -43.7846  104.1552   30.5764 H         1 APC802      0.0000 
     39 H         -42.6703  102.4232   28.7661 H         1 APC802      0.0000 
     40 H         -45.5012  100.7282   30.4234 H         1 APC802      0.0000 
     41 H         -49.1446  102.0140   27.4563 H         1 APC802      0.0000 
     42 H         -49.5013  103.6967   26.9393 H         1 APC802      0.0000 
     43 H         -45.4775  105.4319   26.0106 H         1 APC802      0.0000 
     44 H         -42.3620  103.6025   33.7093 H         1 APC802      0.0000 
     45 H         -41.9609  105.0430   30.0442 H         1 APC802      0.0000 
@<TRIPOS>BOND
     1    2    1 ar   
     2    3    1 ar   
     3    4    1 ar   
     4    8    1 1    
     5    6    5 ar   
     6    7    5 ar   
     7    8    5 1    
     8   12    5 1    
     9   10    9 ar   
    10   11    9 ar   
    11   12    9 1    
    12   13    9 1    
    13   32   12 1    
    14   33   12 1    
    15   14   13 1    
    16   15   14 1    
    17   34   14 1    
    18   35   14 1    
    19   16   15 1    
    20   17   15 1    
    21   36   15 1    
    22   21   16 1    
    23   18   17 1    
    24   19   17 1    
    25   37   17 1    
    26   44   18 1    
    27   20   19 1    
    28   21   19 1    
    29   38   19 1    
    30   45   20 1    
    31   22   21 1    
    32   39   21 1    
    33   23   22 1    
    34   31   22 1    
    35   24   23 2    
    36   40   23 1    
    37   25   24 1    
    38   26   25 ar   
    39   31   25 ar   
    40   27   26 1    
    41   28   26 ar   
    42   41   27 1    
    43   42   27 1    
    44   29   28 ar   
    45   30   29 ar   
    46   43   29 1    
    47   31   30 ar   
@<TRIPOS>SUBSTRUCTURE
     1 APC802      1 GROUP   
@<TRIPOS>SET

