#    Name: 1pr1_FMB_3_INTS_M
#    Modification time : Mon Mar 24 22:08:55 2014

@<TRIPOS>MOLECULE
1pr1_FMB_3_INTS_M
   40     0     9     0     0
SMALL
NO_CHARGES


@<TRIPOS>ATOM
      1 CA         51.8305   48.7360   26.3490 C.3       3 GLC5        0.0000 
      2 CA         51.1520   50.5780   26.7360 C.3       9 GLL5        0.0000 
      3 CA         52.5090   46.8940   25.9620 C.3       6 GLP5        0.0000 
      4 CA         49.4900   50.8135   23.9140 C.3       3 GLC5        0.0000 
      5 CA         50.3850   51.2450   25.7760 C.3       9 GLL5        0.0000 
      6 CA         48.5950   50.3820   22.0520 C.3       6 GLP5        0.0000 
      7 N          49.2785   53.0740   23.1310 N.am      2 SEC2        0.0000 
      8 N          50.5280   52.3980   23.6970 N.am      8 SEL2        0.0000 
      9 N          48.0290   53.7500   22.5650 N.am      5 SEP2        0.0000 
     10 O          48.2940   52.1625   25.3630 O.2       1 ALC1        0.0000 
     11 O          49.0530   51.2250   26.1040 O.2       7 ALL1        0.0000 
     12 O          47.5350   53.1000   24.6220 O.2       4 ALP1        0.0000 
     13 CA         53.5765   49.0055   28.8365 C.3       3 GLC5        0.0000 
     14 CA         51.7990   48.7820   29.2990 C.3       9 GLL5        0.0000 
     15 CA         55.3540   49.2290   28.3740 C.3       6 GLP5        0.0000 
     16 N          52.8835   46.9970   28.5750 N.am      2 SEC2        0.0000 
     17 N          51.7540   47.3600   29.2560 N.am      8 SEL2        0.0000 
     18 N          54.0130   46.6340   27.8940 N.am      5 SEP2        0.0000 
     19 O          52.0985   46.5120   30.0185 O.2       1 ALC1        0.0000 
     20 O          51.7540   47.3600   29.2560 O.2       7 ALL1        0.0000 
     21 O          52.4430   45.6640   30.7810 O.2       4 ALP1        0.0000 
     22 CA         52.5395   50.1095   32.7330 C.3       3 GLC5        0.0000 
     23 CA         52.1180   49.3790   30.6750 C.3       9 GLL5        0.0000 
     24 CA         52.9610   50.8400   34.7910 C.3       6 GLP5        0.0000 
     25 N          52.9250   47.3230   32.0460 N.am      2 SEC2        0.0000 
     26 N          51.9850   48.4210   31.7490 N.am      8 SEL2        0.0000 
     27 N          53.8650   46.2250   32.3430 N.am      5 SEP2        0.0000 
     28 O          52.2140   47.0425   31.2650 O.2       1 ALC1        0.0000 
     29 O          51.9850   48.4210   31.7490 O.2       7 ALL1        0.0000 
     30 CA         52.4210   52.8845   29.2165 C.3       3 GLC5        0.0000 
     31 CA         51.6370   51.8920   30.6940 C.3       9 GLL5        0.0000 
     32 CA         53.2050   53.8770   27.7390 C.3       6 GLP5        0.0000 
     33 CA         49.4283   49.5087   25.6410 C.3       3 GLC5        0.0000 
     34 CA         48.0880   48.1060   25.0260 C.3       6 GLP5        0.0000 
     35 CA         51.7997   47.9725   27.5343 C.3       3 GLC5        0.0000 
     36 CA         50.3820   49.3200   28.9140 C.3       9 GLL5        0.0000 
     37 CA         51.9847   51.8152   32.4475 C.3       3 GLC5        0.0000 
     38 CA         52.6170   52.4540   34.0950 C.3       6 GLP5        0.0000 
     39 CA         53.4125   50.8325   30.0276 C.3       3 GLC5        0.0000 
     40 CA         55.2100   50.7590   29.3130 C.3       6 GLP5        0.0000 
@<TRIPOS>BOND
@<TRIPOS>SUBSTRUCTURE
     1 ALC1       10 GROUP        1 X    ALC  0     ROOT ALC X 1
     2 SEC2        7 GROUP        1 X    SEC  0     **** SEC X 2
     3 GLC5        1 GROUP        1 X    GLC  0     **** GLC X 6
     4 ALP1       12 GROUP        1 Y    ALP  0     ROOT ALP Y 8
     5 SEP2        9 GROUP        1 Y    SEP  0     **** SEP Y 9
     6 GLP5        3 GROUP        1 Y    GLP  0     **** GLP Y 13
     7 ALL1       11 GROUP        1 Z    ALL  0     ROOT ALL Z 15
     8 SEL2        8 GROUP        1 Z    SEL  0     **** SEL Z 16
     9 GLL5        2 GROUP        1 Z    GLL  0     **** GLL Z 20
@<TRIPOS>SET

