#    Name: 1pr1_FMB_3_ligand
#    Modification time : Mon Mar 24 22:08:55 2014

@<TRIPOS>MOLECULE
1pr1_FMB_3_ligand
   31    33     1     0     0
SMALL
NO_CHARGES


@<TRIPOS>ATOM
      1 N1         52.4510   51.6370   24.6270 N.am      1 FMB247      0.0000 
      2 C2         53.1720   50.9600   25.6180 C.2       1 FMB247      0.0000 
      3 N3         52.5210   50.4200   26.6950 N.2       1 FMB247      0.0000 
      4 C4         51.1520   50.5780   26.7360 C.2       1 FMB247      0.0000 
      5 C5         50.3850   51.2450   25.7760 C.2       1 FMB247      0.0000 
      6 C6         51.0560   51.8090   24.6380 C.2       1 FMB247      0.0000 
      7 O6         50.5280   52.3980   23.6970 O.2       1 FMB247      0.0000 
      8 N7         49.0530   51.2250   26.1040 N.pl3     1 FMB247      0.0000 
      9 N8         48.9870   50.5230   27.2890 N.2       1 FMB247      0.0000 
     10 C9         50.2490   50.1060   27.6950 C.2       1 FMB247      0.0000 
     11 C1'        50.3820   49.3200   28.9140 C.3       1 FMB247      0.0000 
     12 C2'        51.7990   48.7820   29.2990 C.3       1 FMB247      0.0000 
     13 O2'        51.7540   47.3600   29.2560 O.3       1 FMB247      0.0000 
     14 C3'        52.1180   49.3790   30.6750 C.3       1 FMB247      0.0000 
     15 O3'        51.9850   48.4210   31.7490 O.3       1 FMB247      0.0000 
     16 C4'        51.0680   50.4610   30.9060 C.3       1 FMB247      0.0000 
     17 O4'        49.9890   50.1970   29.9900 O.3       1 FMB247      0.0000 
     18 C5'        51.6370   51.8920   30.6940 C.3       1 FMB247      0.0000 
     19 O5'        50.6120   52.8290   30.3130 O.3       1 FMB247      0.0000 
     20 H          52.9890   52.0464   23.8164 H         1 FMB247      0.0000 
     21 H          54.1957   50.8751   25.5242 H         1 FMB247      0.0000 
     22 H          48.3424   51.6032   25.6307 H         1 FMB247      0.0000 
     23 H          49.7020   48.4732   28.9070 H         1 FMB247      0.0000 
     24 H          52.4789   49.2010   28.5775 H         1 FMB247      0.0000 
     25 H          53.0676   49.8405   30.6479 H         1 FMB247      0.0000 
     26 H          50.7228   50.3815   31.9269 H         1 FMB247      0.0000 
     27 H          52.4242   51.8169   29.9272 H         1 FMB247      0.0000 
     28 H          52.1283   52.1875   31.6345 H         1 FMB247      0.0000 
     29 H          52.1584   47.0621   30.1207 H         1 FMB247      0.0000 
     30 H          51.6553   47.5849   31.3105 H         1 FMB247      0.0000 
     31 H          49.9525   52.2915   29.7876 H         1 FMB247      0.0000 
@<TRIPOS>BOND
     1    2    1 1    
     2    6    1 am   
     3   20    1 1    
     4    3    2 2    
     5   21    2 1    
     6    4    3 1    
     7    5    4 2    
     8   10    4 1    
     9    6    5 1    
    10    8    5 1    
    11    7    6 2    
    12    9    8 1    
    13   22    8 1    
    14   10    9 2    
    15   11   10 1    
    16   12   11 1    
    17   17   11 1    
    18   23   11 1    
    19   13   12 1    
    20   14   12 1    
    21   24   12 1    
    22   29   13 1    
    23   15   14 1    
    24   16   14 1    
    25   25   14 1    
    26   30   15 1    
    27   17   16 1    
    28   18   16 1    
    29   26   16 1    
    30   19   18 1    
    31   27   18 1    
    32   28   18 1    
    33   31   19 1    
@<TRIPOS>SUBSTRUCTURE
     1 FMB247      1 GROUP   
@<TRIPOS>SET

