#    Name: 3u2d_08B_2_INTS_M
#    Modification time : Mon Mar 24 21:19:56 2014

@<TRIPOS>MOLECULE
3u2d_08B_2_INTS_M
   44     0     6     0     0
SMALL
NO_CHARGES


@<TRIPOS>ATOM
      1 CA         23.7625  -14.2690    4.9965 C.3       2 GLC5        0.0000 
      2 CA         23.1270  -15.8900    5.8990 C.3       6 GLL5        0.0000 
      3 CA         24.3980  -12.6480    4.0940 C.3       4 GLP5        0.0000 
      4 CA         24.7790  -14.7330    6.6430 C.3       2 GLC5        0.0000 
      5 CA         26.4310  -13.5760    7.3870 C.3       4 GLP5        0.0000 
      6 CA         23.7970  -16.3500    4.0800 C.3       2 GLC5        0.0000 
      7 CA         24.4670  -16.8100    2.2610 C.3       4 GLP5        0.0000 
      8 CA         21.3555  -18.7030    6.2315 C.3       2 GLC5        0.0000 
      9 CA         19.7570  -17.2440    6.4380 C.3       6 GLL5        0.0000 
     10 CA         22.9540  -20.1620    6.0250 C.3       4 GLP5        0.0000 
     11 O          21.8355  -17.1720    8.0225 O.2       1 ALC1        0.0000 
     12 O          21.0430  -16.9950    6.8460 O.2       5 ALL1        0.0000 
     13 O          22.6280  -17.3490    9.1990 O.2       3 ALP1        0.0000 
     14 CA         16.3815  -22.5560    9.3395 C.3       2 GLC5        0.0000 
     15 CA         15.5780  -21.1620    7.9930 C.3       6 GLL5        0.0000 
     16 CA         17.1850  -23.9500   10.6860 C.3       4 GLP5        0.0000 
     17 CA         17.4590  -21.2970    5.9050 C.3       2 GLC5        0.0000 
     18 CA         16.7480  -20.3570    7.4160 C.3       6 GLL5        0.0000 
     19 CA         18.1700  -22.2370    4.3940 C.3       4 GLP5        0.0000 
     20 CA         13.7295  -23.5880   10.1265 C.3       2 GLC5        0.0000 
     21 CA         12.4480  -23.5740    8.4240 C.3       6 GLL5        0.0000 
     22 CA         15.0110  -23.6020   11.8290 C.3       4 GLP5        0.0000 
     23 CA         22.0760  -13.6510    2.3060 C.3       2 GLC5        0.0000 
     24 CA         21.2150  -15.3330    3.1640 C.3       6 GLL5        0.0000 
     25 CA         22.9370  -11.9690    1.4480 C.3       4 GLP5        0.0000 
     26 CA         20.1600  -14.3555    4.6365 C.3       2 GLC5        0.0000 
     27 CA         19.1050  -13.3780    6.1090 C.3       4 GLP5        0.0000 
     28 CA         20.5012  -17.5598    3.2452 C.3       2 GLC5        0.0000 
     29 CA         20.8380  -16.1840    4.8110 C.3       6 GLL5        0.0000 
     30 CA         19.9760  -19.3610    2.5030 C.3       4 GLP5        0.0000 
     31 CA         22.3458  -17.9454    4.9509 C.3       2 GLC5        0.0000 
     32 CA         23.0670  -19.7390    4.5590 C.3       4 GLP5        0.0000 
     33 CA         22.7467  -16.2843    3.1242 C.3       2 GLC5        0.0000 
     34 CA         19.4738  -18.5360    4.7050 C.3       2 GLC5        0.0000 
     35 CA         19.6080  -16.7420    5.1620 C.3       6 GLL5        0.0000 
     36 CA         19.2650  -20.0790    3.6100 C.3       4 GLP5        0.0000 
     37 CA         15.6875  -21.7482    6.0553 C.3       2 GLC5        0.0000 
     38 CA         15.2120  -22.7370    4.4060 C.3       4 GLP5        0.0000 
     39 CA         13.3330  -22.5912    5.7760 C.3       2 GLC5        0.0000 
     40 CA         13.2820  -21.6560    7.4140 C.3       6 GLL5        0.0000 
     41 CA         13.9720  -23.5900    4.5220 C.3       4 GLP5        0.0000 
     42 CA         12.8931  -23.4330    6.1799 C.3       2 GLC5        0.0000 
     43 CA         11.0920  -22.4610    6.7970 C.3       6 GLL5        0.0000 
     44 CA         19.7897  -15.0039    5.8371 C.3       2 GLC5        0.0000 
@<TRIPOS>BOND
@<TRIPOS>SUBSTRUCTURE
     1 ALC1       11 GROUP        1 X    ALC  0     ROOT ALC X 1
     2 GLC5        1 GROUP        1 X    GLC  0     **** GLC X 6
     3 ALP1       13 GROUP        1 Y    ALP  0     ROOT ALP Y 8
     4 GLP5        3 GROUP        1 Y    GLP  0     **** GLP Y 13
     5 ALL1       12 GROUP        1 Z    ALL  0     ROOT ALL Z 15
     6 GLL5        2 GROUP        1 Z    GLL  0     **** GLL Z 20
@<TRIPOS>SET

