#    Name: 3u2d_08B_2_ligand
#    Modification time : Mon Mar 24 21:19:56 2014

@<TRIPOS>MOLECULE
3u2d_08B_2_ligand
   43    45     1     0     0
SMALL
NO_CHARGES


@<TRIPOS>ATOM
      1 C1         23.1270  -15.8900    5.8990 C.3       1 08B2        0.0000 
      2 C2         21.6950  -16.3490    5.8500 C.2       1 08B2        0.0000 
      3 C3         20.8380  -16.1840    4.8110 C.2       1 08B2        0.0000 
      4 C4         19.6080  -16.7420    5.1620 C.2       1 08B2        0.0000 
      5 C5         19.7570  -17.2440    6.4380 C.2       1 08B2        0.0000 
      6 N6         21.0430  -16.9950    6.8460 N.pl3     1 08B2        0.0000 
      7 C8         18.7430  -17.9270    7.2390 C.2       1 08B2        0.0000 
      8 O9         19.0400  -18.2790    8.3720 O.2       1 08B2        0.0000 
      9 N10        17.5110  -18.1470    6.7180 N.am      1 08B2        0.0000 
     10 C11        16.4890  -18.8410    7.5170 C.3       1 08B2        0.0000 
     11 C12        15.0840  -18.4580    7.0170 C.3       1 08B2        0.0000 
     12 C13        14.0260  -19.3580    7.6730 C.3       1 08B2        0.0000 
     13 N14        14.3440  -20.7460    7.3020 N.3       1 08B2        0.0000 
     14 C15        15.5780  -21.1620    7.9930 C.3       1 08B2        0.0000 
     15 C16        16.7480  -20.3570    7.4160 C.3       1 08B2        0.0000 
     16 C17        13.2820  -21.6560    7.4140 C.ar      1 08B2        0.0000 
     17 C18        12.1060  -21.5290    6.6460 C.ar      1 08B2        0.0000 
     18 C19        11.0920  -22.4610    6.7970 C.ar      1 08B2        0.0000 
     19 C20        11.2690  -23.4950    7.7060 C.ar      1 08B2        0.0000 
     20 C21        12.4480  -23.5740    8.4240 C.ar      1 08B2        0.0000 
     21 N22        13.4060  -22.6780    8.2610 N.ar      1 08B2        0.0000 
     22 N23        11.9200  -20.5240    5.7490 N.pl3     1 08B2        0.0000 
     23 O24        10.9730  -19.7610    5.8610 O.2       1 08B2        0.0000 
     24 O25        12.6980  -20.3920    4.8180 O.2       1 08B2        0.0000 
     25 BR         21.2150  -15.3330    3.1640 Br        1 08B2        0.0000 
     26 H          18.8371  -16.7660    4.6281 H         1 08B2        0.0000 
     27 H          21.4107  -17.2422    7.6994 H         1 08B2        0.0000 
     28 H          17.2422  -17.8516    5.7777 H         1 08B2        0.0000 
     29 H          16.5781  -18.5526    8.5523 H         1 08B2        0.0000 
     30 H          15.0429  -18.5819    5.9413 H         1 08B2        0.0000 
     31 H          14.8844  -17.4244    7.2736 H         1 08B2        0.0000 
     32 H          13.0539  -19.0695    7.3025 H         1 08B2        0.0000 
     33 H          14.0753  -19.2205    8.7426 H         1 08B2        0.0000 
     34 H          15.7737  -22.2162    7.8335 H         1 08B2        0.0000 
     35 H          15.5125  -20.9603    9.0560 H         1 08B2        0.0000 
     36 H          17.6566  -20.5983    7.9654 H         1 08B2        0.0000 
     37 H          16.8869  -20.6235    6.3695 H         1 08B2        0.0000 
     38 H          10.2327  -22.3899    6.2520 H         1 08B2        0.0000 
     39 H          10.5299  -24.1935    7.8422 H         1 08B2        0.0000 
     40 H          12.5579  -24.3666    9.1013 H         1 08B2        0.0000 
     41 H          23.5619  -16.1224    6.7690 H         1 08B2        0.0000 
     42 H          23.6761  -16.3086    5.1757 H         1 08B2        0.0000 
     43 H          23.2034  -14.8990    5.7886 H         1 08B2        0.0000 
@<TRIPOS>BOND
     1    2    1 1    
     2   41    1 1    
     3   42    1 1    
     4   43    1 1    
     5    3    2 2    
     6    6    2 1    
     7    4    3 1    
     8   25    3 1    
     9    5    4 2    
    10   26    4 1    
    11    6    5 1    
    12    7    5 1    
    13   27    6 1    
    14    8    7 2    
    15    9    7 am   
    16   10    9 1    
    17   28    9 1    
    18   11   10 1    
    19   15   10 1    
    20   29   10 1    
    21   12   11 1    
    22   30   11 1    
    23   31   11 1    
    24   13   12 1    
    25   32   12 1    
    26   33   12 1    
    27   14   13 1    
    28   16   13 1    
    29   15   14 1    
    30   34   14 1    
    31   35   14 1    
    32   36   15 1    
    33   37   15 1    
    34   17   16 ar   
    35   21   16 ar   
    36   18   17 ar   
    37   22   17 1    
    38   19   18 ar   
    39   38   18 1    
    40   20   19 ar   
    41   39   19 1    
    42   21   20 ar   
    43   40   20 1    
    44   23   22 2    
    45   24   22 2    
@<TRIPOS>SUBSTRUCTURE
     1 08B2        1 GROUP   
@<TRIPOS>SET

