#    Name: 2uze_C95_2_INTS_M
#    Modification time : Tue Mar 25 00:34:40 2014

@<TRIPOS>MOLECULE
2uze_C95_2_INTS_M
   48     0    12     0     0
SMALL
NO_CHARGES


@<TRIPOS>ATOM
      1 NZ        -13.5500  -21.6395   45.0930 N.4       3 LYC4        0.0000 
      2 NZ        -13.4940  -20.9020   43.6800 N.4      11 LYL4        0.0000 
      3 NZ        -13.6060  -22.3770   46.5060 N.4       7 LYP4        0.0000 
      4 N         -13.5500  -21.6395   45.0930 N.am      2 SEC2        0.0000 
      5 N         -13.4940  -20.9020   43.6800 N.am     10 SEL2        0.0000 
      6 N         -13.6060  -22.3770   46.5060 N.am      6 SEP2        0.0000 
      7 CA        -15.0635  -15.2015   40.1610 C.3       4 GLC5        0.0000 
      8 CA        -13.8200  -16.5470   38.8980 C.3      12 GLL5        0.0000 
      9 CA        -16.3070  -13.8560   41.4240 C.3       8 GLP5        0.0000 
     10 CA        -12.4040  -14.4985   35.6915 C.3       4 GLC5        0.0000 
     11 CA        -13.8920  -15.2280   37.1650 C.3      12 GLL5        0.0000 
     12 CA        -10.9160  -13.7690   34.2180 C.3       8 GLP5        0.0000 
     13 CA        -14.3195  -13.4635   35.9805 C.3       4 GLC5        0.0000 
     14 CA        -14.7470  -11.6990   34.7960 C.3       8 GLP5        0.0000 
     15 CA        -11.8170  -13.4895   36.1745 C.3       4 GLC5        0.0000 
     16 CA        -12.7180  -13.2100   38.1310 C.3      12 GLL5        0.0000 
     17 CA        -10.1095  -13.2895   38.6535 C.3       4 GLC5        0.0000 
     18 CA        -12.0590  -12.7700   39.1880 C.3      12 GLL5        0.0000 
     19 CA         -8.1600  -13.8090   38.1190 C.3       8 GLP5        0.0000 
     20 CA        -11.7555  -10.5850   41.3670 C.3       4 GLC5        0.0000 
     21 CA        -10.9980  -12.4020   41.3340 C.3      12 GLL5        0.0000 
     22 CA        -12.5130   -8.7680   41.4000 C.3       8 GLP5        0.0000 
     23 CA         -9.2120  -11.6440   41.5685 C.3       4 GLC5        0.0000 
     24 CA         -7.4260  -10.8860   41.8030 C.3       8 GLP5        0.0000 
     25 O          -9.6395  -11.4220   43.1835 O.2       1 ALC1        0.0000 
     26 O         -10.5350  -12.4320   42.5910 O.2       9 ALL1        0.0000 
     27 O          -8.7440  -10.4120   43.7760 O.2       5 ALP1        0.0000 
     28 CA        -13.3400  -21.3547   40.2570 C.3       4 GLC5        0.0000 
     29 CA        -14.0640  -19.8400   41.5900 C.3      12 GLL5        0.0000 
     30 CA        -12.2810  -22.8320   39.5440 C.3       8 GLP5        0.0000 
     31 CA        -16.1920  -18.3265   40.2003 C.3       4 GLC5        0.0000 
     32 CA        -14.7340  -19.9150   40.3500 C.3      12 GLL5        0.0000 
     33 CA        -17.6940  -17.2740   40.5030 C.3       8 GLP5        0.0000 
     34 CA        -11.7364  -18.0828   40.3204 C.3       4 GLC5        0.0000 
     35 CA        -13.9330  -17.6990   39.8070 C.3      12 GLL5        0.0000 
     36 CA         -9.9980  -17.9780   39.4710 C.3       8 GLP5        0.0000 
     37 CA        -15.7044  -17.1910   40.0819 C.3       4 GLC5        0.0000 
     38 CA        -13.3622  -11.4840   37.6377 C.3       4 GLC5        0.0000 
     39 CA        -14.3360   -9.9780   36.6160 C.3       8 GLP5        0.0000 
     40 CA        -11.4123  -14.7295   38.0943 C.3       4 GLC5        0.0000 
     41 CA        -10.4360  -16.4690   37.5290 C.3       8 GLP5        0.0000 
     42 CA        -13.3175  -12.6935   42.0403 C.3       4 GLC5        0.0000 
     43 CA        -11.9880  -13.5800   40.6770 C.3      12 GLL5        0.0000 
     44 CA        -15.1420  -12.3960   43.0750 C.3       8 GLP5        0.0000 
     45 CA        -15.4222  -15.0001   37.5707 C.3       4 GLC5        0.0000 
     46 CA        -13.2790  -14.5790   38.1610 C.3      12 GLL5        0.0000 
     47 CA        -17.0370  -14.2970   37.1780 C.3       8 GLP5        0.0000 
     48 CA        -12.1217  -16.0861   37.7463 C.3       4 GLC5        0.0000 
@<TRIPOS>BOND
@<TRIPOS>SUBSTRUCTURE
     1 ALC1       25 GROUP        1 X    ALC  0     ROOT ALC X 1
     2 SEC2        4 GROUP        1 X    SEC  0     **** SEC X 2
     3 LYC4        1 GROUP        1 X    LYC  0     **** LYC X 4
     4 GLC5        7 GROUP        1 X    GLC  0     **** GLC X 6
     5 ALP1       27 GROUP        1 Y    ALP  0     ROOT ALP Y 8
     6 SEP2        6 GROUP        1 Y    SEP  0     **** SEP Y 9
     7 LYP4        3 GROUP        1 Y    LYP  0     **** LYP Y 11
     8 GLP5        9 GROUP        1 Y    GLP  0     **** GLP Y 13
     9 ALL1       26 GROUP        1 Z    ALL  0     ROOT ALL Z 15
    10 SEL2        5 GROUP        1 Z    SEL  0     **** SEL Z 16
    11 LYL4        2 GROUP        1 Z    LYL  0     **** LYL Z 18
    12 GLL5        8 GROUP        1 Z    GLL  0     **** GLL Z 20
@<TRIPOS>SET

