#    Name: 2uze_C95_2_ligand
#    Modification time : Tue Mar 25 00:34:40 2014

@<TRIPOS>MOLECULE
2uze_C95_2_ligand
   32    34     1     0     0
SMALL
NO_CHARGES


@<TRIPOS>ATOM
      1 O4        -14.7850  -21.9900   42.3040 O.co2     1 C951297     0.0000 
      2 O3        -13.4940  -20.9020   43.6800 O.co2     1 C951297     0.0000 
      3 C16       -14.0640  -19.8400   41.5900 C.ar      1 C951297     0.0000 
      4 C15       -14.7340  -19.9150   40.3500 C.ar      1 C951297     0.0000 
      5 C14       -14.6460  -18.8430   39.4450 C.ar      1 C951297     0.0000 
      6 C13       -13.9330  -17.6990   39.8070 C.ar      1 C951297     0.0000 
      7 C18       -13.2860  -17.6390   41.0400 C.ar      1 C951297     0.0000 
      8 C17       -13.3400  -18.7060   41.9160 C.ar      1 C951297     0.0000 
      9 C4        -13.8200  -16.5470   38.8980 C.2       1 C951297     0.0000 
     10 O2        -13.2320  -15.4000   39.2140 O.3       1 C951297     0.0000 
     11 C3        -14.2390  -16.4590   37.6300 C.2       1 C951297     0.0000 
     12 C2        -13.8920  -15.2280   37.1650 C.2       1 C951297     0.0000 
     13 C1        -13.2790  -14.5790   38.1610 C.2       1 C951297     0.0000 
     14 C6        -12.7180  -13.2100   38.1310 C.2       1 C951297     0.0000 
     15 C7        -12.0590  -12.7700   39.1880 C.2       1 C951297     0.0000 
     16 S1        -11.9880  -13.5800   40.6770 S.3       1 C951297     0.0000 
     17 C9        -10.9980  -12.4020   41.3340 C.2       1 C951297     0.0000 
     18 N3        -10.5350  -12.4320   42.5910 N.pl3     1 C951297     0.0000 
     19 N2        -10.7150  -11.4160   40.4430 N.am      1 C951297     0.0000 
     20 C19       -14.1250  -20.9810   42.5670 C.2       1 C951297     0.0000 
     21 C8        -11.2920  -11.6140   39.2170 C.2       1 C951297     0.0000 
     22 O1        -11.1370  -10.8630   38.2590 O.2       1 C951297     0.0000 
     23 H         -15.2789  -20.7444   40.1140 H         1 C951297     0.0000 
     24 H         -15.1004  -18.9049   38.5336 H         1 C951297     0.0000 
     25 H         -12.7621  -16.7856   41.2966 H         1 C951297     0.0000 
     26 H         -12.8389  -18.6586   42.8175 H         1 C951297     0.0000 
     27 H         -14.7018  -17.1346   37.1274 H         1 C951297     0.0000 
     28 H         -14.0626  -14.8980   36.2795 H         1 C951297     0.0000 
     29 H         -12.8761  -12.6751   37.2785 H         1 C951297     0.0000 
     30 H         -10.8113  -13.2187   43.1430 H         1 C951297     0.0000 
     31 H          -9.9546  -11.6650   42.8646 H         1 C951297     0.0000 
     32 H         -10.1485  -10.6302   40.6538 H         1 C951297     0.0000 
@<TRIPOS>BOND
     1   20    1 ar   
     2   20    2 ar   
     3    4    3 ar   
     4    8    3 ar   
     5   20    3 1    
     6    5    4 ar   
     7   23    4 1    
     8    6    5 ar   
     9   24    5 1    
    10    7    6 ar   
    11    9    6 1    
    12    8    7 ar   
    13   25    7 1    
    14   26    8 1    
    15   10    9 1    
    16   11    9 2    
    17   13   10 1    
    18   12   11 1    
    19   27   11 1    
    20   13   12 2    
    21   28   12 1    
    22   14   13 1    
    23   15   14 2    
    24   29   14 1    
    25   16   15 1    
    26   21   15 1    
    27   17   16 1    
    28   18   17 2    
    29   19   17 1    
    30   30   18 1    
    31   31   18 1    
    32   21   19 am   
    33   32   19 1    
    34   22   21 2    
@<TRIPOS>SUBSTRUCTURE
     1 C951297     1 GROUP   
@<TRIPOS>SET

