#    Name: 3m0o_FAD_2_INTS_M
#    Modification time : Mon Mar 24 22:37:38 2014

@<TRIPOS>MOLECULE
3m0o_FAD_2_INTS_M
  146     0     9     0     0
SMALL
NO_CHARGES


@<TRIPOS>ATOM
      1 N          45.5920   37.5065    6.7465 N.am      2 SEC2        0.0000 
      2 N          46.0390   36.7470    5.5650 N.am      8 SEL2        0.0000 
      3 N          45.1450   38.2660    7.9280 N.am      5 SEP2        0.0000 
      4 N          49.1115   34.4075    6.4460 N.am      2 SEC2        0.0000 
      5 N          47.8760   35.2470    6.6220 N.am      8 SEL2        0.0000 
      6 N          50.3470   33.5680    6.2700 N.am      5 SEP2        0.0000 
      7 N          48.2975   34.3215    7.5545 N.am      2 SEC2        0.0000 
      8 N          48.7190   33.3960    8.4870 N.am      5 SEP2        0.0000 
      9 N          48.6575   36.3390    7.1095 N.am      2 SEC2        0.0000 
     10 N          49.4390   37.4310    7.5970 N.am      5 SEP2        0.0000 
     11 CA         45.3510   35.1705    2.8265 C.3       3 GLC5        0.0000 
     12 CA         47.1420   35.8320    2.9640 C.3       9 GLL5        0.0000 
     13 CA         43.5600   34.5090    2.6890 C.3       6 GLP5        0.0000 
     14 CA         48.9340   35.8780    0.5600 C.3       3 GLC5        0.0000 
     15 CA         48.1310   36.6640    2.1670 C.3       9 GLL5        0.0000 
     16 CA         49.7370   35.0920   -1.0470 C.3       6 GLP5        0.0000 
     17 N          49.6370   39.6405    3.7500 N.am      2 SEC2        0.0000 
     18 N          49.5320   38.3730    3.1200 N.am      8 SEL2        0.0000 
     19 N          49.7420   40.9080    4.3800 N.am      5 SEP2        0.0000 
     20 O          50.3880   38.2695    2.0575 O.2       1 ALC1        0.0000 
     21 O          49.5320   38.3730    3.1200 O.2       7 ALL1        0.0000 
     22 O          51.2440   38.1660    0.9950 O.2       4 ALP1        0.0000 
     23 O          50.3475   39.3630    2.1545 O.2       1 ALC1        0.0000 
     24 O          51.1630   40.3530    1.1890 O.2       4 ALP1        0.0000 
     25 CA         45.8455   39.6885    1.9560 C.3       3 GLC5        0.0000 
     26 CA         47.7380   38.9510    1.5260 C.3       9 GLL5        0.0000 
     27 CA         43.9530   40.4260    2.3860 C.3       6 GLP5        0.0000 
     28 N          49.1065   40.5440    2.9095 N.am      2 SEC2        0.0000 
     29 N          48.4710   40.1800    1.4390 N.am      8 SEL2        0.0000 
     30 O          49.8575   39.1730    1.2170 O.2       1 ALC1        0.0000 
     31 O          48.4710   40.1800    1.4390 O.2       7 ALL1        0.0000 
     32 O          49.8170   40.2665    1.3140 O.2       1 ALC1        0.0000 
     33 CA         48.8700   36.5600   -0.3475 C.3       3 GLC5        0.0000 
     34 CA         48.0030   38.0280    0.3520 C.3       9 GLL5        0.0000 
     35 CA         46.6860   36.3320   -0.1415 C.3       3 GLC5        0.0000 
     36 CA         45.3690   34.6360   -0.6350 C.3       6 GLP5        0.0000 
     37 CA         47.7785   36.9860   -4.9820 C.3       3 GLC5        0.0000 
     38 CA         46.8380   38.8420   -4.3370 C.3       9 GLL5        0.0000 
     39 CA         48.7190   35.1300   -5.6270 C.3       6 GLP5        0.0000 
     40 CA         46.3515   40.6755   -5.0840 C.3       3 GLC5        0.0000 
     41 CA         45.8650   42.5090   -5.8310 C.3       6 GLP5        0.0000 
     42 CA         47.4530   39.0430   -6.4665 C.3       3 GLC5        0.0000 
     43 CA         48.0680   39.2440   -8.5960 C.3       6 GLP5        0.0000 
     44 CA         45.8475   37.1400   -4.5230 C.3       3 GLC5        0.0000 
     45 CA         44.8570   35.4380   -4.7090 C.3       6 GLP5        0.0000 
     46 O          45.7540   38.9655   -6.6145 O.2       1 ALC1        0.0000 
     47 O          45.7510   39.0310   -5.1320 O.2       7 ALL1        0.0000 
     48 O          45.7570   38.9000   -8.0970 O.2       4 ALP1        0.0000 
     49 N          48.1880   39.4355   -6.0945 N.am      2 SEC2        0.0000 
     50 N          48.1150   38.7920   -4.7730 N.am      8 SEL2        0.0000 
     51 N          48.2610   40.0790   -7.4160 N.am      5 SEP2        0.0000 
     52 CA         48.9330   36.8640   -4.7775 C.3       3 GLC5        0.0000 
     53 CA         49.1470   38.5980   -3.9280 C.3       9 GLL5        0.0000 
     54 CA         51.1270   38.5735   -4.9865 C.3       3 GLC5        0.0000 
     55 CA         53.1070   38.5490   -6.0450 C.3       6 GLP5        0.0000 
     56 CA         50.6755   38.9970   -2.8370 C.3       3 GLC5        0.0000 
     57 CA         52.2040   39.3960   -1.7460 C.3       6 GLP5        0.0000 
     58 CA         48.7105   40.3965   -2.9585 C.3       3 GLC5        0.0000 
     59 CA         48.2740   42.1950   -1.9890 C.3       6 GLP5        0.0000 
     60 CA         48.7635   40.3820   -5.0605 C.3       3 GLC5        0.0000 
     61 CA         48.3800   42.1660   -6.1930 C.3       6 GLP5        0.0000 
     62 CA         49.6510   38.2640   -6.0475 C.3       3 GLC5        0.0000 
     63 CA         50.1550   37.9300   -8.1670 C.3       6 GLP5        0.0000 
     64 N          49.6910   39.7260   -2.2410 N.am      2 SEC2        0.0000 
     65 N          48.9600   38.4210   -2.5930 N.am      8 SEL2        0.0000 
     66 N          50.4220   41.0310   -1.8890 N.am      5 SEP2        0.0000 
     67 CA         48.7205   36.7645   -1.5635 C.3       3 GLC5        0.0000 
     68 CA         47.7040   38.4370   -2.0800 C.3       9 GLL5        0.0000 
     69 N          44.9415   29.9735   13.1165 N.am      2 SEC2        0.0000 
     70 N          44.0850   30.6890   14.2520 N.am      8 SEL2        0.0000 
     71 N          45.7980   29.2580   11.9810 N.am      5 SEP2        0.0000 
     72 N          46.2370   28.2755   14.3135 N.am      2 SEC2        0.0000 
     73 N          44.9420   28.6040   14.8250 N.am      8 SEL2        0.0000 
     74 N          47.5320   27.9470   13.8020 N.am      5 SEP2        0.0000 
     75 N          44.2110   27.6285   15.4155 N.am      2 SEC2        0.0000 
     76 N          43.4800   26.6530   16.0060 N.am      5 SEP2        0.0000 
     77 O          45.4905   29.3075   17.3875 O.2       1 ALC1        0.0000 
     78 O          44.5730   30.1340   16.5180 O.2       7 ALL1        0.0000 
     79 O          46.4080   28.4810   18.2570 O.2       4 ALP1        0.0000 
     80 N          45.3345   31.3690   18.8530 N.am      2 SEC2        0.0000 
     81 N          44.1480   31.7190   18.2200 N.am      8 SEL2        0.0000 
     82 N          46.5210   31.0190   19.4860 N.am      5 SEP2        0.0000 
     83 CA         39.6155   38.2715   14.5110 C.3       3 GLC5        0.0000 
     84 CA         41.5520   38.0090   15.3750 C.3       9 GLL5        0.0000 
     85 CA         37.6790   38.5340   13.6470 C.3       6 GLP5        0.0000 
     86 CA         41.5565   38.7290   17.0645 C.3       3 GLC5        0.0000 
     87 CA         41.5610   39.4490   18.7540 C.3       6 GLP5        0.0000 
     88 CA         40.7675   36.7670   17.0770 C.3       3 GLC5        0.0000 
     89 CA         39.9830   35.5250   18.7790 C.3       6 GLP5        0.0000 
     90 CA         41.9220   39.0485   14.0525 C.3       3 GLC5        0.0000 
     91 CA         42.2920   40.0880   12.7300 C.3       6 GLP5        0.0000 
     92 CA         40.3385   36.4050   14.4600 C.3       3 GLC5        0.0000 
     93 CA         39.1250   34.8010   13.5450 C.3       6 GLP5        0.0000 
     94 CA         39.5965   37.9000   13.0820 C.3       3 GLC5        0.0000 
     95 CA         41.5140   37.2660   12.5170 C.3       9 GLL5        0.0000 
     96 CA         40.6395   38.0045   10.8720 C.3       3 GLC5        0.0000 
     97 CA         39.7650   38.7430    9.2270 C.3       6 GLP5        0.0000 
     98 CA         40.2180   36.0555   12.3380 C.3       3 GLC5        0.0000 
     99 CA         38.9220   34.8450   12.1590 C.3       6 GLP5        0.0000 
    100 CA         41.2645   31.9035   12.1370 C.3       3 GLC5        0.0000 
    101 CA         43.1700   32.3430   12.2610 C.3       9 GLL5        0.0000 
    102 CA         39.3590   31.4640   12.0130 C.3       6 GLP5        0.0000 
    103 CA         42.2855   30.4115   12.7430 C.3       3 GLC5        0.0000 
    104 CA         41.4010   28.4800   13.2250 C.3       6 GLP5        0.0000 
    105 CA         45.9490   31.7220   12.1910 C.3       3 GLC5        0.0000 
    106 CA         44.4470   32.3960   11.4900 C.3       9 GLL5        0.0000 
    107 CA         47.4510   31.0480   12.8920 C.3       6 GLP5        0.0000 
    108 N          45.5695   34.1750   13.1335 N.am      2 SEC2        0.0000 
    109 N          45.0160   33.6320   11.8720 N.am      8 SEL2        0.0000 
    110 N          46.1230   34.7180   14.3950 N.am      5 SEP2        0.0000 
    111 CA         44.0935   30.1205   10.3650 C.3       3 GLC5        0.0000 
    112 CA         44.0240   32.3390   10.0160 C.3       9 GLL5        0.0000 
    113 CA         44.1630   27.9020   10.7140 C.3       6 GLP5        0.0000 
    114 N          43.1770   29.8035   10.6655 N.am      2 SEC2        0.0000 
    115 N          43.2660   31.1470    9.8020 N.am      8 SEL2        0.0000 
    116 N          43.0880   28.4600   11.5290 N.am      5 SEP2        0.0000 
    117 CA         46.2265   31.0050   10.6445 C.3       3 GLC5        0.0000 
    118 CA         45.2480   32.3100    9.1150 C.3       9 GLL5        0.0000 
    119 CA         47.2050   29.7000   12.1740 C.3       6 GLP5        0.0000 
    120 O          47.4135   33.4030    8.9700 O.2       1 ALC1        0.0000 
    121 O          46.1080   33.4100    9.4530 O.2       7 ALL1        0.0000 
    122 O          48.7190   33.3960    8.4870 O.2       4 ALP1        0.0000 
    123 CA         43.5355   30.6715    7.5835 C.3       3 GLC5        0.0000 
    124 CA         44.8400   32.3510    7.6510 C.3       9 GLL5        0.0000 
    125 CA         42.2310   28.9920    7.5160 C.3       6 GLP5        0.0000 
    126 N          48.8320   31.5930    5.1620 N.am      2 SEC2        0.0000 
    127 N          47.5950   32.4210    4.9140 N.am      8 SEL2        0.0000 
    128 N          50.0690   30.7650    5.4100 N.am      5 SEP2        0.0000 
    129 CA         46.5027   35.4420    0.9652 C.3       3 GLC5        0.0000 
    130 CA         49.4754   36.1490    3.5834 C.3       3 GLC5        0.0000 
    131 CA         51.0390   35.1290    4.5310 C.3       6 GLP5        0.0000 
    132 CA         46.3780   36.7010   -2.8223 C.3       3 GLC5        0.0000 
    133 CA         46.6200   38.6470   -2.8970 C.3       9 GLL5        0.0000 
    134 CA         45.5940   34.8600   -3.1560 C.3       6 GLP5        0.0000 
    135 CA         47.7452   40.3929   -2.4188 C.3       3 GLC5        0.0000 
    136 CA         42.6504   37.2901   12.6839 C.3       3 GLC5        0.0000 
    137 CA         43.2170   38.6310   12.1220 C.3       6 GLP5        0.0000 
    138 CA         44.5496   34.1581   15.1426 C.3       3 GLC5        0.0000 
    139 CA         42.8210   34.0840   14.0520 C.3       9 GLL5        0.0000 
    140 CA         46.3800   33.7390   15.4480 C.3       6 GLP5        0.0000 
    141 CA         47.0960   32.2593    8.1255 C.3       3 GLC5        0.0000 
    142 CA         49.1480   32.1880    7.8680 C.3       6 GLP5        0.0000 
    143 CA         45.9525   30.5228    8.0065 C.3       3 GLC5        0.0000 
    144 CA         46.8610   28.7150    7.6300 C.3       6 GLP5        0.0000 
    145 CA         44.3280   34.2624    8.4981 C.3       3 GLC5        0.0000 
    146 CA         43.9180   36.1870    8.3880 C.3       6 GLP5        0.0000 
@<TRIPOS>BOND
@<TRIPOS>SUBSTRUCTURE
     1 ALC1       20 GROUP        1 X    ALC  0     ROOT ALC X 1
     2 SEC2        1 GROUP        1 X    SEC  0     **** SEC X 2
     3 GLC5       11 GROUP        1 X    GLC  0     **** GLC X 6
     4 ALP1       22 GROUP        1 Y    ALP  0     ROOT ALP Y 8
     5 SEP2        3 GROUP        1 Y    SEP  0     **** SEP Y 9
     6 GLP5       13 GROUP        1 Y    GLP  0     **** GLP Y 13
     7 ALL1       21 GROUP        1 Z    ALL  0     ROOT ALL Z 15
     8 SEL2        2 GROUP        1 Z    SEL  0     **** SEL Z 16
     9 GLL5       12 GROUP        1 Z    GLL  0     **** GLL Z 20
@<TRIPOS>SET

