#    Name: 3m0o_FAD_2_ligand
#    Modification time : Mon Mar 24 22:37:38 2014

@<TRIPOS>MOLECULE
3m0o_FAD_2_ligand
   84    89     1     0     0
SMALL
NO_CHARGES


@<TRIPOS>ATOM
      1 PA         46.8780   35.4940    5.5470 P.3       1 FAD400      0.0000 
      2 O1A        46.0390   36.7470    5.5650 O.co2     1 FAD400      0.0000 
      3 O2A        47.8760   35.2470    6.6220 O.co2     1 FAD400      0.0000 
      4 O5B        47.7560   35.4660    4.2050 O.3       1 FAD400      0.0000 
      5 C5B        47.1420   35.8320    2.9640 C.3       1 FAD400      0.0000 
      6 C4B        48.1310   36.6640    2.1670 C.3       1 FAD400      0.0000 
      7 O4B        47.6330   36.7400    0.8380 O.3       1 FAD400      0.0000 
      8 C3B        48.1870   38.0900    2.7060 C.3       1 FAD400      0.0000 
      9 O3B        49.5320   38.3730    3.1200 O.3       1 FAD400      0.0000 
     10 C2B        47.7380   38.9510    1.5260 C.3       1 FAD400      0.0000 
     11 O2B        48.4710   40.1800    1.4390 O.3       1 FAD400      0.0000 
     12 C1B        48.0030   38.0280    0.3520 C.3       1 FAD400      0.0000 
     13 N9A        47.2110   38.3050   -0.8510 N.pl3     1 FAD400      0.0000 
     14 C8A        45.8670   38.3850   -0.8940 C.2       1 FAD400      0.0000 
     15 N7A        45.4940   38.6180   -2.1660 N.2       1 FAD400      0.0000 
     16 C5A        46.6200   38.6470   -2.8970 C.ar      1 FAD400      0.0000 
     17 C6A        46.8380   38.8420   -4.3370 C.ar      1 FAD400      0.0000 
     18 N6A        45.7510   39.0310   -5.1320 N.pl3     1 FAD400      0.0000 
     19 N1A        48.1150   38.7920   -4.7730 N.ar      1 FAD400      0.0000 
     20 C2A        49.1470   38.5980   -3.9280 C.ar      1 FAD400      0.0000 
     21 N3A        48.9600   38.4210   -2.5930 N.ar      1 FAD400      0.0000 
     22 C4A        47.7040   38.4370   -2.0800 C.ar      1 FAD400      0.0000 
     23 N1         44.0850   30.6890   14.2520 N.2       1 FAD400      0.0000 
     24 C2         44.5230   29.8220   15.2020 C.2       1 FAD400      0.0000 
     25 O2         44.9420   28.6040   14.8250 O.2       1 FAD400      0.0000 
     26 N3         44.5730   30.1340   16.5180 N.am      1 FAD400      0.0000 
     27 C4         44.1190   31.3450   16.9240 C.2       1 FAD400      0.0000 
     28 O4         44.1480   31.7190   18.2200 O.2       1 FAD400      0.0000 
     29 C4X        43.6380   32.3050   15.9230 C.2       1 FAD400      0.0000 
     30 N5         43.2090   33.5330   16.3380 N.2       1 FAD400      0.0000 
     31 C5X        42.8140   34.4410   15.4100 C.ar      1 FAD400      0.0000 
     32 C6         42.4210   35.7000   15.8350 C.ar      1 FAD400      0.0000 
     33 C7         42.0080   36.6430   14.9020 C.ar      1 FAD400      0.0000 
     34 C7M        41.5520   38.0090   15.3750 C.3       1 FAD400      0.0000 
     35 C8         42.0030   36.2980   13.5550 C.ar      1 FAD400      0.0000 
     36 C8M        41.5140   37.2660   12.5170 C.3       1 FAD400      0.0000 
     37 C9         42.4080   35.0300   13.1190 C.ar      1 FAD400      0.0000 
     38 C9A        42.8210   34.0840   14.0520 C.ar      1 FAD400      0.0000 
     39 N10        43.2370   32.7970   13.6630 N.pl3     1 FAD400      0.0000 
     40 C10        43.6410   31.9210   14.5890 C.2       1 FAD400      0.0000 
     41 C1'        43.1700   32.3430   12.2610 C.3       1 FAD400      0.0000 
     42 C2'        44.4470   32.3960   11.4900 C.3       1 FAD400      0.0000 
     43 O2'        45.0160   33.6320   11.8720 O.3       1 FAD400      0.0000 
     44 C3'        44.0240   32.3390   10.0160 C.3       1 FAD400      0.0000 
     45 O3'        43.2660   31.1470    9.8020 O.3       1 FAD400      0.0000 
     46 C4'        45.2480   32.3100    9.1150 C.3       1 FAD400      0.0000 
     47 O4'        46.1080   33.4100    9.4530 O.3       1 FAD400      0.0000 
     48 C5'        44.8400   32.3510    7.6510 C.3       1 FAD400      0.0000 
     49 O5'        46.1020   32.3310    6.9790 O.3       1 FAD400      0.0000 
     50 P          46.1780   32.6780    5.3990 P.3       1 FAD400      0.0000 
     51 O1P        45.0360   32.0230    4.7290 O.co2     1 FAD400      0.0000 
     52 O2P        47.5950   32.4210    4.9140 O.co2     1 FAD400      0.0000 
     53 O3P        45.8800   34.2640    5.3500 O.3       1 FAD400      0.0000 
     54 H          46.2425   36.4294    3.1201 H         1 FAD400      0.0000 
     55 H          46.8787   34.9552    2.3705 H         1 FAD400      0.0000 
     56 H          49.0870   36.2280    2.2117 H         1 FAD400      0.0000 
     57 H          47.4766   38.1744    3.4848 H         1 FAD400      0.0000 
     58 H          46.6826   39.0827    1.6085 H         1 FAD400      0.0000 
     59 H          49.0545   38.0422    0.1384 H         1 FAD400      0.0000 
     60 H          45.2712   38.2908   -0.1379 H         1 FAD400      0.0000 
     61 H          45.8110   38.6542   -6.0563 H         1 FAD400      0.0000 
     62 H          44.9875   39.5301   -4.7222 H         1 FAD400      0.0000 
     63 H          50.1297   38.5822   -4.3083 H         1 FAD400      0.0000 
     64 H          44.9514   29.4598   17.2038 H         1 FAD400      0.0000 
     65 H          42.4344   35.9365   16.8343 H         1 FAD400      0.0000 
     66 H          42.3987   34.8052   12.1210 H         1 FAD400      0.0000 
     67 H          42.3971   32.9443   11.7139 H         1 FAD400      0.0000 
     68 H          42.7776   31.2926   12.2306 H         1 FAD400      0.0000 
     69 H          45.0263   31.5621   11.7335 H         1 FAD400      0.0000 
     70 H          43.4495   33.2142    9.7940 H         1 FAD400      0.0000 
     71 H          45.7616   31.3626    9.2945 H         1 FAD400      0.0000 
     72 H          44.3008   33.2556    7.4736 H         1 FAD400      0.0000 
     73 H          44.2533   31.4846    7.4372 H         1 FAD400      0.0000 
     74 H          42.2748   38.4909   15.8703 H         1 FAD400      0.0000 
     75 H          41.2793   38.5944   14.6115 H         1 FAD400      0.0000 
     76 H          40.7667   37.9457   15.9909 H         1 FAD400      0.0000 
     77 H          42.0525   38.1086   12.5120 H         1 FAD400      0.0000 
     78 H          41.5650   36.8800   11.5959 H         1 FAD400      0.0000 
     79 H          40.5615   37.5278   12.6728 H         1 FAD400      0.0000 
     80 H          50.0812   38.2914    2.2883 H         1 FAD400      0.0000 
     81 H          49.4265   39.9044    1.3337 H         1 FAD400      0.0000 
     82 H          45.5760   33.9111   11.0919 H         1 FAD400      0.0000 
     83 H          43.9177   30.4908    9.4217 H         1 FAD400      0.0000 
     84 H          46.9664   33.2235    8.9752 H         1 FAD400      0.0000 
@<TRIPOS>BOND
     1    2    1 ar   
     2    3    1 ar   
     3    4    1 1    
     4   53    1 1    
     5    5    4 1    
     6    6    5 1    
     7   54    5 1    
     8   55    5 1    
     9    7    6 1    
    10    8    6 1    
    11   56    6 1    
    12   12    7 1    
    13    9    8 1    
    14   10    8 1    
    15   57    8 1    
    16   80    9 1    
    17   11   10 1    
    18   12   10 1    
    19   58   10 1    
    20   81   11 1    
    21   13   12 1    
    22   59   12 1    
    23   14   13 1    
    24   22   13 1    
    25   15   14 2    
    26   60   14 1    
    27   16   15 1    
    28   17   16 ar   
    29   22   16 ar   
    30   18   17 1    
    31   19   17 ar   
    32   61   18 1    
    33   62   18 1    
    34   20   19 ar   
    35   21   20 ar   
    36   63   20 1    
    37   22   21 ar   
    38   24   23 1    
    39   40   23 2    
    40   25   24 2    
    41   26   24 am   
    42   27   26 am   
    43   64   26 1    
    44   28   27 2    
    45   29   27 1    
    46   30   29 2    
    47   40   29 1    
    48   31   30 1    
    49   32   31 ar   
    50   38   31 ar   
    51   33   32 ar   
    52   65   32 1    
    53   34   33 1    
    54   35   33 ar   
    55   74   34 1    
    56   75   34 1    
    57   76   34 1    
    58   36   35 1    
    59   37   35 ar   
    60   77   36 1    
    61   78   36 1    
    62   79   36 1    
    63   38   37 ar   
    64   66   37 1    
    65   39   38 1    
    66   40   39 1    
    67   41   39 1    
    68   42   41 1    
    69   67   41 1    
    70   68   41 1    
    71   43   42 1    
    72   44   42 1    
    73   69   42 1    
    74   82   43 1    
    75   45   44 1    
    76   46   44 1    
    77   70   44 1    
    78   83   45 1    
    79   47   46 1    
    80   48   46 1    
    81   71   46 1    
    82   84   47 1    
    83   49   48 1    
    84   72   48 1    
    85   73   48 1    
    86   50   49 1    
    87   51   50 ar   
    88   52   50 ar   
    89   53   50 1    
@<TRIPOS>SUBSTRUCTURE
     1 FAD400      1 GROUP   
@<TRIPOS>SET

