#    Name: 2ze1_411_1_INTS_M
#    Modification time : Tue Mar 25 10:38:20 2014

@<TRIPOS>MOLECULE
2ze1_411_1_INTS_M
   63     0     9     0     0
SMALL
NO_CHARGES


@<TRIPOS>ATOM
      1 CA         17.6145  -14.3165   14.7235 C.3       3 GLC5        0.0000 
      2 CA         17.5750  -12.9590   16.4900 C.3       9 GLL5        0.0000 
      3 CA         17.6540  -15.6740   12.9570 C.3       6 GLP5        0.0000 
      4 CA         16.6230   -9.5035   15.0360 C.3       3 GLC5        0.0000 
      5 CA         15.0440   -9.2570   16.1150 C.3       9 GLL5        0.0000 
      6 CA         18.2020   -9.7500   13.9570 C.3       6 GLP5        0.0000 
      7 O          15.7145   -7.4355   14.3420 O.2       1 ALC1        0.0000 
      8 O          15.8600   -7.0120   15.5670 O.2       7 ALL1        0.0000 
      9 O          15.5690   -7.8590   13.1170 O.2       4 ALP1        0.0000 
     10 OD1        16.0695   -6.3755   13.8930 O.co2     2 ASC3        0.0000 
     11 OD1        16.4280   -5.7510   15.7390 O.co2     8 ASL3        0.0000 
     12 OD1        16.0620   -5.9110   12.2400 O.co2     5 ASP3        0.0000 
     13 OD1        15.5690   -7.8590   13.1170 O.co2     5 ASP3        0.0000 
     14 OD1        16.9505   -3.6915   14.8500 O.co2     2 ASC3        0.0000 
     15 OD1        17.0260   -3.1030   12.9400 O.co2     5 ASP3        0.0000 
     16 OD1        17.3310   -2.4910   15.0310 O.co2     5 ASP3        0.0000 
     17 O          16.3160   -5.4015   13.4545 O.2       1 ALC1        0.0000 
     18 O          16.5700   -4.8920   14.6690 O.2       7 ALL1        0.0000 
     19 O          16.0620   -5.9110   12.2400 O.2       4 ALP1        0.0000 
     20 O          16.0695   -6.3755   13.8930 O.2       1 ALC1        0.0000 
     21 O          16.9505   -3.6915   14.8500 O.2       1 ALC1        0.0000 
     22 O          17.3310   -2.4910   15.0310 O.2       4 ALP1        0.0000 
     23 O          11.5350   -4.0210   15.1025 O.2       1 ALC1        0.0000 
     24 O          10.3130   -4.9520   15.4400 O.2       7 ALL1        0.0000 
     25 O          12.7570   -3.0900   14.7650 O.2       4 ALP1        0.0000 
     26 CA          8.9270    0.9675   14.6920 C.3       3 GLC5        0.0000 
     27 CA          8.0650   -0.7050   13.9250 C.3       9 GLL5        0.0000 
     28 CA          9.7890    2.6400   15.4590 C.3       6 GLP5        0.0000 
     29 CA         11.5685   -3.0315   13.2285 C.3       3 GLC5        0.0000 
     30 CA          9.4610   -2.7010   13.8970 C.3       9 GLL5        0.0000 
     31 CA         13.6760   -3.3620   12.5600 C.3       6 GLP5        0.0000 
     32 CA         11.9765   -2.0060   12.3405 C.3       3 GLC5        0.0000 
     33 CA         10.2770   -0.6500   12.1210 C.3       9 GLL5        0.0000 
     34 CA         11.9470   -0.5340   13.5635 C.3       3 GLC5        0.0000 
     35 CA         13.6170   -0.4180   15.0060 C.3       6 GLP5        0.0000 
     36 CA         10.7075    0.9090   13.4035 C.3       3 GLC5        0.0000 
     37 CA         11.1380    2.4680   14.6860 C.3       6 GLP5        0.0000 
     38 CA         10.9900    1.0325   11.3500 C.3       3 GLC5        0.0000 
     39 CA         11.7030    2.7150   10.5790 C.3       6 GLP5        0.0000 
     40 CA         17.5425  -13.5110   19.2900 C.3       3 GLC5        0.0000 
     41 CA         18.3740  -12.0040   18.5730 C.3       9 GLL5        0.0000 
     42 CA         16.6010  -14.6250   20.5760 C.3       6 GLP5        0.0000 
     43 CA         16.6083  -13.0423   19.4360 C.3       3 GLC5        0.0000 
     44 CA         17.1320  -11.3770   18.7670 C.3       9 GLL5        0.0000 
     45 CA         17.5780  -11.1990   15.2722 C.3       3 GLC5        0.0000 
     46 CA         16.3330  -12.3370   16.6850 C.3       9 GLL5        0.0000 
     47 CA         19.1502  -14.3470   17.7340 C.3       3 GLC5        0.0000 
     48 CA         20.2710  -16.0160   18.2210 C.3       6 GLP5        0.0000 
     49 CA         10.5220   -9.3622   14.6083 C.3       3 GLC5        0.0000 
     50 CA         11.1580   -8.5590   16.2590 C.3       9 GLL5        0.0000 
     51 CA         10.2340  -10.7090   13.2430 C.3       6 GLP5        0.0000 
     52 CA         10.6097   -6.8770   13.9307 C.3       3 GLC5        0.0000 
     53 CA         10.4620   -7.4720   15.6880 C.3       9 GLL5        0.0000 
     54 CA         10.5360   -6.9410   12.0620 C.3       6 GLP5        0.0000 
     55 CA          8.2585   -2.7415   12.5708 C.3       3 GLC5        0.0000 
     56 CA          8.6370   -3.2810   14.8720 C.3       9 GLL5        0.0000 
     57 CA          7.4680   -2.4920   10.7570 C.3       6 GLP5        0.0000 
     58 CA          7.5625   -1.7428   12.5853 C.3       3 GLC5        0.0000 
     59 CA          7.2490   -1.2820   14.9020 C.3       9 GLL5        0.0000 
     60 CA          6.1063   -1.4976   13.7445 C.3       3 GLC5        0.0000 
     61 CA          4.4850   -1.6800   12.9570 C.3       6 GLP5        0.0000 
     62 CA          8.5945   -1.7630   11.7680 C.3       3 GLC5        0.0000 
     63 CA          9.1650   -1.4180   13.4370 C.3       9 GLL5        0.0000 
@<TRIPOS>BOND
@<TRIPOS>SUBSTRUCTURE
     1 ALC1        7 GROUP        1 X    ALC  0     ROOT ALC X 1
     2 ASC3       10 GROUP        1 X    ASC  0     **** ASC X 3
     3 GLC5        1 GROUP        1 X    GLC  0     **** GLC X 6
     4 ALP1        9 GROUP        1 Y    ALP  0     ROOT ALP Y 8
     5 ASP3       12 GROUP        1 Y    ASP  0     **** ASP Y 10
     6 GLP5        3 GROUP        1 Y    GLP  0     **** GLP Y 13
     7 ALL1        8 GROUP        1 Z    ALL  0     ROOT ALL Z 15
     8 ASL3       11 GROUP        1 Z    ASL  0     **** ASL Z 17
     9 GLL5        2 GROUP        1 Z    GLL  0     **** GLL Z 20
@<TRIPOS>SET

