#    Name: 2ze1_411_1_ligand
#    Modification time : Tue Mar 25 10:38:20 2014

@<TRIPOS>MOLECULE
2ze1_411_1_ligand
   57    60     1     0     0
SMALL
NO_CHARGES


@<TRIPOS>ATOM
      1 C1         18.5940  -12.7900   17.4350 C.ar      1 4111        0.0000 
      2 C2         18.3740  -12.0040   18.5730 C.ar      1 4111        0.0000 
      3 C3         17.1320  -11.3770   18.7670 C.ar      1 4111        0.0000 
      4 C4         16.0990  -11.5420   17.8250 C.ar      1 4111        0.0000 
      5 C5         16.3330  -12.3370   16.6850 C.ar      1 4111        0.0000 
      6 C6         17.5750  -12.9590   16.4900 C.ar      1 4111        0.0000 
      7 C7         14.8060  -10.8820   18.0270 C.2       1 4111        0.0000 
      8 C8         13.8310  -11.1330   18.9800 C.2       1 4111        0.0000 
      9 C9         12.7590  -10.2290   18.7730 C.2       1 4111        0.0000 
     10 C10        13.0690   -9.4330   17.6780 C.2       1 4111        0.0000 
     11 N1         14.3250   -9.8470   17.2390 N.pl3     1 4111        0.0000 
     12 C11        15.0440   -9.2570   16.1150 C.3       1 4111        0.0000 
     13 C12        15.6880   -7.9890   16.6060 C.2       1 4111        0.0000 
     14 O1         16.0210   -7.7870   17.7680 O.2       1 4111        0.0000 
     15 N2         15.8600   -7.0120   15.5670 N.am      1 4111        0.0000 
     16 C13        16.4280   -5.7510   15.7390 C.cat     1 4111        0.0000 
     17 N3         16.8700   -5.3650   16.9960 N.pl3     1 4111        0.0000 
     18 N4         16.5700   -4.8920   14.6690 N.pl3     1 4111        0.0000 
     19 C14        12.2920   -8.3410   17.0640 C.ar      1 4111        0.0000 
     20 C15        11.1580   -8.5590   16.2590 C.ar      1 4111        0.0000 
     21 C16        10.4620   -7.4720   15.6880 C.ar      1 4111        0.0000 
     22 C17        10.9050   -6.1540   15.9110 C.ar      1 4111        0.0000 
     23 C18        12.0340   -5.9480   16.7170 C.ar      1 4111        0.0000 
     24 C19        12.7200   -7.0220   17.2810 C.ar      1 4111        0.0000 
     25 N5         10.3130   -4.9520   15.4400 N.am      1 4111        0.0000 
     26 C20         8.9580   -4.6400   15.3730 C.2       1 4111        0.0000 
     27 O2          8.0090   -5.3460   15.6830 O.2       1 4111        0.0000 
     28 C21         8.6370   -3.2810   14.8720 C.ar      1 4111        0.0000 
     29 C22         7.5310   -2.5690   15.3760 C.ar      1 4111        0.0000 
     30 C23         7.2490   -1.2820   14.9020 C.ar      1 4111        0.0000 
     31 C24         8.0650   -0.7050   13.9250 C.ar      1 4111        0.0000 
     32 C25         9.1650   -1.4180   13.4370 C.ar      1 4111        0.0000 
     33 C26         9.4610   -2.7010   13.8970 C.ar      1 4111        0.0000 
     34 BR         10.2770   -0.6500   12.1210 Br        1 4111        0.0000 
     35 H          19.5037  -13.2428   17.2937 H         1 4111        0.0000 
     36 H          19.1192  -11.8848   19.2666 H         1 4111        0.0000 
     37 H          16.9760  -10.7967   19.5974 H         1 4111        0.0000 
     38 H          15.5846  -12.4604   15.9917 H         1 4111        0.0000 
     39 H          17.7346  -13.5344   15.6589 H         1 4111        0.0000 
     40 H          13.8593  -11.7902   19.6590 H         1 4111        0.0000 
     41 H          11.9765  -10.1882   19.2980 H         1 4111        0.0000 
     42 H          14.3643   -9.0176   15.3033 H         1 4111        0.0000 
     43 H          15.8158   -9.9291   15.7534 H         1 4111        0.0000 
     44 H          15.5243   -7.2868   14.6031 H         1 4111        0.0000 
     45 H          16.7724   -6.0433   17.7242 H         1 4111        0.0000 
     46 H          17.2480   -4.4418   17.0652 H         1 4111        0.0000 
     47 H          16.3020   -5.2535   13.7760 H         1 4111        0.0000 
     48 H          16.9286   -3.9825   14.8794 H         1 4111        0.0000 
     49 H          10.8329   -9.5168   16.0847 H         1 4111        0.0000 
     50 H           9.6348   -7.6432   15.1116 H         1 4111        0.0000 
     51 H          12.3593   -4.9833   16.8932 H         1 4111        0.0000 
     52 H          13.5521   -6.8502   17.8651 H         1 4111        0.0000 
     53 H          11.0035   -4.1982   15.0958 H         1 4111        0.0000 
     54 H           6.9343   -2.9967   16.0904 H         1 4111        0.0000 
     55 H           6.4452   -0.7648   15.2717 H         1 4111        0.0000 
     56 H           7.8599    0.2312   13.5693 H         1 4111        0.0000 
     57 H          10.2633   -3.2119   13.5321 H         1 4111        0.0000 
@<TRIPOS>BOND
     1    2    1 ar   
     2    6    1 ar   
     3   35    1 1    
     4    3    2 ar   
     5   36    2 1    
     6    4    3 ar   
     7   37    3 1    
     8    5    4 ar   
     9    7    4 1    
    10    6    5 ar   
    11   38    5 1    
    12   39    6 1    
    13    8    7 2    
    14   11    7 1    
    15    9    8 1    
    16   40    8 1    
    17   10    9 2    
    18   41    9 1    
    19   11   10 1    
    20   19   10 1    
    21   12   11 1    
    22   13   12 1    
    23   42   12 1    
    24   43   12 1    
    25   14   13 2    
    26   15   13 am   
    27   16   15 1    
    28   44   15 1    
    29   17   16 ar   
    30   18   16 ar   
    31   45   17 1    
    32   46   17 1    
    33   47   18 1    
    34   48   18 1    
    35   20   19 ar   
    36   24   19 ar   
    37   21   20 ar   
    38   49   20 1    
    39   22   21 ar   
    40   50   21 1    
    41   23   22 ar   
    42   25   22 1    
    43   24   23 ar   
    44   51   23 1    
    45   52   24 1    
    46   26   25 am   
    47   53   25 1    
    48   27   26 2    
    49   28   26 1    
    50   29   28 ar   
    51   33   28 ar   
    52   30   29 ar   
    53   54   29 1    
    54   31   30 ar   
    55   55   30 1    
    56   32   31 ar   
    57   56   31 1    
    58   33   32 ar   
    59   34   32 1    
    60   57   33 1    
@<TRIPOS>SUBSTRUCTURE
     1 4111        1 GROUP   
@<TRIPOS>SET

