#    Name: 3b26_B2L_1_INTS_M
#    Modification time : Mon Mar 24 18:47:01 2014

@<TRIPOS>MOLECULE
3b26_B2L_1_INTS_M
   40     0     6     0     0
SMALL
NO_CHARGES


@<TRIPOS>ATOM
      1 CA         -2.9865   12.9650    0.2955 C.3       2 GLC5        0.0000 
      2 CA         -3.1480   11.3090    1.5130 C.3       6 GLL5        0.0000 
      3 CA         -2.8250   14.6210   -0.9220 C.3       4 GLP5        0.0000 
      4 CA         -4.6985   11.8245    2.5280 C.3       2 GLC5        0.0000 
      5 CA         -6.2490   12.3400    3.5430 C.3       4 GLP5        0.0000 
      6 CA          2.6925    9.6740    1.8530 C.3       2 GLC5        0.0000 
      7 CA          2.1390   10.2860   -0.1670 C.3       6 GLL5        0.0000 
      8 CA          3.2460    9.0620    3.8730 C.3       4 GLP5        0.0000 
      9 CA          5.1465    7.7645   -4.1630 C.3       2 GLC5        0.0000 
     10 CA          4.1410    9.0490   -3.1980 C.3       6 GLL5        0.0000 
     11 CA          6.1520    6.4800   -5.1280 C.3       4 GLP5        0.0000 
     12 CA          5.3770    9.9865   -4.5255 C.3       2 GLC5        0.0000 
     13 CA          6.6130   10.9240   -5.8530 C.3       4 GLP5        0.0000 
     14 CA          2.9975   10.1705   -4.1340 C.3       2 GLC5        0.0000 
     15 CA          1.8540   11.2920   -5.0700 C.3       4 GLP5        0.0000 
     16 CA          3.8425    9.8870    2.0165 C.3       2 GLC5        0.0000 
     17 CA          4.4390   10.7120    0.1600 C.3       6 GLL5        0.0000 
     18 CA          5.7145    9.1030   -0.4995 C.3       2 GLC5        0.0000 
     19 CA          6.9900    7.4940   -1.1590 C.3       4 GLP5        0.0000 
     20 CA          5.4335   12.2010   -0.7610 C.3       2 GLC5        0.0000 
     21 CA          6.4280   13.6900   -1.6820 C.3       4 GLP5        0.0000 
     22 O           6.8325   11.3400    0.9715 O.2       1 ALC1        0.0000 
     23 O           5.4180   11.1680    0.9380 O.2       5 ALL1        0.0000 
     24 O           8.2470   11.5120    1.0050 O.2       3 ALP1        0.0000 
     25 CA         -2.0180   11.8283    2.8718 C.3       2 GLC5        0.0000 
     26 CA         -1.8300   11.0480    1.0700 C.3       6 GLL5        0.0000 
     27 CA         -1.5470   12.4780    4.4520 C.3       4 GLP5        0.0000 
     28 CA         -2.4996   10.2508   -1.1122 C.3       2 GLC5        0.0000 
     29 CA         -1.4700    9.7200    0.7420 C.3       6 GLL5        0.0000 
     30 CA         -3.1050   10.3730   -3.1430 C.3       4 GLP5        0.0000 
     31 CA         -0.8817   12.1990    2.6402 C.3       2 GLC5        0.0000 
     32 CA         -0.8660   12.0680    1.0440 C.3       6 GLL5        0.0000 
     33 CA          1.3230   12.0753   -1.2255 C.3       2 GLC5        0.0000 
     34 CA          0.4330   11.7720    0.6130 C.3       6 GLL5        0.0000 
     35 CA          2.0210   13.0340   -2.8940 C.3       4 GLP5        0.0000 
     36 CA         -1.2408   12.6465   -0.4665 C.3       2 GLC5        0.0000 
     37 CA         -2.0240   13.6280   -1.7680 C.3       4 GLP5        0.0000 
     38 CA          5.4718    8.4325   -1.8408 C.3       2 GLC5        0.0000 
     39 CA          3.7660    9.6930   -1.8470 C.3       6 GLL5        0.0000 
     40 CA          2.5231   11.4471   -2.1101 C.3       2 GLC5        0.0000 
@<TRIPOS>BOND
@<TRIPOS>SUBSTRUCTURE
     1 ALC1       22 GROUP        1 X    ALC  0     ROOT ALC X 1
     2 GLC5        1 GROUP        1 X    GLC  0     **** GLC X 6
     3 ALP1       24 GROUP        1 Y    ALP  0     ROOT ALP Y 8
     4 GLP5        3 GROUP        1 Y    GLP  0     **** GLP Y 13
     5 ALL1       23 GROUP        1 Z    ALL  0     ROOT ALL Z 15
     6 GLL5        2 GROUP        1 Z    GLL  0     **** GLL Z 20
@<TRIPOS>SET

