#    Name: 3b26_B2L_1_ligand
#    Modification time : Mon Mar 24 18:47:01 2014

@<TRIPOS>MOLECULE
3b26_B2L_1_ligand
   36    39     1     0     0
SMALL
NO_CHARGES


@<TRIPOS>ATOM
      1 C1         -3.1480   11.3090    1.5130 C.3       1 B2L1        0.0000 
      2 O2         -3.9000   10.1970    2.0890 O.3       1 B2L1        0.0000 
      3 C3         -3.7490    9.0130    1.2290 C.3       1 B2L1        0.0000 
      4 C4         -2.4470    8.6980    0.7920 C.ar      1 B2L1        0.0000 
      5 C5         -2.1160    7.3820    0.4490 C.ar      1 B2L1        0.0000 
      6 C6         -0.8210    7.0850    0.0110 C.ar      1 B2L1        0.0000 
      7 C7          0.1570    8.0860   -0.0230 C.ar      1 B2L1        0.0000 
      8 C8         -0.1450    9.4190    0.3380 C.ar      1 B2L1        0.0000 
      9 C9         -1.4700    9.7200    0.7420 C.ar      1 B2L1        0.0000 
     10 C10        -1.8300   11.0480    1.0700 C.ar      1 B2L1        0.0000 
     11 C11        -0.8660   12.0680    1.0440 C.ar      1 B2L1        0.0000 
     12 C12         0.4330   11.7720    0.6130 C.ar      1 B2L1        0.0000 
     13 C13         0.8170   10.4610    0.2730 C.ar      1 B2L1        0.0000 
     14 C14         2.1390   10.2860   -0.1670 C.ar      1 B2L1        0.0000 
     15 N15         3.1580   10.7770    0.5790 N.ar      1 B2L1        0.0000 
     16 C16         2.4300    9.7690   -1.4440 C.ar      1 B2L1        0.0000 
     17 C17         3.7660    9.6930   -1.8470 C.ar      1 B2L1        0.0000 
     18 C18         4.1410    9.0490   -3.1980 C.3       1 B2L1        0.0000 
     19 N19         4.7400   10.1540   -1.0280 N.ar      1 B2L1        0.0000 
     20 C20         4.4390   10.7120    0.1600 C.ar      1 B2L1        0.0000 
     21 N21         5.4180   11.1680    0.9380 N.pl3     1 B2L1        0.0000 
     22 H          -3.1408   12.1598    2.2689 H         1 B2L1        0.0000 
     23 H          -3.7627   11.7477    0.6616 H         1 B2L1        0.0000 
     24 H          -4.4427    9.1393    0.3385 H         1 B2L1        0.0000 
     25 H          -4.2059    8.1272    1.7736 H         1 B2L1        0.0000 
     26 H          -2.8180    6.6409    0.5184 H         1 B2L1        0.0000 
     27 H          -0.5869    6.1308   -0.2863 H         1 B2L1        0.0000 
     28 H           1.1183    7.8525   -0.3163 H         1 B2L1        0.0000 
     29 H          -1.1105   13.0136    1.3361 H         1 B2L1        0.0000 
     30 H           1.1305   12.5337    0.5416 H         1 B2L1        0.0000 
     31 H           1.6819    9.4594   -2.0553 H         1 B2L1        0.0000 
     32 H           5.1430   11.5093    1.8368 H         1 B2L1        0.0000 
     33 H           6.3403   11.1282    0.5536 H         1 B2L1        0.0000 
     34 H           5.1282    9.0667   -3.3566 H         1 B2L1        0.0000 
     35 H           3.8535    8.0924   -3.2460 H         1 B2L1        0.0000 
     36 H           3.7121    9.5229   -3.9671 H         1 B2L1        0.0000 
@<TRIPOS>BOND
     1    2    1 1    
     2   10    1 1    
     3   22    1 1    
     4   23    1 1    
     5    3    2 1    
     6    4    3 1    
     7   24    3 1    
     8   25    3 1    
     9    5    4 ar   
    10    9    4 ar   
    11    6    5 ar   
    12   26    5 1    
    13    7    6 ar   
    14   27    6 1    
    15    8    7 ar   
    16   28    7 1    
    17    9    8 ar   
    18   13    8 ar   
    19   10    9 ar   
    20   11   10 ar   
    21   12   11 ar   
    22   29   11 1    
    23   13   12 ar   
    24   30   12 1    
    25   14   13 1    
    26   15   14 ar   
    27   16   14 ar   
    28   20   15 ar   
    29   17   16 ar   
    30   31   16 1    
    31   18   17 1    
    32   19   17 ar   
    33   34   18 1    
    34   35   18 1    
    35   36   18 1    
    36   20   19 ar   
    37   21   20 1    
    38   32   21 1    
    39   33   21 1    
@<TRIPOS>SUBSTRUCTURE
     1 B2L1        1 GROUP   
@<TRIPOS>SET

