#    Name: 3o2f_P54_1_INTS_M
#    Modification time : Tue Mar 25 03:09:51 2014

@<TRIPOS>MOLECULE
3o2f_P54_1_INTS_M
   61     0     6     0     0
SMALL
NO_CHARGES


@<TRIPOS>ATOM
      1 CA          3.2170   18.9030    3.5765 C.3       2 GLC5        0.0000 
      2 CA          4.5990   17.3860    3.9090 C.3       6 GLL5        0.0000 
      3 CA          1.8350   20.4200    3.2440 C.3       4 GLP5        0.0000 
      4 CA          3.2425   15.7200    3.3930 C.3       2 GLC5        0.0000 
      5 CA          1.8860   14.0540    2.8770 C.3       4 GLP5        0.0000 
      6 CA         11.5725   17.1130    3.3680 C.3       2 GLC5        0.0000 
      7 CA          9.7290   16.7630    4.3790 C.3       6 GLL5        0.0000 
      8 CA         13.4160   17.4630    2.3570 C.3       4 GLP5        0.0000 
      9 CA          9.7980   18.4815    4.7285 C.3       2 GLC5        0.0000 
     10 CA          9.8670   20.2000    5.0780 C.3       4 GLP5        0.0000 
     11 O           2.5335   16.7880    5.2950 O.2       1 ALC1        0.0000 
     12 O           4.0530   16.9520    5.0670 O.2       5 ALL1        0.0000 
     13 O           1.0140   16.6240    5.5230 O.2       3 ALP1        0.0000 
     14 CA          6.2245   17.3580   -0.4565 C.3       2 GLC5        0.0000 
     15 CA          6.4160   18.7780    0.3430 C.3       6 GLL5        0.0000 
     16 CA          6.0330   15.9380   -1.2560 C.3       4 GLP5        0.0000 
     17 CA          4.8495   22.8295    4.5565 C.3       2 GLC5        0.0000 
     18 CA          5.1850   21.2820    3.4060 C.3       6 GLL5        0.0000 
     19 CA          4.5140   24.3770    5.7070 C.3       4 GLP5        0.0000 
     20 CA          6.9875   21.0715    3.9235 C.3       2 GLC5        0.0000 
     21 CA          8.7900   20.8610    4.4410 C.3       4 GLP5        0.0000 
     22 CA         11.2565   17.6360    6.0060 C.3       2 GLC5        0.0000 
     23 CA         10.2380   15.7830    6.7660 C.3       6 GLL5        0.0000 
     24 CA         12.2750   19.4890    5.2460 C.3       4 GLP5        0.0000 
     25 CA          8.4260   11.6800    5.1755 C.3       2 GLC5        0.0000 
     26 CA          9.0460   13.2630    6.3100 C.3       6 GLL5        0.0000 
     27 CA          7.8060   10.0970    4.0410 C.3       4 GLP5        0.0000 
     28 CA          7.2350   14.2865    2.5215 C.3       2 GLC5        0.0000 
     29 CA          8.3420   13.9270    3.9850 C.3       6 GLL5        0.0000 
     30 CA          6.1280   14.6460    1.0580 C.3       4 GLP5        0.0000 
     31 CA          8.0740   12.0120    4.0130 C.3       2 GLC5        0.0000 
     32 CA         10.5415   12.0525   10.1440 C.3       2 GLC5        0.0000 
     33 CA          9.7090   12.4990    8.6390 C.3       6 GLL5        0.0000 
     34 CA         11.3740   11.6060   11.6490 C.3       4 GLP5        0.0000 
     35 CA          9.6430   10.6630    7.8845 C.3       2 GLC5        0.0000 
     36 CA          9.5770    8.8270    7.1300 C.3       4 GLP5        0.0000 
     37 CA          5.7188   16.0100    2.4500 C.3       2 GLC5        0.0000 
     38 CA          6.0200   17.3620    3.7750 C.3       6 GLL5        0.0000 
     39 CA         10.7065   14.9778    3.5790 C.3       2 GLC5        0.0000 
     40 CA         11.7250   13.8270    2.2060 C.3       4 GLP5        0.0000 
     41 CA          5.0900   22.9617    0.9577 C.3       2 GLC5        0.0000 
     42 CA          5.9130   21.2750    0.9380 C.3       6 GLL5        0.0000 
     43 CA          4.4430   24.6530    0.3650 C.3       4 GLP5        0.0000 
     44 CA          4.0205   21.0678    0.3622 C.3       2 GLC5        0.0000 
     45 CA          2.3040   20.8650   -0.8260 C.3       4 GLP5        0.0000 
     46 CA          3.6040   20.8470    3.0143 C.3       2 GLC5        0.0000 
     47 CA          5.5610   21.2660    2.1630 C.3       6 GLL5        0.0000 
     48 CA          7.5017   21.2921    2.3440 C.3       2 GLC5        0.0000 
     49 CA          9.0130   21.5740    3.2440 C.3       4 GLP5        0.0000 
     50 CA         11.9545   14.9217    8.0935 C.3       2 GLC5        0.0000 
     51 CA         13.6540   14.5510    8.9220 C.3       4 GLP5        0.0000 
     52 CA          8.0643   13.6003    9.1905 C.3       2 GLC5        0.0000 
     53 CA          9.6820   13.5480    7.5270 C.3       6 GLL5        0.0000 
     54 CA          6.4330   14.1770   10.2980 C.3       4 GLP5        0.0000 
     55 CA         11.6747   13.7873    8.5025 C.3       2 GLC5        0.0000 
     56 CA          7.9612   11.9637    8.2470 C.3       2 GLC5        0.0000 
     57 CA          6.2270   10.9040    8.4110 C.3       4 GLP5        0.0000 
     58 CA         10.2040   13.9580    3.4238 C.3       2 GLC5        0.0000 
     59 CA          9.0240   14.2510    5.2980 C.3       6 GLL5        0.0000 
     60 CA          7.1143   13.2720    5.5077 C.3       2 GLC5        0.0000 
     61 CA          5.5400   12.7020    6.1210 C.3       4 GLP5        0.0000 
@<TRIPOS>BOND
@<TRIPOS>SUBSTRUCTURE
     1 ALC1       11 GROUP        1 X    ALC  0     ROOT ALC X 1
     2 GLC5        1 GROUP        1 X    GLC  0     **** GLC X 6
     3 ALP1       13 GROUP        1 Y    ALP  0     ROOT ALP Y 8
     4 GLP5        3 GROUP        1 Y    GLP  0     **** GLP Y 13
     5 ALL1       12 GROUP        1 Z    ALL  0     ROOT ALL Z 15
     6 GLL5        2 GROUP        1 Z    GLL  0     **** GLL Z 20
@<TRIPOS>SET

