#    Name: 3o2f_P54_1_ligand
#    Modification time : Tue Mar 25 03:09:51 2014

@<TRIPOS>MOLECULE
3o2f_P54_1_ligand
   42    44     1     0     0
SMALL
NO_CHARGES


@<TRIPOS>ATOM
      1 C1          6.0200   17.3620    3.7750 C.2       1 P541        0.0000 
      2 C2          6.5750   17.8200    2.5980 C.2       1 P541        0.0000 
      3 C3          4.5990   17.3860    3.9090 C.2       1 P541        0.0000 
      4 N4          5.8050   18.2570    1.5910 N.pl3     1 P541        0.0000 
      5 N5          3.8780   17.8240    2.8860 N.2       1 P541        0.0000 
      6 C6          4.4480   18.2880    1.7250 C.2       1 P541        0.0000 
      7 N7          6.9840   16.9380    4.5880 N.2       1 P541        0.0000 
      8 C8          8.1440   17.1710    3.7990 C.2       1 P541        0.0000 
      9 N9          7.9570   17.6870    2.6030 N.2       1 P541        0.0000 
     10 S10         9.7290   16.7630    4.3790 S.3       1 P541        0.0000 
     11 N11         4.0530   16.9520    5.0670 N.pl3     1 P541        0.0000 
     12 C12         6.4160   18.7780    0.3430 C.3       1 P541        0.0000 
     13 C13         6.9270   20.2340    0.5120 C.3       1 P541        0.0000 
     14 C14         5.9130   21.2750    0.9380 C.3       1 P541        0.0000 
     15 C15         5.5610   21.2660    2.1630 C.1       1 P541        0.0000 
     16 C16         5.1850   21.2820    3.4060 C.1       1 P541        0.0000 
     17 C17         9.6470   15.4940    5.5250 C.ar      1 P541        0.0000 
     18 C18        10.2380   15.7830    6.7660 C.ar      1 P541        0.0000 
     19 C19        10.2720   14.8020    7.7640 C.ar      1 P541        0.0000 
     20 C20         9.6820   13.5480    7.5270 C.ar      1 P541        0.0000 
     21 C21         9.0240   14.2510    5.2980 C.ar      1 P541        0.0000 
     22 C22         9.0460   13.2630    6.3100 C.ar      1 P541        0.0000 
     23 C23         8.3420   13.9270    3.9850 C.3       1 P541        0.0000 
     24 C24         9.7090   12.4990    8.6390 C.3       1 P541        0.0000 
     25 H           3.8535   18.6540    0.9676 H         1 P541        0.0000 
     26 H           3.0559   16.9972    5.1274 H         1 P541        0.0000 
     27 H           4.6947   16.6243    5.7603 H         1 P541        0.0000 
     28 H           5.6869   18.7705   -0.4752 H         1 P541        0.0000 
     29 H           7.2666   18.1561    0.0417 H         1 P541        0.0000 
     30 H           7.3900   20.5460   -0.4535 H         1 P541        0.0000 
     31 H           7.7661   20.2167    1.2465 H         1 P541        0.0000 
     32 H           5.0419   21.1508    0.2001 H         1 P541        0.0000 
     33 H           6.3571   22.2738    0.5863 H         1 P541        0.0000 
     34 H          10.6412   16.7068    6.9377 H         1 P541        0.0000 
     35 H          10.7225   14.9935    8.6608 H         1 P541        0.0000 
     36 H           8.6057   12.3613    6.1521 H         1 P541        0.0000 
     37 H           8.9779   13.9742    3.2146 H         1 P541        0.0000 
     38 H           7.9514   13.0064    3.9866 H         1 P541        0.0000 
     39 H           7.5950   14.5620    3.7879 H         1 P541        0.0000 
     40 H          10.6439   12.2617    8.9030 H         1 P541        0.0000 
     41 H           9.2440   12.8202    9.4640 H         1 P541        0.0000 
     42 H           9.2588   11.6507    8.3603 H         1 P541        0.0000 
@<TRIPOS>BOND
     1    2    1 1    
     2    3    1 2    
     3    7    1 1    
     4    4    2 1    
     5    9    2 2    
     6    5    3 1    
     7   11    3 1    
     8    6    4 1    
     9   12    4 1    
    10    6    5 2    
    11   25    6 1    
    12    8    7 2    
    13    9    8 1    
    14   10    8 1    
    15   17   10 1    
    16   26   11 1    
    17   27   11 1    
    18   13   12 1    
    19   28   12 1    
    20   29   12 1    
    21   14   13 1    
    22   30   13 1    
    23   31   13 1    
    24   15   14 1    
    25   32   14 1    
    26   33   14 1    
    27   16   15 3    
    28   18   17 ar   
    29   21   17 ar   
    30   19   18 ar   
    31   34   18 1    
    32   20   19 ar   
    33   35   19 1    
    34   22   20 ar   
    35   24   20 1    
    36   22   21 ar   
    37   23   21 1    
    38   36   22 1    
    39   37   23 1    
    40   38   23 1    
    41   39   23 1    
    42   40   24 1    
    43   41   24 1    
    44   42   24 1    
@<TRIPOS>SUBSTRUCTURE
     1 P541        1 GROUP   
@<TRIPOS>SET

