#    Name: 2QIO_1_CAVITY_N1_6.mol2
#    Modification time : Tue Mar 11 07:54:17 2014

@<TRIPOS>MOLECULE
2QIO_1_CAVITY_N1_6.mol2
   84     0     5     0     0
SMALL
NO_CHARGES


@<TRIPOS>ATOM
      1 CZ         25.7084   58.2637   79.0026 C.ar      3 PHE5        0.0000 
      2 N          28.1648   56.8418   77.2153 N.2       2 ALA2        0.0000 
      3 CZ         27.1842   56.8869   78.3496 C.ar      3 PHE5        0.0000 
      4 CZ         26.2037   56.9321   79.4839 C.ar      3 PHE5        0.0000 
      5 DU         25.2232   56.9773   80.6181 H         5 CUB7        0.0000 
      6 O          29.6406   55.4650   76.5623 O.2       2 ALA2        0.0000 
      7 DU         28.6601   55.5102   77.6966 H         5 CUB7        0.0000 
      8 OG         27.6796   55.5554   78.8308 O.2       1 SER1        0.0000 
      9 OG         26.6991   55.6006   79.9651 O.2       1 SER1        0.0000 
     10 N          25.7185   55.6457   81.0993 N.2       2 ALA2        0.0000 
     11 CA         31.1165   54.0883   75.9093 C.3       4 GLY6        0.0000 
     12 CA         30.1359   54.1335   77.0436 C.3       4 GLY6        0.0000 
     13 N          29.1554   54.1786   78.1778 N.2       2 ALA2        0.0000 
     14 N          28.1749   54.2238   79.3121 N.2       2 ALA2        0.0000 
     15 CA         32.6332   53.4459   77.2460 C.3       4 GLY6        0.0000 
     16 DU         31.6527   53.4910   78.3803 H         5 CUB7        0.0000 
     17 CA         30.6721   53.5362   79.5145 C.3       4 GLY6        0.0000 
     18 CZ         33.1285   52.1143   77.7273 C.ar      3 PHE5        0.0000 
     19 DU         32.1480   52.1595   78.8615 H         5 CUB7        0.0000 
     20 CA         31.1675   52.2047   79.9958 C.3       4 GLY6        0.0000 
     21 CZ         33.6239   50.7827   78.2085 C.ar      3 PHE5        0.0000 
     22 CZ         32.6433   50.8279   79.3428 C.ar      3 PHE5        0.0000 
     23 O          31.6628   50.8731   80.4770 O.2       2 ALA2        0.0000 
     24 CZ         34.1192   49.4512   78.6897 C.ar      3 PHE5        0.0000 
     25 CZ         33.1387   49.4963   79.8240 C.ar      3 PHE5        0.0000 
     26 O          32.1581   49.5415   80.9583 O.2       2 ALA2        0.0000 
     27 CZ         27.7512   59.6420   80.7136 C.ar      3 PHE5        0.0000 
     28 N          29.2270   58.2652   80.0606 N.2       2 ALA2        0.0000 
     29 OG         28.2465   58.3104   81.1948 O.2       1 SER1        0.0000 
     30 OG         27.2660   58.3556   82.3291 O.2       1 SER1        0.0000 
     31 CA         32.1787   55.5117   78.7546 C.3       4 GLY6        0.0000 
     32 OG         31.1982   55.5569   79.8888 O.2       1 SER1        0.0000 
     33 OG         33.6546   54.1350   78.1015 O.2       1 SER1        0.0000 
     34 OG         32.6740   54.1802   79.2358 O.2       1 SER1        0.0000 
     35 CA         31.6935   54.2253   80.3700 C.3       4 GLY6        0.0000 
     36 OG         33.1694   52.8486   79.7170 O.2       1 SER1        0.0000 
     37 CA         32.1889   52.8938   80.8513 C.3       4 GLY6        0.0000 
     38 OG         34.6452   51.4719   79.0640 O.2       1 SER1        0.0000 
     39 CZ         33.6647   51.5170   80.1983 C.ar      3 PHE5        0.0000 
     40 CZ         32.6842   51.5622   81.3325 C.ar      3 PHE5        0.0000 
     41 N          26.1220   55.4635   75.5044 N.2       2 ALA2        0.0000 
     42 CA         25.1415   55.5087   76.6386 C.3       4 GLY6        0.0000 
     43 DU         24.1610   55.5539   77.7729 H         5 CUB7        0.0000 
     44 CA         25.6368   54.1771   77.1198 C.3       4 GLY6        0.0000 
     45 CA         24.6563   54.2223   78.2541 C.3       4 GLY6        0.0000 
     46 CA         24.6461   56.8402   76.1574 C.3       4 GLY6        0.0000 
     47 DU         23.6656   56.8854   77.2916 H         5 CUB7        0.0000 
     48 CA         28.7725   60.3311   81.5691 C.3       4 GLY6        0.0000 
     49 CA         29.2679   58.9995   82.0503 C.3       4 GLY6        0.0000 
     50 CA         28.2873   59.0447   83.1846 C.3       4 GLY6        0.0000 
     51 N          28.1340   53.4895   77.3223 N.2       2 ALA2        0.0000 
     52 N          26.1730   53.5799   79.5908 N.2       2 ALA2        0.0000 
     53 CZ         26.7298   58.9528   79.8581 C.ar      3 PHE5        0.0000 
     54 CZ         29.1861   57.5309   78.0708 C.ar      3 PHE5        0.0000 
     55 CZ         28.2056   57.5761   79.2051 C.ar      3 PHE5        0.0000 
     56 OG         27.2251   57.6213   80.3394 O.2       1 SER1        0.0000 
     57 OG         26.2446   57.6664   81.4736 O.2       1 SER1        0.0000 
     58 CA         30.6620   56.1542   77.4178 C.3       4 GLY6        0.0000 
     59 OG         29.6815   56.1993   78.5521 O.2       1 SER1        0.0000 
     60 OG         26.7399   56.3349   81.9548 O.2       1 SER1        0.0000 
     61 CA         32.1379   54.7774   76.7648 C.3       4 GLY6        0.0000 
     62 DU         31.1573   54.8226   77.8991 H         5 CUB7        0.0000 
     63 CA         30.1768   54.8678   79.0333 C.3       4 GLY6        0.0000 
     64 CA         31.6118   52.7567   76.3905 C.3       4 GLY6        0.0000 
     65 N          30.6313   52.8019   77.5248 N.2       2 ALA2        0.0000 
     66 CZ         32.1071   51.4252   76.8718 C.ar      3 PHE5        0.0000 
     67 CA         31.1266   51.4703   78.0060 C.3       4 GLY6        0.0000 
     68 CZ         32.6025   50.0936   77.3530 C.ar      3 PHE5        0.0000 
     69 CA         31.6220   50.1388   78.4873 C.3       4 GLY6        0.0000 
     70 CA         30.6414   50.1840   79.6215 C.3       4 GLY6        0.0000 
     71 CZ         33.0978   48.7620   77.8343 C.ar      3 PHE5        0.0000 
     72 CA         32.1173   48.8072   78.9685 C.3       4 GLY6        0.0000 
     73 CZ         33.5931   47.4305   78.3155 C.ar      3 PHE5        0.0000 
     74 CZ         32.6126   47.4757   79.4497 C.ar      3 PHE5        0.0000 
     75 CZ         25.6675   57.5294   77.0129 C.ar      3 PHE5        0.0000 
     76 CZ         24.6870   57.5746   78.1471 C.ar      3 PHE5        0.0000 
     77 N          27.1434   56.1526   76.3598 N.2       2 ALA2        0.0000 
     78 N          26.1629   56.1978   77.4941 N.2       2 ALA2        0.0000 
     79 DU         25.1823   56.2430   78.6284 H         5 CUB7        0.0000 
     80 DU         24.2018   56.2882   79.7626 H         5 CUB7        0.0000 
     81 CA         27.6387   54.8211   76.8411 C.3       4 GLY6        0.0000 
     82 N          26.6582   54.8663   77.9753 N.2       2 ALA2        0.0000 
     83 CA         25.6777   54.9114   79.1096 C.3       4 GLY6        0.0000 
     84 N          24.6971   54.9566   80.2439 N.2       2 ALA2        0.0000 
@<TRIPOS>BOND
@<TRIPOS>SUBSTRUCTURE
     1 SER1        8 GROUP   
     2 ALA2        2 GROUP   
     3 PHE5        1 GROUP   
     4 GLY6       11 GROUP   
     5 CUB7        5 GROUP   
@<TRIPOS>SET

