#    Name: 2qio_TCL_1_INTS_M
#    Modification time : Mon Mar 24 22:12:36 2014

@<TRIPOS>MOLECULE
2qio_TCL_1_INTS_M
   50     0     9     0     0
SMALL
NO_CHARGES


@<TRIPOS>ATOM
      1 CA         36.3205   49.5100   78.2965 C.3       3 GLC5        0.0000 
      2 CA         34.2580   49.4230   78.7550 C.3       9 GLL5        0.0000 
      3 CA         38.3830   49.5970   77.8380 C.3       6 GLP5        0.0000 
      4 CA         30.5430   50.8450   77.3375 C.3       3 GLC5        0.0000 
      5 CA         31.1500   52.7960   77.8650 C.3       9 GLL5        0.0000 
      6 CA         29.9360   48.8940   76.8100 C.3       6 GLP5        0.0000 
      7 CA         34.9325   46.3380   78.0915 C.3       3 GLC5        0.0000 
      8 CA         33.5800   46.7970   78.9700 C.3       9 GLL5        0.0000 
      9 CA         36.2850   45.8790   77.2130 C.3       6 GLP5        0.0000 
     10 CA         33.7000   45.3570   80.1345 C.3       3 GLC5        0.0000 
     11 CA         33.8200   43.9170   81.2990 C.3       6 GLP5        0.0000 
     12 CA         31.9310   46.1445   79.7860 C.3       3 GLC5        0.0000 
     13 CA         30.2820   45.4920   80.6020 C.3       6 GLP5        0.0000 
     14 CA         34.9270   47.9240   80.3695 C.3       3 GLC5        0.0000 
     15 CA         36.2740   49.0510   81.7690 C.3       6 GLP5        0.0000 
     16 CA         30.1920   57.5550   76.6665 C.3       3 GLC5        0.0000 
     17 CA         29.0680   55.9150   76.4170 C.3       9 GLL5        0.0000 
     18 CA         31.3160   59.1950   76.9160 C.3       6 GLP5        0.0000 
     19 CA         29.4940   57.1390   74.9520 C.3       3 GLC5        0.0000 
     20 CA         29.9200   58.3630   73.4870 C.3       6 GLP5        0.0000 
     21 CA         28.7735   54.5865   75.2210 C.3       3 GLC5        0.0000 
     22 CA         28.4790   53.2580   74.0250 C.3       6 GLP5        0.0000 
     23 CA         33.5245   56.3765   79.8635 C.3       3 GLC5        0.0000 
     24 CA         32.2880   55.4740   80.8000 C.3       9 GLL5        0.0000 
     25 CA         34.7610   57.2790   78.9270 C.3       6 GLP5        0.0000 
     26 CA         30.7930   54.7365   81.1985 C.3       3 GLC5        0.0000 
     27 CA         29.2980   53.9990   81.5970 C.3       6 GLP5        0.0000 
     28 CA         33.8970   54.7655   81.0280 C.3       3 GLC5        0.0000 
     29 CA         35.5060   54.0570   81.2560 C.3       6 GLP5        0.0000 
     30 N          35.2605   52.8850   79.1955 N.am      2 SEC2        0.0000 
     31 N          34.8730   51.8010   78.5620 N.am      8 SEL2        0.0000 
     32 N          35.6480   53.9690   79.8290 N.am      5 SEP2        0.0000 
     33 O          35.4665   51.7560   77.4860 O.2       1 ALC1        0.0000 
     34 O          34.8730   51.8010   78.5620 O.2       7 ALL1        0.0000 
     35 O          36.0600   51.7110   76.4100 O.2       4 ALP1        0.0000 
     36 CA         34.4672   52.5495   80.2942 C.3       3 GLC5        0.0000 
     37 CA         32.8490   51.2460   79.6750 C.3       9 GLL5        0.0000 
     38 CA         30.2010   49.5135   80.6185 C.3       3 GLC5        0.0000 
     39 CA         31.9140   50.2770   80.1420 C.3       9 GLL5        0.0000 
     40 CA         28.3710   49.4510   81.2100 C.3       6 GLP5        0.0000 
     41 CA         31.1298   49.1815   78.3324 C.3       3 GLC5        0.0000 
     42 CA         30.8565   57.2258   77.4447 C.3       3 GLC5        0.0000 
     43 CA         30.0840   54.9680   77.3890 C.3       9 GLL5        0.0000 
     44 CA         29.3385   53.7700   75.6215 C.3       3 GLC5        0.0000 
     45 CA         29.8475   54.6278   79.7852 C.3       3 GLC5        0.0000 
     46 CA         32.9483   56.2135   78.9500 C.3       3 GLC5        0.0000 
     47 CA         30.7100   55.5450   78.5580 C.3       9 GLL5        0.0000 
     48 CA         33.5892   54.0562   80.2370 C.3       3 GLC5        0.0000 
     49 CA         31.5610   54.7510   79.3880 C.3       9 GLL5        0.0000 
     50 CA         30.3546   53.7124   80.0692 C.3       3 GLC5        0.0000 
@<TRIPOS>BOND
@<TRIPOS>SUBSTRUCTURE
     1 ALC1       33 GROUP        1 X    ALC  0     ROOT ALC X 1
     2 SEC2       30 GROUP        1 X    SEC  0     **** SEC X 2
     3 GLC5        1 GROUP        1 X    GLC  0     **** GLC X 6
     4 ALP1       35 GROUP        1 Y    ALP  0     ROOT ALP Y 8
     5 SEP2       32 GROUP        1 Y    SEP  0     **** SEP Y 9
     6 GLP5        3 GROUP        1 Y    GLP  0     **** GLP Y 13
     7 ALL1       34 GROUP        1 Z    ALL  0     ROOT ALL Z 15
     8 SEL2       31 GROUP        1 Z    SEL  0     **** SEL Z 16
     9 GLL5        2 GROUP        1 Z    GLL  0     **** GLL Z 20
@<TRIPOS>SET

