#    Name: 2qio_TCL_1_ligand
#    Modification time : Mon Mar 24 22:12:36 2014

@<TRIPOS>MOLECULE
2qio_TCL_1_ligand
   24    25     1     0     0
SMALL
NO_CHARGES


@<TRIPOS>ATOM
      1 C1         34.2580   49.4230   78.7550 C.ar      1 TCL601      0.0000 
      2 C2         33.3180   48.4470   79.2230 C.ar      1 TCL601      0.0000 
      3 C6         34.0080   50.8380   78.9900 C.ar      1 TCL601      0.0000 
      4 C5         32.8490   51.2460   79.6750 C.ar      1 TCL601      0.0000 
      5 C4         31.9140   50.2770   80.1420 C.ar      1 TCL601      0.0000 
      6 C3         32.1480   48.8750   79.9120 C.ar      1 TCL601      0.0000 
      7 C11        30.0840   54.9680   77.3890 C.ar      1 TCL601      0.0000 
      8 C10        30.7100   55.5450   78.5580 C.ar      1 TCL601      0.0000 
      9 C9         31.5610   54.7510   79.3880 C.ar      1 TCL601      0.0000 
     10 C8         31.7840   53.3600   79.0480 C.ar      1 TCL601      0.0000 
     11 C12        30.3120   53.5960   77.0470 C.ar      1 TCL601      0.0000 
     12 C13        31.1500   52.7960   77.8650 C.ar      1 TCL601      0.0000 
     13 O7         32.6110   52.6020   79.9050 O.3       1 TCL601      0.0000 
     14 CL14       33.5800   46.7970   78.9700 Cl        1 TCL601      0.0000 
     15 CL15       29.0680   55.9150   76.4170 Cl        1 TCL601      0.0000 
     16 CL16       32.2880   55.4740   80.8000 Cl        1 TCL601      0.0000 
     17 O17        34.8730   51.8010   78.5620 O.3       1 TCL601      0.0000 
     18 H          35.0923   49.1406   78.2638 H         1 TCL601      0.0000 
     19 H          31.0781   50.5698   80.6393 H         1 TCL601      0.0000 
     20 H          31.4712   48.1941   80.2455 H         1 TCL601      0.0000 
     21 H          30.5396   56.5198   78.7842 H         1 TCL601      0.0000 
     22 H          29.8724   53.2033   76.2205 H         1 TCL601      0.0000 
     23 H          31.3195   51.8199   77.6376 H         1 TCL601      0.0000 
     24 H          35.5220   51.3217   77.9712 H         1 TCL601      0.0000 
@<TRIPOS>BOND
     1    2    1 ar   
     2    3    1 ar   
     3   18    1 1    
     4    6    2 ar   
     5   14    2 1    
     6    4    3 ar   
     7   17    3 1    
     8    5    4 ar   
     9   13    4 1    
    10    6    5 ar   
    11   19    5 1    
    12   20    6 1    
    13    8    7 ar   
    14   11    7 ar   
    15   15    7 1    
    16    9    8 ar   
    17   21    8 1    
    18   10    9 ar   
    19   16    9 1    
    20   12   10 ar   
    21   13   10 1    
    22   12   11 ar   
    23   22   11 1    
    24   23   12 1    
    25   24   17 1    
@<TRIPOS>SUBSTRUCTURE
     1 TCL601      1 GROUP   
@<TRIPOS>SET

