#    Name: 4bfw_ZVW_2_INTS_M
#    Modification time : Tue Mar 25 07:39:22 2014

@<TRIPOS>MOLECULE
4bfw_ZVW_2_INTS_M
   72     0     6     0     0
SMALL
NO_CHARGES


@<TRIPOS>ATOM
      1 CA        -70.8835  -16.2820   13.8640 C.3       2 GLC5        0.0000 
      2 CA        -71.9820  -15.9110   15.1020 C.3       6 GLL5        0.0000 
      3 CA        -69.7850  -16.6530   12.6260 C.3       4 GLP5        0.0000 
      4 CA        -71.6010  -14.3355   14.3300 C.3       2 GLC5        0.0000 
      5 CA        -71.2200  -12.7600   13.5580 C.3       4 GLP5        0.0000 
      6 CA        -69.6855  -14.7385   16.4390 C.3       2 GLC5        0.0000 
      7 CA        -71.6030  -15.0720   17.2860 C.3       6 GLL5        0.0000 
      8 CA        -67.7680  -14.4050   15.5920 C.3       4 GLP5        0.0000 
      9 CA        -74.2620  -15.6880   15.1735 C.3       2 GLC5        0.0000 
     10 CA        -73.3710  -14.1470   15.8040 C.3       6 GLL5        0.0000 
     11 CA        -75.1530  -17.2290   14.5430 C.3       4 GLP5        0.0000 
     12 CA        -74.1180  -13.4270   20.6950 C.3       2 GLC5        0.0000 
     13 CA        -72.7580  -11.8130   20.1050 C.3       6 GLL5        0.0000 
     14 CA        -75.4780  -15.0410   21.2850 C.3       4 GLP5        0.0000 
     15 CA        -73.0655   -9.4555   22.2350 C.3       2 GLC5        0.0000 
     16 CA        -73.1640  -10.3630   20.4490 C.3       6 GLL5        0.0000 
     17 CA        -72.9670   -8.5480   24.0210 C.3       4 GLP5        0.0000 
     18 CA        -74.7805   -9.1485   17.9880 C.3       2 GLC5        0.0000 
     19 CA        -73.0600   -9.2780   19.0320 C.3       6 GLL5        0.0000 
     20 CA        -76.5010   -9.0190   16.9440 C.3       4 GLP5        0.0000 
     21 N         -71.3405   -9.7455   16.4290 N.am      1 SEC2        0.0000 
     22 N         -70.7050   -9.8450   17.5080 N.am      5 SEL2        0.0000 
     23 N         -71.9760   -9.6460   15.3500 N.am      3 SEP2        0.0000 
     24 N         -69.4880   -9.9870   16.3395 N.am      1 SEC2        0.0000 
     25 N         -68.2710  -10.1290   15.1710 N.am      3 SEP2        0.0000 
     26 N         -68.7900   -9.8810   16.4130 N.am      1 SEC2        0.0000 
     27 N         -69.3090   -9.6330   17.6550 N.am      5 SEL2        0.0000 
     28 CA        -69.7970   -8.4795   22.1645 C.3       2 GLC5        0.0000 
     29 CA        -70.6010   -8.0360   20.7720 C.3       6 GLL5        0.0000 
     30 CA        -68.9930   -8.9230   23.5570 C.3       4 GLP5        0.0000 
     31 CA        -71.5765   -7.6800   22.1475 C.3       2 GLC5        0.0000 
     32 CA        -72.5520   -7.3240   23.5230 C.3       4 GLP5        0.0000 
     33 CA        -68.3875   -8.7320   21.5480 C.3       2 GLC5        0.0000 
     34 CA        -67.7820   -8.5410   19.5390 C.3       6 GLL5        0.0000 
     35 CA        -66.0120   -6.8005   17.6010 C.3       2 GLC5        0.0000 
     36 CA        -67.0010   -7.5620   18.7170 C.3       6 GLL5        0.0000 
     37 CA        -65.0230   -6.0390   16.4850 C.3       4 GLP5        0.0000 
     38 CA        -64.6520   -9.7875   21.8600 C.3       2 GLC5        0.0000 
     39 CA        -65.2410  -11.7360   21.1930 C.3       6 GLL5        0.0000 
     40 CA        -64.0630   -7.8390   22.5270 C.3       4 GLP5        0.0000 
     41 CA        -63.6340  -12.6780   23.2595 C.3       2 GLC5        0.0000 
     42 CA        -64.3030  -12.7560   21.3240 C.3       6 GLL5        0.0000 
     43 CA        -62.9650  -12.6000   25.1950 C.3       4 GLP5        0.0000 
     44 CA        -72.7479  -16.8215   16.3723 C.3       2 GLC5        0.0000 
     45 CA        -72.3150  -15.0330   16.0680 C.3       6 GLL5        0.0000 
     46 CA        -73.6200  -18.3710   16.3090 C.3       4 GLP5        0.0000 
     47 CA        -74.0840  -14.4823   18.8073 C.3       2 GLC5        0.0000 
     48 CA        -72.0340  -14.1190   18.2270 C.3       6 GLL5        0.0000 
     49 CA        -75.6100  -15.2970   19.5100 C.3       4 GLP5        0.0000 
     50 CA        -75.4142  -13.4582   15.7882 C.3       2 GLC5        0.0000 
     51 CA        -73.7480  -13.2300   16.7610 C.3       6 GLL5        0.0000 
     52 CA        -77.2690  -13.2280   15.2940 C.3       4 GLP5        0.0000 
     53 CA        -74.5847  -14.4928   17.8963 C.3       2 GLC5        0.0000 
     54 CA        -75.0265  -11.1070   20.2075 C.3       2 GLC5        0.0000 
     55 CA        -77.0920  -11.1260   20.1380 C.3       4 GLP5        0.0000 
     56 CA        -68.4547   -4.5915   18.7702 C.3       2 GLC5        0.0000 
     57 CA        -69.5630   -5.7030   20.5190 C.3       6 GLL5        0.0000 
     58 CA        -67.3220   -4.1500   17.2210 C.3       4 GLP5        0.0000 
     59 CA        -69.0590   -3.6830   18.2643 C.3       2 GLC5        0.0000 
     60 CA        -70.7710   -3.8590   19.5140 C.3       6 GLL5        0.0000 
     61 CA        -72.8307   -5.5953   17.8790 C.3       2 GLC5        0.0000 
     62 CA        -71.8700   -4.7070   19.3080 C.3       6 GLL5        0.0000 
     63 CA        -73.8200   -5.8110   16.2480 C.3       4 GLP5        0.0000 
     64 CA        -65.8400  -13.8205   18.1230 C.3       2 GLC5        0.0000 
     65 CA        -66.7580  -13.2540   20.0750 C.3       6 GLL5        0.0000 
     66 CA        -65.3970  -13.8740   16.0980 C.3       4 GLP5        0.0000 
     67 CA        -67.9922  -13.9099   17.1962 C.3       2 GLC5        0.0000 
     68 CA        -68.1050  -14.7900   18.8610 C.3       6 GLL5        0.0000 
     69 CA        -62.9880  -11.3320   20.5953 C.3       2 GLC5        0.0000 
     70 CA        -61.2040  -10.4180   19.9320 C.3       4 GLP5        0.0000 
     71 CA        -63.5605  -13.7966   19.3053 C.3       2 GLC5        0.0000 
     72 CA        -61.9950  -13.7560   17.9580 C.3       4 GLP5        0.0000 
@<TRIPOS>BOND
@<TRIPOS>SUBSTRUCTURE
     1 SEC2       21 GROUP        1 X    SEC  0     ROOT SEC X 2
     2 GLC5        1 GROUP        1 X    GLC  0     **** GLC X 6
     3 SEP2       23 GROUP        1 Y    SEP  0     ROOT SEP Y 9
     4 GLP5        3 GROUP        1 Y    GLP  0     **** GLP Y 13
     5 SEL2       22 GROUP        1 Z    SEL  0     ROOT SEL Z 16
     6 GLL5        2 GROUP        1 Z    GLL  0     **** GLL Z 20
@<TRIPOS>SET

