#    Name: 4bfw_ZVW_2_ligand
#    Modification time : Tue Mar 25 07:39:22 2014

@<TRIPOS>MOLECULE
4bfw_ZVW_2_ligand
   62    65     1     0     0
SMALL
NO_CHARGES


@<TRIPOS>ATOM
      1 F7        -71.9820  -15.9110   15.1020 F         1 ZVW501      0.0000 
      2 C2        -72.3150  -15.0330   16.0680 C.ar      1 ZVW501      0.0000 
      3 C1        -71.6030  -15.0720   17.2860 C.ar      1 ZVW501      0.0000 
      4 C6        -72.0340  -14.1190   18.2270 C.ar      1 ZVW501      0.0000 
      5 C3        -73.3710  -14.1470   15.8040 C.ar      1 ZVW501      0.0000 
      6 C4        -73.7480  -13.2300   16.7610 C.ar      1 ZVW501      0.0000 
      7 C5        -73.0820  -13.2160   17.9820 C.ar      1 ZVW501      0.0000 
      8 O8        -73.5240  -12.2560   18.9740 O.3       1 ZVW501      0.0000 
      9 C9        -72.7580  -11.8130   20.1050 C.3       1 ZVW501      0.0000 
     10 C10       -73.1640  -10.3630   20.4490 C.3       1 ZVW501      0.0000 
     11 S11       -73.0600   -9.2780   19.0320 S.3       1 ZVW501      0.0000 
     12 C12       -71.3540   -9.2730   18.6600 C.2       1 ZVW501      0.0000 
     13 N13       -70.7050   -9.8450   17.5080 N.2       1 ZVW501      0.0000 
     14 N14       -69.3090   -9.6330   17.6550 N.2       1 ZVW501      0.0000 
     15 N16       -70.3520   -8.7430   19.5280 N.pl3     1 ZVW501      0.0000 
     16 C17       -70.6010   -8.0360   20.7720 C.3       1 ZVW501      0.0000 
     17 C18       -70.6620   -6.5660   20.3340 C.ar      1 ZVW501      0.0000 
     18 C19       -69.5630   -5.7030   20.5190 C.ar      1 ZVW501      0.0000 
     19 C20       -69.6120   -4.3630   20.1200 C.ar      1 ZVW501      0.0000 
     20 C21       -70.7710   -3.8590   19.5140 C.ar      1 ZVW501      0.0000 
     21 F24       -70.8210   -2.5730   19.1010 F         1 ZVW501      0.0000 
     22 C22       -71.8700   -4.7070   19.3080 C.ar      1 ZVW501      0.0000 
     23 C23       -71.8130   -6.0520   19.7120 C.ar      1 ZVW501      0.0000 
     24 C15       -69.0870   -8.9350   18.8980 C.2       1 ZVW501      0.0000 
     25 C25       -67.7820   -8.5410   19.5390 C.3       1 ZVW501      0.0000 
     26 C26       -67.0010   -7.5620   18.7170 C.3       1 ZVW501      0.0000 
     27 N27       -67.0720   -9.7990   19.6490 N.am      1 ZVW501      0.0000 
     28 C28       -67.4260  -10.8280   20.4490 C.2       1 ZVW501      0.0000 
     29 O29       -68.3640  -10.8080   21.2330 O.2       1 ZVW501      0.0000 
     30 C30       -66.4650  -11.9760   20.5690 C.ar      1 ZVW501      0.0000 
     31 C35       -66.7580  -13.2540   20.0750 C.ar      1 ZVW501      0.0000 
     32 C36       -68.0930  -13.5650   19.4090 C.3       1 ZVW501      0.0000 
     33 F38       -69.0310  -13.5270   20.3560 F         1 ZVW501      0.0000 
     34 F37       -68.1050  -14.7900   18.8610 F         1 ZVW501      0.0000 
     35 F39       -68.3340  -12.6520   18.4660 F         1 ZVW501      0.0000 
     36 C31       -65.2410  -11.7360   21.1930 C.ar      1 ZVW501      0.0000 
     37 C32       -64.3030  -12.7560   21.3240 C.ar      1 ZVW501      0.0000 
     38 C33       -64.5850  -14.0330   20.8440 C.ar      1 ZVW501      0.0000 
     39 C34       -65.8080  -14.2800   20.2210 C.ar      1 ZVW501      0.0000 
     40 H         -70.8763  -15.7049   17.4581 H         1 ZVW501      0.0000 
     41 H         -71.5503  -14.0816   19.1535 H         1 ZVW501      0.0000 
     42 H         -73.8528  -14.1910   14.8991 H         1 ZVW501      0.0000 
     43 H         -74.5064  -12.5663   16.5817 H         1 ZVW501      0.0000 
     44 H         -71.6876  -11.8144   19.8978 H         1 ZVW501      0.0000 
     45 H         -72.9442  -12.4249   20.9879 H         1 ZVW501      0.0000 
     46 H         -72.5052   -9.9053   21.1569 H         1 ZVW501      0.0000 
     47 H         -74.1881  -10.2792   20.7470 H         1 ZVW501      0.0000 
     48 H         -69.7960   -8.1501   21.4622 H         1 ZVW501      0.0000 
     49 H         -71.5418   -8.3011   21.1985 H         1 ZVW501      0.0000 
     50 H         -68.7038   -6.0727   20.9597 H         1 ZVW501      0.0000 
     51 H         -68.8048   -3.7518   20.2696 H         1 ZVW501      0.0000 
     52 H         -72.7190   -4.3447   18.8608 H         1 ZVW501      0.0000 
     53 H         -72.6215   -6.6663   19.5509 H         1 ZVW501      0.0000 
     54 H         -67.9829   -8.1501   20.5116 H         1 ZVW501      0.0000 
     55 H         -66.2071   -9.8814   19.0346 H         1 ZVW501      0.0000 
     56 H         -65.0306  -10.7958   21.5595 H         1 ZVW501      0.0000 
     57 H         -63.3985  -12.5668   21.7766 H         1 ZVW501      0.0000 
     58 H         -63.8988  -14.7864   20.9477 H         1 ZVW501      0.0000 
     59 H         -66.0220  -15.2213   19.8628 H         1 ZVW501      0.0000 
     60 H         -66.1407   -7.3087   19.1593 H         1 ZVW501      0.0000 
     61 H         -66.7700   -7.9331   17.8176 H         1 ZVW501      0.0000 
     62 H         -67.5115   -6.7161   18.5627 H         1 ZVW501      0.0000 
@<TRIPOS>BOND
     1    2    1 1    
     2    3    2 ar   
     3    5    2 ar   
     4    4    3 ar   
     5   40    3 1    
     6    7    4 ar   
     7   41    4 1    
     8    6    5 ar   
     9   42    5 1    
    10    7    6 ar   
    11   43    6 1    
    12    8    7 1    
    13    9    8 1    
    14   10    9 1    
    15   44    9 1    
    16   45    9 1    
    17   11   10 1    
    18   46   10 1    
    19   47   10 1    
    20   12   11 1    
    21   13   12 2    
    22   15   12 1    
    23   14   13 1    
    24   24   14 2    
    25   16   15 1    
    26   24   15 1    
    27   17   16 1    
    28   48   16 1    
    29   49   16 1    
    30   18   17 ar   
    31   23   17 ar   
    32   19   18 ar   
    33   50   18 1    
    34   20   19 ar   
    35   51   19 1    
    36   21   20 1    
    37   22   20 ar   
    38   23   22 ar   
    39   52   22 1    
    40   53   23 1    
    41   25   24 1    
    42   26   25 1    
    43   27   25 1    
    44   54   25 1    
    45   60   26 1    
    46   61   26 1    
    47   62   26 1    
    48   28   27 am   
    49   55   27 1    
    50   29   28 2    
    51   30   28 1    
    52   31   30 ar   
    53   36   30 ar   
    54   32   31 1    
    55   39   31 ar   
    56   33   32 1    
    57   34   32 1    
    58   35   32 1    
    59   37   36 ar   
    60   56   36 1    
    61   38   37 ar   
    62   57   37 1    
    63   39   38 ar   
    64   58   38 1    
    65   59   39 1    
@<TRIPOS>SUBSTRUCTURE
     1 ZVW501      1 GROUP   
@<TRIPOS>SET

