#    Name: 1vl8_NAP_2_INTS_M
#    Modification time : Tue Mar 25 07:57:37 2014

@<TRIPOS>MOLECULE
1vl8_NAP_2_INTS_M
  121     0    12     0     0
SMALL
NO_CHARGES


@<TRIPOS>ATOM
      1 NZ         38.2285   43.4680   24.9355 N.4       3 LYC4        0.0000 
      2 NZ         38.4890   42.4490   23.8760 N.4      11 LYL4        0.0000 
      3 NZ         39.0800   45.2100   26.0570 N.4       7 LYP4        0.0000 
      4 N          39.3355   43.5955   24.6655 N.am      2 SEC2        0.0000 
      5 N          38.4890   42.4490   23.8760 N.am     10 SEL2        0.0000 
      6 N          40.1820   44.7420   25.4550 N.am      6 SEP2        0.0000 
      7 N          38.2285   43.4680   24.9355 N.am      2 SEC2        0.0000 
      8 N          37.9680   44.4870   25.9950 N.am      6 SEP2        0.0000 
      9 N          40.4190   43.8920   24.1455 N.am      2 SEC2        0.0000 
     10 N          40.6560   43.0420   22.8360 N.am     10 SEL2        0.0000 
     11 CA         39.5695   46.5575   23.5130 C.3       4 GLC5        0.0000 
     12 CA         37.6650   46.8220   22.9410 C.3      12 GLL5        0.0000 
     13 CA         41.4740   46.2930   24.0850 C.3       8 GLP5        0.0000 
     14 O          38.9065   49.0265   23.2815 O.2       1 ALC1        0.0000 
     15 O          38.2160   48.0860   22.5360 O.2       9 ALL1        0.0000 
     16 O          39.5970   49.9670   24.0270 O.2       5 ALP1        0.0000 
     17 CA         36.0685   48.1075   21.2610 C.3       4 GLC5        0.0000 
     18 CA         35.3690   47.2520   22.7690 C.3      12 GLL5        0.0000 
     19 CA         36.7680   48.9630   19.7530 C.3       8 GLP5        0.0000 
     20 CA         34.4590   47.0470   20.8735 C.3       4 GLC5        0.0000 
     21 CA         33.5490   46.8420   18.9780 C.3       8 GLP5        0.0000 
     22 CA         29.6610   50.1280   23.6940 C.3       4 GLC5        0.0000 
     23 CA         30.6800   48.3170   23.2520 C.3      12 GLL5        0.0000 
     24 CA         28.6420   51.9390   24.1360 C.3       8 GLP5        0.0000 
     25 CA         29.8095   48.6225   21.5580 C.3       4 GLC5        0.0000 
     26 CA         28.9390   48.9280   19.8640 C.3       8 GLP5        0.0000 
     27 O          28.3495   48.7380   24.0275 O.2       1 ALC1        0.0000 
     28 O          29.4560   47.9550   23.7080 O.2       9 ALL1        0.0000 
     29 O          27.2430   49.5210   24.3470 O.2       5 ALP1        0.0000 
     30 N          29.6155   50.3810   22.3220 N.am      2 SEC2        0.0000 
     31 N          30.8890   49.6090   22.8000 N.am     10 SEL2        0.0000 
     32 N          28.3420   51.1530   21.8440 N.am      6 SEP2        0.0000 
     33 CA         33.6380   51.1800   22.9350 C.3       4 GLC5        0.0000 
     34 CA         32.1370   50.0830   22.4450 C.3      12 GLL5        0.0000 
     35 CA         35.1390   52.2770   23.4250 C.3       8 GLP5        0.0000 
     36 CA         31.7740   50.2135   24.3675 C.3       4 GLC5        0.0000 
     37 CA         31.4110   50.3440   26.2900 C.3       8 GLP5        0.0000 
     38 CA         30.3895   51.0110   23.2905 C.3       4 GLC5        0.0000 
     39 CA         31.0485   50.6305   20.8725 C.3       4 GLC5        0.0000 
     40 CA         29.9600   51.1780   19.3000 C.3       8 GLP5        0.0000 
     41 CA         32.4120   49.0500   20.9235 C.3       4 GLC5        0.0000 
     42 CA         32.6870   48.0170   19.4020 C.3       8 GLP5        0.0000 
     43 CA         32.2385   49.1730   24.6225 C.3       4 GLC5        0.0000 
     44 CA         33.0660   48.0020   22.9550 C.3      12 GLL5        0.0000 
     45 N          40.3525   39.4760   20.6310 N.am      2 SEC2        0.0000 
     46 N          39.6090   40.1300   19.7550 N.am     10 SEL2        0.0000 
     47 N          41.0960   38.8220   21.5070 N.am      6 SEP2        0.0000 
     48 N          41.3280   43.2205   18.9665 N.am      2 SEC2        0.0000 
     49 N          40.2990   42.6330   19.6490 N.am     10 SEL2        0.0000 
     50 N          42.3570   43.8080   18.2840 N.am      6 SEP2        0.0000 
     51 CA         39.5455   42.9115   17.2695 C.3       4 GLC5        0.0000 
     52 CA         37.6820   43.0160   18.3000 C.3      12 GLL5        0.0000 
     53 CA         41.4090   42.8070   16.2390 C.3       8 GLP5        0.0000 
     54 CA         36.1280   44.5160   16.5125 C.3       4 GLC5        0.0000 
     55 CA         36.6720   42.5340   17.2540 C.3      12 GLL5        0.0000 
     56 CA         35.5840   46.4980   15.7710 C.3       8 GLP5        0.0000 
     57 CA         36.5230   42.3045   15.2820 C.3       4 GLC5        0.0000 
     58 CA         36.3740   42.0750   13.3100 C.3       8 GLP5        0.0000 
     59 CA         33.8590   42.7220   18.8875 C.3       4 GLC5        0.0000 
     60 CA         35.2780   42.0450   17.7380 C.3      12 GLL5        0.0000 
     61 CA         32.4400   43.3990   20.0370 C.3       8 GLP5        0.0000 
     62 CA         35.1865   41.0560   19.6215 C.3       4 GLC5        0.0000 
     63 CA         35.0950   40.0670   21.5050 C.3       8 GLP5        0.0000 
     64 N          33.3825   41.5800   16.0915 N.am      2 SEC2        0.0000 
     65 N          34.2820   42.3940   16.7830 N.am     10 SEL2        0.0000 
     66 N          32.4830   40.7660   15.4000 N.am      6 SEP2        0.0000 
     67 CA         34.3115   38.6085   17.8075 C.3       4 GLC5        0.0000 
     68 CA         35.4640   40.5130   17.7560 C.3      12 GLL5        0.0000 
     69 CA         33.1590   36.7040   17.8590 C.3       8 GLP5        0.0000 
     70 CA         33.7105   39.9690   16.6910 C.3       4 GLC5        0.0000 
     71 CA         31.9570   39.4250   15.6260 C.3       8 GLP5        0.0000 
     72 CA         35.5190   39.4815   19.2995 C.3       4 GLC5        0.0000 
     73 CA         35.5740   38.4500   20.8430 C.3       8 GLP5        0.0000 
     74 N          33.3880   40.2585   16.5560 N.am      2 SEC2        0.0000 
     75 N          34.2930   39.7510   17.7120 N.am     10 SEL2        0.0000 
     76 O          34.3050   38.4935   17.5315 O.2       1 ALC1        0.0000 
     77 O          34.2930   39.7510   17.7120 O.2       9 ALL1        0.0000 
     78 O          34.3170   37.2360   17.3510 O.2       5 ALP1        0.0000 
     79 CA         36.3570   41.2095   14.9210 C.3       4 GLC5        0.0000 
     80 CA         36.3400   40.3440   16.5320 C.3      12 GLL5        0.0000 
     81 CA         36.8160   38.5480   19.0025 C.3       4 GLC5        0.0000 
     82 CA         38.0580   38.6460   17.1620 C.3      12 GLL5        0.0000 
     83 N          41.7380   35.2630   17.0445 N.am      2 SEC2        0.0000 
     84 N          40.4200   35.7260   17.3670 N.am     10 SEL2        0.0000 
     85 N          43.0560   34.8000   16.7220 N.am      6 SEP2        0.0000 
     86 O          41.6510   36.8205   18.9670 O.2       1 ALC1        0.0000 
     87 O          40.4400   37.7300   18.6290 O.2       9 ALL1        0.0000 
     88 O          42.8620   35.9110   19.3050 O.2       5 ALP1        0.0000 
     89 CA         36.5220   40.2205   14.2620 C.3       4 GLC5        0.0000 
     90 CA         36.6700   38.3660   15.2140 C.3      12 GLL5        0.0000 
     91 CA         37.8670   38.8555   13.8215 C.3       4 GLC5        0.0000 
     92 CA         39.0640   39.3450   12.4290 C.3       8 GLP5        0.0000 
     93 NZ         36.7910   45.7045   26.3785 N.4       3 LYC4        0.0000 
     94 NZ         35.6140   46.9220   26.7620 N.4      11 LYL4        0.0000 
     95 N          37.3390   46.6440   26.7490 N.am      2 SEC2        0.0000 
     96 N          35.6140   46.9220   26.7620 N.am     10 SEL2        0.0000 
     97 N          39.0640   46.3660   26.7360 N.am      6 SEP2        0.0000 
     98 N          36.7910   45.7045   26.3785 N.am      2 SEC2        0.0000 
     99 N          34.1420   46.3855   26.9335 N.am      2 SEC2        0.0000 
    100 N          32.6700   45.8490   27.1050 N.am      6 SEP2        0.0000 
    101 NZ         32.9375   47.6850   26.2655 N.4       3 LYC4        0.0000 
    102 NZ         34.2720   48.7150   25.6440 N.4      11 LYL4        0.0000 
    103 NZ         31.6030   46.6550   26.8870 N.4       7 LYP4        0.0000 
    104 N          34.1475   50.2500   25.5795 N.am      2 SEC2        0.0000 
    105 N          34.2720   48.7150   25.6440 N.am     10 SEL2        0.0000 
    106 N          34.0230   51.7850   25.5150 N.am      6 SEP2        0.0000 
    107 CA         37.0613   47.6932   21.0538 C.3       4 GLC5        0.0000 
    108 CA         31.0060   48.4703   25.0547 C.3       4 GLC5        0.0000 
    109 CA         31.8060   47.4820   23.3190 C.3      12 GLL5        0.0000 
    110 CA         30.7690   49.0410   26.8240 C.3       8 GLP5        0.0000 
    111 CA         30.2260   46.5343   22.3498 C.3       4 GLC5        0.0000 
    112 CA         29.2090   45.1690   21.4140 C.3       8 GLP5        0.0000 
    113 CA         32.4207   47.9839   21.2611 C.3       4 GLC5        0.0000 
    114 CA         39.6000   38.8969   16.1300 C.3       4 GLC5        0.0000 
    115 CA         40.8360   40.4190   15.8700 C.3       8 GLP5        0.0000 
    116 CA         38.9175   37.5282   13.9280 C.3       4 GLC5        0.0000 
    117 CA         38.3400   36.7040   15.7590 C.3      12 GLL5        0.0000 
    118 CA         40.0100   38.1240   12.5120 C.3       8 GLP5        0.0000 
    119 CA         35.5070   36.8747   14.4093 C.3       4 GLC5        0.0000 
    120 CA         37.3100   37.1610   14.9290 C.3      12 GLL5        0.0000 
    121 CA         34.0240   35.9860   13.7470 C.3       8 GLP5        0.0000 
@<TRIPOS>BOND
@<TRIPOS>SUBSTRUCTURE
     1 ALC1       14 GROUP        1 X    ALC  0     ROOT ALC X 1
     2 SEC2        4 GROUP        1 X    SEC  0     **** SEC X 2
     3 LYC4        1 GROUP        1 X    LYC  0     **** LYC X 4
     4 GLC5       11 GROUP        1 X    GLC  0     **** GLC X 6
     5 ALP1       16 GROUP        1 Y    ALP  0     ROOT ALP Y 8
     6 SEP2        6 GROUP        1 Y    SEP  0     **** SEP Y 9
     7 LYP4        3 GROUP        1 Y    LYP  0     **** LYP Y 11
     8 GLP5       13 GROUP        1 Y    GLP  0     **** GLP Y 13
     9 ALL1       15 GROUP        1 Z    ALL  0     ROOT ALL Z 15
    10 SEL2        5 GROUP        1 Z    SEL  0     **** SEL Z 16
    11 LYL4        2 GROUP        1 Z    LYL  0     **** LYL Z 18
    12 GLL5       12 GROUP        1 Z    GLL  0     **** GLL Z 20
@<TRIPOS>SET

