#    Name: 1vl8_NAP_2_ligand
#    Modification time : Tue Mar 25 07:57:37 2014

@<TRIPOS>MOLECULE
1vl8_NAP_2_ligand
   73    77     1     0     0
SMALL
NO_CHARGES


@<TRIPOS>ATOM
      1 PA         39.1810   42.8560   22.6360 P.3       1 NAP274      0.0000 
      2 O1A        38.4890   42.4490   23.8760 O.co2     1 NAP274      0.0000 
      3 O2A        40.6560   43.0420   22.8360 O.co2     1 NAP274      0.0000 
      4 O5B        38.5720   44.2340   21.9930 O.3       1 NAP274      0.0000 
      5 C5B        37.2010   44.5200   21.8780 C.3       1 NAP274      0.0000 
      6 C4B        37.0440   46.0250   21.7680 C.3       1 NAP274      0.0000 
      7 O4B        35.6580   46.3390   21.7340 O.3       1 NAP274      0.0000 
      8 C3B        37.6650   46.8220   22.9410 C.3       1 NAP274      0.0000 
      9 O3B        38.2160   48.0860   22.5360 O.3       1 NAP274      0.0000 
     10 C2B        36.4460   47.0470   23.8190 C.3       1 NAP274      0.0000 
     11 O2B        36.5020   48.1790   24.6390 O.3       1 NAP274      0.0000 
     12 C1B        35.3690   47.2520   22.7690 C.3       1 NAP274      0.0000 
     13 N9A        33.9820   47.0180   23.1330 N.pl3     1 NAP274      0.0000 
     14 C8A        33.3340   45.8840   23.5860 C.2       1 NAP274      0.0000 
     15 N7A        32.0150   46.1850   23.7030 N.2       1 NAP274      0.0000 
     16 C5A        31.8060   47.4820   23.3190 C.ar      1 NAP274      0.0000 
     17 C6A        30.6800   48.3170   23.2520 C.ar      1 NAP274      0.0000 
     18 N6A        29.4560   47.9550   23.7080 N.pl3     1 NAP274      0.0000 
     19 N1A        30.8890   49.6090   22.8000 N.ar      1 NAP274      0.0000 
     20 C2A        32.1370   50.0830   22.4450 C.ar      1 NAP274      0.0000 
     21 N3A        33.2640   49.2670   22.5310 N.ar      1 NAP274      0.0000 
     22 C4A        33.0660   48.0020   22.9550 C.ar      1 NAP274      0.0000 
     23 O3         38.8620   41.6620   21.5450 O.3       1 NAP274      0.0000 
     24 PN         39.2920   41.5670   19.9780 P.3       1 NAP274      0.0000 
     25 O1N        39.6090   40.1300   19.7550 O.co2     1 NAP274      0.0000 
     26 O2N        40.2990   42.6330   19.6490 O.co2     1 NAP274      0.0000 
     27 O5D        37.8650   41.9910   19.2860 O.3       1 NAP274      0.0000 
     28 C5D        37.6820   43.0160   18.3000 C.3       1 NAP274      0.0000 
     29 C4D        36.6720   42.5340   17.2540 C.3       1 NAP274      0.0000 
     30 O4D        37.2980   41.4100   16.6340 O.3       1 NAP274      0.0000 
     31 C3D        35.2780   42.0450   17.7380 C.3       1 NAP274      0.0000 
     32 O3D        34.2820   42.3940   16.7830 O.3       1 NAP274      0.0000 
     33 C2D        35.4640   40.5130   17.7560 C.3       1 NAP274      0.0000 
     34 O2D        34.2930   39.7510   17.7120 O.3       1 NAP274      0.0000 
     35 C1D        36.3400   40.3440   16.5320 C.3       1 NAP274      0.0000 
     36 N1N        37.0450   39.0740   16.3100 N.pl3     1 NAP274      0.0000 
     37 C2N        38.0580   38.6460   17.1620 C.ar      1 NAP274      0.0000 
     38 C3N        38.7180   37.4450   16.8800 C.ar      1 NAP274      0.0000 
     39 C7N        39.9200   36.9720   17.6750 C.2       1 NAP274      0.0000 
     40 O7N        40.4200   35.7260   17.3670 O.2       1 NAP274      0.0000 
     41 N7N        40.4400   37.7300   18.6290 N.am      1 NAP274      0.0000 
     42 C4N        38.3400   36.7040   15.7590 C.ar      1 NAP274      0.0000 
     43 C5N        37.3100   37.1610   14.9290 C.ar      1 NAP274      0.0000 
     44 C6N        36.6700   38.3660   15.2140 C.ar      1 NAP274      0.0000 
     45 P2B        35.6520   48.2290   26.0350 P.3       1 NAP274      0.0000 
     46 O1X        36.2730   49.2540   26.9990 O.co2     1 NAP274      0.0000 
     47 O2X        35.6140   46.9220   26.7620 O.co2     1 NAP274      0.0000 
     48 O3X        34.2720   48.7150   25.6440 O.co2     1 NAP274      0.0000 
     49 H          36.6322   44.1874   22.7501 H         1 NAP274      0.0000 
     50 H          36.7559   44.0714   20.9862 H         1 NAP274      0.0000 
     51 H          37.5222   46.3629   20.8537 H         1 NAP274      0.0000 
     52 H          38.3308   46.1923   23.4527 H         1 NAP274      0.0000 
     53 H          36.2201   46.1374   24.3203 H         1 NAP274      0.0000 
     54 H          35.4834   48.2662   22.3646 H         1 NAP274      0.0000 
     55 H          33.7503   45.0494   23.7773 H         1 NAP274      0.0000 
     56 H          29.3832   47.0332   24.0888 H         1 NAP274      0.0000 
     57 H          28.7341   48.6418   23.6233 H         1 NAP274      0.0000 
     58 H          32.2427   51.0571   22.1097 H         1 NAP274      0.0000 
     59 H          38.6147   43.2500   17.7810 H         1 NAP274      0.0000 
     60 H          37.2929   43.9371   18.7406 H         1 NAP274      0.0000 
     61 H          36.5314   43.3087   16.5154 H         1 NAP274      0.0000 
     62 H          35.1208   42.3802   18.7024 H         1 NAP274      0.0000 
     63 H          36.1042   40.3046   18.6114 H         1 NAP274      0.0000 
     64 H          35.7048   40.5753   15.6494 H         1 NAP274      0.0000 
     65 H          38.3181   39.1962   17.9799 H         1 NAP274      0.0000 
     66 H          39.9877   38.6073   18.7896 H         1 NAP274      0.0000 
     67 H          41.2378   37.3563   19.1022 H         1 NAP274      0.0000 
     68 H          38.8178   35.8214   15.5415 H         1 NAP274      0.0000 
     69 H          37.0282   36.6079   14.1124 H         1 NAP274      0.0000 
     70 H          35.9238   38.7009   14.5906 H         1 NAP274      0.0000 
     71 H          38.6626   48.4477   23.3544 H         1 NAP274      0.0000 
     72 H          34.7905   42.6526   15.9617 H         1 NAP274      0.0000 
     73 H          34.5532   38.9034   17.2496 H         1 NAP274      0.0000 
@<TRIPOS>BOND
     1    2    1 ar   
     2    3    1 ar   
     3    4    1 1    
     4   23    1 1    
     5    5    4 1    
     6    6    5 1    
     7   49    5 1    
     8   50    5 1    
     9    7    6 1    
    10    8    6 1    
    11   51    6 1    
    12   12    7 1    
    13    9    8 1    
    14   10    8 1    
    15   52    8 1    
    16   71    9 1    
    17   11   10 1    
    18   12   10 1    
    19   53   10 1    
    20   45   11 1    
    21   13   12 1    
    22   54   12 1    
    23   14   13 1    
    24   22   13 1    
    25   15   14 2    
    26   55   14 1    
    27   16   15 1    
    28   17   16 ar   
    29   22   16 ar   
    30   18   17 1    
    31   19   17 ar   
    32   56   18 1    
    33   57   18 1    
    34   20   19 ar   
    35   21   20 ar   
    36   58   20 1    
    37   22   21 ar   
    38   24   23 1    
    39   25   24 ar   
    40   26   24 ar   
    41   27   24 1    
    42   28   27 1    
    43   29   28 1    
    44   59   28 1    
    45   60   28 1    
    46   30   29 1    
    47   31   29 1    
    48   61   29 1    
    49   35   30 1    
    50   32   31 1    
    51   33   31 1    
    52   62   31 1    
    53   72   32 1    
    54   34   33 1    
    55   35   33 1    
    56   63   33 1    
    57   73   34 1    
    58   36   35 1    
    59   64   35 1    
    60   37   36 ar   
    61   44   36 ar   
    62   38   37 ar   
    63   65   37 1    
    64   39   38 1    
    65   42   38 ar   
    66   40   39 2    
    67   41   39 am   
    68   66   41 1    
    69   67   41 1    
    70   43   42 ar   
    71   68   42 1    
    72   44   43 ar   
    73   69   43 1    
    74   70   44 1    
    75   46   45 ar   
    76   47   45 ar   
    77   48   45 ar   
@<TRIPOS>SUBSTRUCTURE
     1 NAP274      1 GROUP   
@<TRIPOS>SET

