#    Name: 2hai_PFI_1_INTS_M
#    Modification time : Tue Mar 25 15:47:25 2014

@<TRIPOS>MOLECULE
2hai_PFI_1_INTS_M
   68     0     6     0     0
SMALL
NO_CHARGES


@<TRIPOS>ATOM
      1 CA         37.6540   12.2470   60.5395 C.3       2 GLC5        0.0000 
      2 CA         39.1110   11.5860   60.6420 C.3       6 GLL5        0.0000 
      3 CA         36.1970   12.9080   60.4370 C.3       4 GLP5        0.0000 
      4 CA         37.9810   11.5835   62.4755 C.3       2 GLC5        0.0000 
      5 CA         36.8510   11.5810   64.3090 C.3       4 GLP5        0.0000 
      6 CA         39.8685   13.8355   63.6615 C.3       2 GLC5        0.0000 
      7 CA         41.2620   12.2940   63.4310 C.3       6 GLL5        0.0000 
      8 CA         38.4750   15.3770   63.8920 C.3       4 GLP5        0.0000 
      9 CA         44.4000   13.8340   59.4360 C.3       2 GLC5        0.0000 
     10 CA         42.7740   12.5580   58.8210 C.3       6 GLL5        0.0000 
     11 CA         46.0260   15.1100   60.0510 C.3       4 GLP5        0.0000 
     12 CA         42.1745   16.0005   56.7735 C.3       2 GLC5        0.0000 
     13 CA         41.5920   13.9510   57.0900 C.3       6 GLL5        0.0000 
     14 CA         42.7570   18.0500   56.4570 C.3       4 GLP5        0.0000 
     15 CA         40.8680   11.2340   56.3380 C.3       2 GLC5        0.0000 
     16 CA         41.1920   13.1240   55.8090 C.3       6 GLL5        0.0000 
     17 CA         40.5440    9.3440   56.8670 C.3       4 GLP5        0.0000 
     18 CA         43.2305   16.3495   53.2890 C.3       2 GLC5        0.0000 
     19 CA         42.1770   14.8980   54.1930 C.3       6 GLL5        0.0000 
     20 CA         44.2840   17.8010   52.3850 C.3       4 GLP5        0.0000 
     21 CA         41.9400   16.6545   54.8940 C.3       2 GLC5        0.0000 
     22 CA         41.7030   18.4110   55.5950 C.3       4 GLP5        0.0000 
     23 CA         38.3625   12.3115   55.6965 C.3       2 GLC5        0.0000 
     24 CA         38.4350   14.3430   55.1080 C.3       6 GLL5        0.0000 
     25 CA         38.2900   10.2800   56.2850 C.3       4 GLP5        0.0000 
     26 CA         37.4180   13.5615   53.6985 C.3       2 GLC5        0.0000 
     27 CA         36.4010   12.7800   52.2890 C.3       4 GLP5        0.0000 
     28 CA         38.4250   15.3570   51.7120 C.3       2 GLC5        0.0000 
     29 CA         39.4140   15.6830   53.3670 C.3       6 GLL5        0.0000 
     30 CA         37.4360   15.0310   50.0570 C.3       4 GLP5        0.0000 
     31 CA         37.1505   15.7075   52.3295 C.3       2 GLC5        0.0000 
     32 CA         38.1600   16.4720   53.8180 C.3       6 GLL5        0.0000 
     33 CA         36.1410   14.9430   50.8410 C.3       4 GLP5        0.0000 
     34 CA         36.6310   14.7100   53.2945 C.3       2 GLC5        0.0000 
     35 CA         37.4910   15.4880   54.7950 C.3       6 GLL5        0.0000 
     36 CA         35.7710   13.9320   51.7940 C.3       4 GLP5        0.0000 
     37 N          40.9550    9.7975   52.9605 N.am      1 SEC2        0.0000 
     38 N          41.5120   11.2790   52.3380 N.am      5 SEL2        0.0000 
     39 N          40.3980    8.3160   53.5830 N.am      3 SEP2        0.0000 
     40 N          45.3070   15.7265   53.9210 N.am      1 SEC2        0.0000 
     41 N          44.6150   14.5000   53.9750 N.am      5 SEL2        0.0000 
     42 N          45.9990   16.9530   53.8670 N.am      3 SEP2        0.0000 
     43 CA         39.1620   10.3063   59.3795 C.3       2 GLC5        0.0000 
     44 CA         40.2650   11.9050   60.0460 C.3       6 GLL5        0.0000 
     45 CA         38.6360    8.8670   58.4150 C.3       4 GLP5        0.0000 
     46 CA         38.4253   12.2763   59.1498 C.3       2 GLC5        0.0000 
     47 CA         36.5520   12.2380   58.8130 C.3       4 GLP5        0.0000 
     48 CA         43.4060   12.6505   61.4130 C.3       2 GLC5        0.0000 
     49 CA         41.4800   11.3840   60.5740 C.3       6 GLL5        0.0000 
     50 CA         44.7170   13.7470   62.5650 C.3       4 GLP5        0.0000 
     51 CA         41.3195   10.4490   58.5640 C.3       2 GLC5        0.0000 
     52 CA         42.7100   11.7240   59.9480 C.3       6 GLL5        0.0000 
     53 CA         43.1815   12.7103   62.8650 C.3       2 GLC5        0.0000 
     54 CA         42.0300   11.0530   62.8990 C.3       6 GLL5        0.0000 
     55 CA         42.0387   11.4964   65.2627 C.3       2 GLC5        0.0000 
     56 CA         42.0010    9.9160   63.9060 C.3       6 GLL5        0.0000 
     57 CA         42.2540   12.1980   66.9900 C.3       4 GLP5        0.0000 
     58 CA         39.4045   14.0404   59.8548 C.3       2 GLC5        0.0000 
     59 CA         40.3320   12.7240   58.9270 C.3       6 GLL5        0.0000 
     60 CA         38.7990   15.8460   60.0740 C.3       4 GLP5        0.0000 
     61 CA         40.8965   11.0550   57.8049 C.3       2 GLC5        0.0000 
     62 CA         41.5590   14.8518   58.8296 C.3       2 GLC5        0.0000 
     63 CA         41.2390   16.3240   59.8350 C.3       4 GLP5        0.0000 
     64 CA         36.5825   14.6122   56.2403 C.3       2 GLC5        0.0000 
     65 CA         35.2020   14.3090   57.5290 C.3       4 GLP5        0.0000 
     66 CA         36.4047   17.2445   54.4058 C.3       2 GLC5        0.0000 
     67 CA         34.9840   18.5090   54.5050 C.3       4 GLP5        0.0000 
     68 CA         40.2926   17.1531   54.7585 C.3       2 GLC5        0.0000 
@<TRIPOS>BOND
@<TRIPOS>SUBSTRUCTURE
     1 SEC2       37 GROUP        1 X    SEC  0     ROOT SEC X 2
     2 GLC5        1 GROUP        1 X    GLC  0     **** GLC X 6
     3 SEP2       39 GROUP        1 Y    SEP  0     ROOT SEP Y 9
     4 GLP5        3 GROUP        1 Y    GLP  0     **** GLP Y 13
     5 SEL2       38 GROUP        1 Z    SEL  0     ROOT SEL Z 16
     6 GLL5        2 GROUP        1 Z    GLL  0     **** GLL Z 20
@<TRIPOS>SET

