#    Name: 2hai_PFI_1_ligand
#    Modification time : Tue Mar 25 15:47:25 2014

@<TRIPOS>MOLECULE
2hai_PFI_1_ligand
   52    54     1     0     0
SMALL
NO_CHARGES


@<TRIPOS>ATOM
      1 F26        39.1110   11.5860   60.6420 F         1 PFI601      0.0000 
      2 C23        40.2650   11.9050   60.0460 C.ar      1 PFI601      0.0000 
      3 C22        41.4800   11.3840   60.5740 C.ar      1 PFI601      0.0000 
      4 O24        41.4390   10.5910   61.6780 O.3       1 PFI601      0.0000 
      5 C25        42.0300   11.0530   62.8990 C.3       1 PFI601      0.0000 
      6 C2         41.2620   12.2940   63.4310 C.3       1 PFI601      0.0000 
      7 C1         42.0010    9.9160   63.9060 C.3       1 PFI601      0.0000 
      8 C21        42.7100   11.7240   59.9480 C.ar      1 PFI601      0.0000 
      9 C20        42.7740   12.5580   58.8210 C.ar      1 PFI601      0.0000 
     10 C19        41.5580   13.0580   58.2960 C.ar      1 PFI601      0.0000 
     11 C18        40.3320   12.7240   58.9270 C.ar      1 PFI601      0.0000 
     12 C12        41.5920   13.9510   57.0900 C.3       1 PFI601      0.0000 
     13 C11        41.1920   13.1240   55.8090 C.3       1 PFI601      0.0000 
     14 C5         40.9750   13.9630   54.5430 C.3       1 PFI601      0.0000 
     15 C6         42.1770   14.8980   54.1930 C.3       1 PFI601      0.0000 
     16 C17        39.7950   14.9540   54.6850 C.3       1 PFI601      0.0000 
     17 C13        38.4350   14.3430   55.1080 C.3       1 PFI601      0.0000 
     18 C16        39.4140   15.6830   53.3670 C.3       1 PFI601      0.0000 
     19 C15        38.1600   16.4720   53.8180 C.3       1 PFI601      0.0000 
     20 C14        37.4910   15.4880   54.7950 C.3       1 PFI601      0.0000 
     21 O4         40.6560   13.1010   53.3910 O.3       1 PFI601      0.0000 
     22 C3         41.6990   12.3680   52.8820 C.2       1 PFI601      0.0000 
     23 O10        41.5120   11.2790   52.3380 O.2       1 PFI601      0.0000 
     24 C8         43.0780   12.9270   53.0080 C.2       1 PFI601      0.0000 
     25 C7         43.3370   14.0930   53.7090 C.2       1 PFI601      0.0000 
     26 O9         44.6150   14.5000   53.9750 O.co2     1 PFI601      0.0000 
     27 H          43.0585   11.3434   62.7426 H         1 PFI601      0.0000 
     28 H          43.5882   11.3379   60.3442 H         1 PFI601      0.0000 
     29 H          43.6549   12.7968   58.3947 H         1 PFI601      0.0000 
     30 H          39.4534   13.1156   58.5247 H         1 PFI601      0.0000 
     31 H          42.5868   14.3447   56.9315 H         1 PFI601      0.0000 
     32 H          40.8848   14.7627   57.1931 H         1 PFI601      0.0000 
     33 H          40.2719   12.5672   56.0418 H         1 PFI601      0.0000 
     34 H          41.9845   12.3828   55.6261 H         1 PFI601      0.0000 
     35 H          42.4414   15.4525   55.0899 H         1 PFI601      0.0000 
     36 H          41.8464   15.5950   53.4269 H         1 PFI601      0.0000 
     37 H          40.0309   15.7308   55.4058 H         1 PFI601      0.0000 
     38 H          38.4497   14.1488   56.1387 H         1 PFI601      0.0000 
     39 H          38.2245   13.5150   54.4993 H         1 PFI601      0.0000 
     40 H          39.1475   14.9797   52.6423 H         1 PFI601      0.0000 
     41 H          40.1743   16.3485   53.1026 H         1 PFI601      0.0000 
     42 H          37.5330   16.6373   52.9915 H         1 PFI601      0.0000 
     43 H          38.4565   17.3394   54.3310 H         1 PFI601      0.0000 
     44 H          37.2391   16.0171   55.7087 H         1 PFI601      0.0000 
     45 H          36.5842   15.1028   54.3394 H         1 PFI601      0.0000 
     46 H          43.8268   12.3968   52.5442 H         1 PFI601      0.0000 
     47 H          41.6573   12.6385   64.2825 H         1 PFI601      0.0000 
     48 H          41.2759   13.0487   62.7750 H         1 PFI601      0.0000 
     49 H          40.3020   12.0850   63.6171 H         1 PFI601      0.0000 
     50 H          42.5104    9.1191   63.5812 H         1 PFI601      0.0000 
     51 H          42.4037   10.1845   64.7811 H         1 PFI601      0.0000 
     52 H          41.0676    9.6104   64.0943 H         1 PFI601      0.0000 
@<TRIPOS>BOND
     1    2    1 1    
     2    3    2 ar   
     3   11    2 ar   
     4    4    3 1    
     5    8    3 ar   
     6    5    4 1    
     7    6    5 1    
     8    7    5 1    
     9   27    5 1    
    10   47    6 1    
    11   48    6 1    
    12   49    6 1    
    13   50    7 1    
    14   51    7 1    
    15   52    7 1    
    16    9    8 ar   
    17   28    8 1    
    18   10    9 ar   
    19   29    9 1    
    20   11   10 ar   
    21   12   10 1    
    22   30   11 1    
    23   13   12 1    
    24   31   12 1    
    25   32   12 1    
    26   14   13 1    
    27   33   13 1    
    28   34   13 1    
    29   15   14 1    
    30   16   14 1    
    31   21   14 1    
    32   25   15 1    
    33   35   15 1    
    34   36   15 1    
    35   17   16 1    
    36   18   16 1    
    37   37   16 1    
    38   20   17 1    
    39   38   17 1    
    40   39   17 1    
    41   19   18 1    
    42   40   18 1    
    43   41   18 1    
    44   20   19 1    
    45   42   19 1    
    46   43   19 1    
    47   44   20 1    
    48   45   20 1    
    49   22   21 1    
    50   23   22 2    
    51   24   22 1    
    52   25   24 2    
    53   46   24 1    
    54   26   25 ar   
@<TRIPOS>SUBSTRUCTURE
     1 PFI601      1 GROUP   
@<TRIPOS>SET

