#    Name: 1zpd_DPX_1_INTS_M
#    Modification time : Mon Mar 24 17:44:43 2014

@<TRIPOS>MOLECULE
1zpd_DPX_1_INTS_M
   82     0    15     0     0
SMALL
NO_CHARGES


@<TRIPOS>ATOM
      1 Zn        -15.2800   15.3865   29.8415 Zn        4 ZIC7        0.0000 
      2 Zn        -14.5760   15.1210   29.0430 Zn       14 ZIL7        0.0000 
      3 Zn        -15.9840   15.6520   30.6400 Zn        9 ZIP7        0.0000 
      4 N         -13.3625   14.8755   29.6425 N.am      2 SEC2        0.0000 
      5 N         -14.5760   15.1210   29.0430 N.am     12 SEL2        0.0000 
      6 N         -12.1490   14.6300   30.2420 N.am      7 SEP2        0.0000 
      7 N         -19.2310   14.9520   26.3865 N.am      2 SEC2        0.0000 
      8 N         -18.1120   15.6710   26.5700 N.am     12 SEL2        0.0000 
      9 N         -20.3500   14.2330   26.2030 N.am      7 SEP2        0.0000 
     10 N         -18.2640   18.4680   26.1925 N.am      2 SEC2        0.0000 
     11 N         -17.9660   17.9050   27.4180 N.am     12 SEL2        0.0000 
     12 N         -18.5620   19.0310   24.9670 N.am      7 SEP2        0.0000 
     13 Zn        -16.7575   15.8085   29.7960 Zn        4 ZIC7        0.0000 
     14 Zn        -17.5310   15.9650   28.9520 Zn       14 ZIL7        0.0000 
     15 N         -18.2515   16.6740   30.0405 N.am      2 SEC2        0.0000 
     16 N         -17.5310   15.9650   28.9520 N.am     12 SEL2        0.0000 
     17 N         -18.9720   17.3830   31.1290 N.am      7 SEP2        0.0000 
     18 N         -18.3550   14.7285   28.8365 N.am      2 SEC2        0.0000 
     19 N         -19.1790   13.4920   28.7210 N.am      7 SEP2        0.0000 
     20 N         -12.1575   15.3460   27.3700 N.am      2 SEC2        0.0000 
     21 N         -13.4090   15.9850   27.1020 N.am     12 SEL2        0.0000 
     22 N         -10.9060   14.7070   27.6380 N.am      7 SEP2        0.0000 
     23 N         -12.5335   15.9900   26.1240 N.am      2 SEC2        0.0000 
     24 N         -11.6580   15.9950   25.1460 N.am      7 SEP2        0.0000 
     25 CA        -14.6325   12.4030   26.8315 C.3       5 GLC5        0.0000 
     26 CA        -14.8980   13.9260   25.4960 C.3      15 GLL5        0.0000 
     27 CA        -14.3670   10.8800   28.1670 C.3      10 GLP5        0.0000 
     28 CA        -16.2420   11.6580   26.4940 C.3       5 GLC5        0.0000 
     29 CA        -15.6020   12.6170   25.1860 C.3      15 GLL5        0.0000 
     30 CA        -16.8820   10.6990   27.8020 C.3      10 GLP5        0.0000 
     31 CA        -14.7660    9.3350   25.8495 C.3       5 GLC5        0.0000 
     32 CA        -14.2560    9.8950   24.1620 C.3      15 GLL5        0.0000 
     33 CA        -15.2760    8.7750   27.5370 C.3      10 GLP5        0.0000 
     34 OD1       -15.9590    9.6405   22.0550 O.co2     3 ASC3        0.0000 
     35 OD1       -14.7450   10.8690   21.9220 O.co2    13 ASL3        0.0000 
     36 OD1       -17.1730    8.4120   22.1880 O.co2     8 ASP3        0.0000 
     37 N         -18.5465   12.1170   25.1850 N.am      2 SEC2        0.0000 
     38 N         -16.8920   12.5010   25.5390 N.am     12 SEL2        0.0000 
     39 N         -20.2010   11.7330   24.8310 N.am      7 SEP2        0.0000 
     40 CA        -15.3950   14.5895   21.3225 C.3       5 GLC5        0.0000 
     41 CA        -15.9740   13.2280   22.4910 C.3      15 GLL5        0.0000 
     42 CA        -14.8160   15.9510   20.1540 C.3      10 GLP5        0.0000 
     43 CA        -14.2060   13.5865   22.4695 C.3       5 GLC5        0.0000 
     44 CA        -12.4380   13.9450   22.4480 C.3      10 GLP5        0.0000 
     45 CA        -17.2170   13.7165   23.1805 C.3       5 GLC5        0.0000 
     46 CA        -18.4600   14.2050   23.8700 C.3      10 GLP5        0.0000 
     47 CA        -11.2245   10.1760   18.3800 C.3       5 GLC5        0.0000 
     48 CA        -12.1100   10.7840   20.0930 C.3      15 GLL5        0.0000 
     49 CA        -10.3390    9.5680   16.6670 C.3      10 GLP5        0.0000 
     50 N         -10.3730   12.3500   20.2160 N.am      2 SEC2        0.0000 
     51 N         -10.7780   10.8510   19.8710 N.am     12 SEL2        0.0000 
     52 N          -9.9680   13.8490   20.5610 N.am      7 SEP2        0.0000 
     53 CA         -9.5925   11.8940   19.3240 C.3       5 GLC5        0.0000 
     54 CA         -9.9670    9.9820   20.4380 C.3      15 GLL5        0.0000 
     55 CA         -9.2180   13.8060   18.2100 C.3      10 GLP5        0.0000 
     56 CA        -11.0275    7.4325   22.9885 C.3       5 GLC5        0.0000 
     57 CA        -11.7530    8.8300   21.4480 C.3      15 GLL5        0.0000 
     58 CA        -10.3020    6.0350   24.5290 C.3      10 GLP5        0.0000 
     59 O         -12.4510   12.6660   18.6690 O.2       1 ALC1        0.0000 
     60 O         -12.9400   11.6910   19.5440 O.2      11 ALL1        0.0000 
     61 O         -11.9620   13.6410   17.7940 O.2       6 ALP1        0.0000 
     62 CA         -7.2975   10.9110   19.1680 C.3       5 GLC5        0.0000 
     63 CA         -8.5180   10.0460   20.2250 C.3      15 GLL5        0.0000 
     64 CA         -6.0770   11.7760   18.1110 C.3      10 GLP5        0.0000 
     65 CA         -7.7405   10.3575   21.9820 C.3       5 GLC5        0.0000 
     66 CA         -6.9630   10.6690   23.7390 C.3      10 GLP5        0.0000 
     67 CA        -12.9035   11.0980   24.0467 C.3       5 GLC5        0.0000 
     68 CA        -14.8140   10.9910   23.2650 C.3      15 GLL5        0.0000 
     69 CA        -11.2720   11.7530   24.3800 C.3      10 GLP5        0.0000 
     70 CA        -13.8169   13.5510   23.7139 C.3       5 GLC5        0.0000 
     71 CA        -15.3850   12.1590   23.7410 C.3      15 GLL5        0.0000 
     72 CA        -16.8279   13.6810   24.4249 C.3       5 GLC5        0.0000 
     73 CA        -14.4440    8.0005   20.8965 C.3       5 GLC5        0.0000 
     74 CA        -14.1360    9.6190   21.2150 C.3      15 GLL5        0.0000 
     75 CA        -15.4890    6.3320   20.7100 C.3      10 GLP5        0.0000 
     76 CA        -12.0943    7.9252   19.6597 C.3       5 GLC5        0.0000 
     77 CA        -12.6620    9.7190   20.9510 C.3      15 GLL5        0.0000 
     78 CA        -11.9810    6.5760   18.1200 C.3      10 GLP5        0.0000 
     79 CA         -9.9273   11.1610   21.7227 C.3       5 GLC5        0.0000 
     80 CA        -10.6120   12.3080   23.1140 C.3      10 GLP5        0.0000 
     81 CA         -9.7907    9.7910   18.4993 C.3       5 GLC5        0.0000 
     82 CA        -11.3407   10.9244   22.0495 C.3       5 GLC5        0.0000 
@<TRIPOS>BOND
@<TRIPOS>SUBSTRUCTURE
     1 ALC1       59 GROUP        1 X    ALC  0     ROOT ALC X 1
     2 SEC2        4 GROUP        1 X    SEC  0     **** SEC X 2
     3 ASC3       34 GROUP        1 X    ASC  0     **** ASC X 3
     4 ZIC7        1 GROUP        1 X    ZIC  0     **** ZIC X 5
     5 GLC5       25 GROUP        1 X    GLC  0     **** GLC X 6
     6 ALP1       61 GROUP        1 Y    ALP  0     ROOT ALP Y 8
     7 SEP2        6 GROUP        1 Y    SEP  0     **** SEP Y 9
     8 ASP3       36 GROUP        1 Y    ASP  0     **** ASP Y 10
     9 ZIP7        3 GROUP        1 Y    ZIP  0     **** ZIP Y 12
    10 GLP5       27 GROUP        1 Y    GLP  0     **** GLP Y 13
    11 ALL1       60 GROUP        1 Z    ALL  0     ROOT ALL Z 15
    12 SEL2        5 GROUP        1 Z    SEL  0     **** SEL Z 16
    13 ASL3       35 GROUP        1 Z    ASL  0     **** ASL Z 17
    14 ZIL7        2 GROUP        1 Z    ZIL  0     **** ZIL Z 19
    15 GLL5       26 GROUP        1 Z    GLL  0     **** GLL Z 20
@<TRIPOS>SET

