#    Name: 1zpd_DPX_1_ligand
#    Modification time : Mon Mar 24 17:44:43 2014

@<TRIPOS>MOLECULE
1zpd_DPX_1_ligand
   41    41     1     0     0
SMALL
NO_CHARGES


@<TRIPOS>ATOM
      1 C4        -14.8140   10.9910   23.2650 C.2       1 DPX600      0.0000 
      2 C5        -15.3850   12.1590   23.7410 C.2       1 DPX600      0.0000 
      3 O21       -14.5760   15.1210   29.0430 O.co2     1 DPX600      0.0000 
      4 O22       -15.9560   16.3730   27.2510 O.3       1 DPX600      0.0000 
      5 O26       -18.1120   15.6710   26.5700 O.co2     1 DPX600      0.0000 
      6 O25       -17.9660   17.9050   27.4180 O.co2     1 DPX600      0.0000 
      7 O24       -17.5310   15.9650   28.9520 O.co2     1 DPX600      0.0000 
      8 P23       -17.4710   16.5530   27.5840 P.3       1 DPX600      0.0000 
      9 P19       -14.6620   15.5070   27.6310 P.3       1 DPX600      0.0000 
     10 O20       -13.4090   15.9850   27.1020 O.co2     1 DPX600      0.0000 
     11 O18       -14.9230   14.0340   26.9420 O.3       1 DPX600      0.0000 
     12 C17       -14.8980   13.9260   25.4960 C.3       1 DPX600      0.0000 
     13 C16       -15.6020   12.6170   25.1860 C.3       1 DPX600      0.0000 
     14 C15       -14.2560    9.8950   24.1620 C.3       1 DPX600      0.0000 
     15 N3        -14.7450   10.8690   21.9220 N.4       1 DPX600      0.0000 
     16 O27       -16.8920   12.5010   25.5390 O.3       1 DPX600      0.0000 
     17 S1        -15.9740   13.2280   22.4910 S.3       1 DPX600      0.0000 
     18 C6        -14.1360    9.6190   21.2150 C.3       1 DPX600      0.0000 
     19 C7        -12.6620    9.7190   20.9510 C.ar      1 DPX600      0.0000 
     20 C8        -12.1100   10.7840   20.0930 C.ar      1 DPX600      0.0000 
     21 N9        -10.7780   10.8510   19.8710 N.ar      1 DPX600      0.0000 
     22 C10        -9.9670    9.9820   20.4380 C.ar      1 DPX600      0.0000 
     23 N11       -10.4430    8.8570   21.0880 N.ar      1 DPX600      0.0000 
     24 C12       -11.7530    8.8300   21.4480 C.ar      1 DPX600      0.0000 
     25 N13       -12.9400   11.6910   19.5440 N.pl3     1 DPX600      0.0000 
     26 C14        -8.5180   10.0460   20.2250 C.3       1 DPX600      0.0000 
     27 H         -13.8913   13.8745   25.1211 H         1 DPX600      0.0000 
     28 H         -15.4408   14.7293   25.0305 H         1 DPX600      0.0000 
     29 H         -14.9872   11.8222   25.7871 H         1 DPX600      0.0000 
     30 H         -14.6805    9.4711   20.2671 H         1 DPX600      0.0000 
     31 H         -14.3480    8.7398   21.8465 H         1 DPX600      0.0000 
     32 H         -12.0804    8.1003   22.1327 H         1 DPX600      0.0000 
     33 H         -12.5155   12.3705   18.9456 H         1 DPX600      0.0000 
     34 H         -13.9070   11.6043   19.7836 H         1 DPX600      0.0000 
     35 H         -13.8894    9.1311   23.6309 H         1 DPX600      0.0000 
     36 H         -13.5141   10.2315   24.7419 H         1 DPX600      0.0000 
     37 H         -14.9561    9.5202   24.7698 H         1 DPX600      0.0000 
     38 H          -8.1354   10.9171   20.5331 H         1 DPX600      0.0000 
     39 H          -8.0374    9.3229   20.7212 H         1 DPX600      0.0000 
     40 H          -8.2799    9.9467   19.2589 H         1 DPX600      0.0000 
     41 H         -17.1562   13.4117   25.8566 H         1 DPX600      0.0000 
@<TRIPOS>BOND
     1    2    1 2    
     2   14    1 1    
     3   15    1 1    
     4   13    2 1    
     5   17    2 1    
     6    9    3 ar   
     7    8    4 1    
     8    9    4 1    
     9    8    5 ar   
    10    8    6 ar   
    11    8    7 ar   
    12   10    9 ar   
    13   11    9 1    
    14   12   11 1    
    15   13   12 1    
    16   27   12 1    
    17   28   12 1    
    18   16   13 1    
    19   29   13 1    
    20   35   14 1    
    21   36   14 1    
    22   37   14 1    
    23   18   15 1    
    24   41   16 1    
    25   19   18 1    
    26   30   18 1    
    27   31   18 1    
    28   20   19 ar   
    29   24   19 ar   
    30   21   20 ar   
    31   25   20 1    
    32   22   21 ar   
    33   23   22 ar   
    34   26   22 1    
    35   24   23 ar   
    36   32   24 1    
    37   33   25 1    
    38   34   25 1    
    39   38   26 1    
    40   39   26 1    
    41   40   26 1    
@<TRIPOS>SUBSTRUCTURE
     1 DPX600      1 GROUP   
@<TRIPOS>SET

