#    Name: 2AIA_1_CAVITY_N1_ALL.mol2
#    Modification time : Tue Mar 11 01:55:25 2014

@<TRIPOS>MOLECULE
2AIA_1_CAVITY_N1_ALL.mol2
   75     0     6     0     0
SMALL
NO_CHARGES


@<TRIPOS>ATOM
      1 O         -11.6412   25.1411   -1.8953 O.2       2 ALA2        0.0000 
      2 N         -11.0482   24.2448   -2.9418 N.2       2 ALA2        0.0000 
      3 NZ        -10.1525   22.3219   -2.9375 N.2       3 LYS4        0.0000 
      4 CA        -11.1801   26.5335    1.4735 C.3       5 GLY6        0.0000 
      5 CA        -10.8899   26.6639   -0.6239 C.3       5 GLY6        0.0000 
      6 CA        -10.5871   25.6372    0.4269 C.3       5 GLY6        0.0000 
      7 O         -10.2970   25.7677   -1.6704 O.2       2 ALA2        0.0000 
      8 O          -9.9942   24.7410   -0.6196 O.2       2 ALA2        0.0000 
      9 N          -9.7041   24.8714   -2.7169 N.2       2 ALA2        0.0000 
     10 DU         -9.4013   23.8447   -1.6661 H         6 CUB7        0.0000 
     11 N          -8.8084   22.9485   -2.7126 N.2       2 ALA2        0.0000 
     12 DU         -8.5056   21.9218   -1.6617 H         6 CUB7        0.0000 
     13 CA         -8.2154   22.0522   -3.7591 C.3       5 GLY6        0.0000 
     14 CZ         -7.9127   21.0255   -2.7083 C.ar      4 PHE5        0.0000 
     15 CA         -9.8359   27.1601    1.6984 C.3       5 GLY6        0.0000 
     16 O          -9.5331   26.1334    2.7492 O.2       2 ALA2        0.0000 
     17 CA         -9.2430   26.2639    0.6519 C.3       5 GLY6        0.0000 
     18 DU         -8.9402   25.2372    1.7027 H         6 CUB7        0.0000 
     19 O          -8.6501   25.3676   -0.3946 O.2       2 ALA2        0.0000 
     20 DU         -8.3473   24.3409    0.6562 H         6 CUB7        0.0000 
     21 O          -8.3599   25.4980   -2.4920 O.2       2 ALA2        0.0000 
     22 O          -8.0571   24.4714   -1.4411 O.2       2 ALA2        0.0000 
     23 DU         -7.7544   23.4447   -0.3903 H         6 CUB7        0.0000 
     24 N          -7.7670   24.6018   -3.5385 N.2       2 ALA2        0.0000 
     25 CA         -7.4642   23.5751   -2.4876 C.3       5 GLY6        0.0000 
     26 OG         -7.1614   22.5484   -1.4368 O.2       1 SER1        0.0000 
     27 CA         -6.8713   22.6789   -3.5342 C.3       5 GLY6        0.0000 
     28 OG         -6.5685   21.6522   -2.4833 O.2       1 SER1        0.0000 
     29 O          -8.7819   27.6563    4.0206 O.2       2 ALA2        0.0000 
     30 O          -8.4917   27.7867    1.9233 O.2       2 ALA2        0.0000 
     31 N          -8.1890   26.7600    2.9741 N.2       2 ALA2        0.0000 
     32 N          -7.8988   26.8905    0.8768 N.2       2 ALA2        0.0000 
     33 N          -7.5960   25.8638    1.9276 N.2       2 ALA2        0.0000 
     34 N          -7.2933   24.8371    2.9785 N.2       2 ALA2        0.0000 
     35 N          -7.3059   25.9942   -0.1697 N.2       2 ALA2        0.0000 
     36 DU         -7.0031   24.9675    0.8811 H         6 CUB7        0.0000 
     37 N          -6.7003   23.9408    1.9319 N.2       2 ALA2        0.0000 
     38 N          -6.3976   22.9141    2.9828 N.2       2 ALA2        0.0000 
     39 O          -7.0157   26.1247   -2.2670 O.2       2 ALA2        0.0000 
     40 N          -6.7130   25.0980   -1.2162 N.2       2 ALA2        0.0000 
     41 CA         -6.4102   24.0713   -0.1654 C.3       5 GLY6        0.0000 
     42 CA         -6.1074   23.0446    0.8854 C.3       5 GLY6        0.0000 
     43 CA         -6.4228   25.2284   -3.3135 C.3       5 GLY6        0.0000 
     44 OG         -6.1200   24.2017   -2.2627 O.2       1 SER1        0.0000 
     45 OG         -5.8173   23.1750   -1.2119 O.2       1 SER1        0.0000 
     46 CZ         -5.5271   23.3055   -3.3092 C.ar      4 PHE5        0.0000 
     47 CA         -7.1476   28.4133    2.1482 C.3       5 GLY6        0.0000 
     48 CA         -6.8448   27.3866    3.1991 C.3       5 GLY6        0.0000 
     49 N          -6.2519   26.4904    2.1526 N.2       2 ALA2        0.0000 
     50 N          -5.9491   25.4637    3.2034 N.2       2 ALA2        0.0000 
     51 N          -5.9617   26.6208    0.0552 N.2       2 ALA2        0.0000 
     52 CA         -5.6590   25.5941    1.1060 C.3       5 GLY6        0.0000 
     53 O          -5.3562   24.5674    2.1569 O.2       2 ALA2        0.0000 
     54 N          -5.6716   26.7513   -2.0421 N.2       2 ALA2        0.0000 
     55 N          -5.3688   25.7246   -0.9913 N.2       2 ALA2        0.0000 
     56 CA         -5.0660   24.6979    0.0595 C.3       5 GLY6        0.0000 
     57 NZ         -5.0787   25.8550   -3.0886 N.2       3 LYS4        0.0000 
     58 CA         -4.7759   24.8283   -2.0378 C.3       5 GLY6        0.0000 
     59 CA         -4.4857   24.9588   -4.1351 C.3       5 GLY6        0.0000 
     60 CA         -4.1830   23.9321   -3.0843 C.3       5 GLY6        0.0000 
     61 CA         -5.5006   28.0132    3.4240 C.3       5 GLY6        0.0000 
     62 N          -5.2105   28.1437    1.3267 N.2       2 ALA2        0.0000 
     63 CA         -4.9077   27.1170    2.3775 C.3       5 GLY6        0.0000 
     64 CA         -4.6050   26.0903    3.4283 C.3       5 GLY6        0.0000 
     65 N          -4.6176   27.2474    0.2801 N.2       2 ALA2        0.0000 
     66 CA         -4.3148   26.2207    1.3310 C.3       5 GLY6        0.0000 
     67 O          -4.3274   27.3779   -1.8172 O.2       2 ALA2        0.0000 
     68 CA         -4.0246   26.3512   -0.7664 C.3       5 GLY6        0.0000 
     69 O          -3.7345   26.4816   -2.8637 O.2       2 ALA2        0.0000 
     70 CA         -3.4317   25.4549   -1.8129 C.3       5 GLY6        0.0000 
     71 N          -3.8663   28.7703    1.5516 N.2       2 ALA2        0.0000 
     72 N          -3.5636   27.7436    2.6024 N.2       2 ALA2        0.0000 
     73 NZ         -3.2734   27.8740    0.5051 N.2       3 LYS4        0.0000 
     74 N          -2.9706   26.8474    1.5559 N.2       2 ALA2        0.0000 
     75 NZ         -2.6805   26.9778   -0.5414 N.2       3 LYS4        0.0000 
@<TRIPOS>BOND
@<TRIPOS>SUBSTRUCTURE
     1 SER1       26 GROUP   
     2 ALA2        1 GROUP   
     3 LYS4        3 GROUP   
     4 PHE5       14 GROUP   
     5 GLY6        4 GROUP   
     6 CUB7       10 GROUP   
@<TRIPOS>SET

