#    Name: 2aia_SB8_1_INTS_M
#    Modification time : Mon Mar 24 19:20:51 2014

@<TRIPOS>MOLECULE
2aia_SB8_1_INTS_M
   45     0     6     0     0
SMALL
NO_CHARGES


@<TRIPOS>ATOM
      1 CA         -5.6845   24.0425   -4.7055 C.3       2 GLC5        0.0000 
      2 CA         -4.9100   25.1530   -3.2030 C.3       6 GLL5        0.0000 
      3 CA         -6.4590   22.9320   -6.2080 C.3       4 GLP5        0.0000 
      4 CA         -3.0855   23.8645   -3.0855 C.3       2 GLC5        0.0000 
      5 CA         -1.2610   22.5760   -2.9680 C.3       4 GLP5        0.0000 
      6 CA         -2.5725   27.1505   -3.5425 C.3       2 GLC5        0.0000 
      7 CA         -3.5630   25.5600   -3.1220 C.3       6 GLL5        0.0000 
      8 CA         -1.5820   28.7410   -3.9630 C.3       4 GLP5        0.0000 
      9 N          -8.6885   26.9345   -2.0350 N.am      1 SEC2        0.0000 
     10 N          -8.0960   25.7520   -2.0280 N.am      5 SEL2        0.0000 
     11 N          -9.2810   28.1170   -2.0420 N.am      3 SEP2        0.0000 
     12 CA        -10.8040   21.7640   -4.8285 C.3       2 GLC5        0.0000 
     13 CA         -8.8550   21.9330   -3.8830 C.3       6 GLL5        0.0000 
     14 CA        -12.7530   21.5950   -5.7740 C.3       4 GLP5        0.0000 
     15 CA         -8.9155   25.3130   -3.9350 C.3       2 GLC5        0.0000 
     16 CA         -8.4610   23.2450   -3.5350 C.3       6 GLL5        0.0000 
     17 CA         -9.3700   27.3810   -4.3350 C.3       4 GLP5        0.0000 
     18 CA         -4.4605   28.5780    4.1695 C.3       2 GLC5        0.0000 
     19 CA         -3.8050   27.9110    2.6120 C.3       6 GLL5        0.0000 
     20 CA         -5.1160   29.2450    5.7270 C.3       4 GLP5        0.0000 
     21 N          -3.5575   31.4730    2.9715 N.am      1 SEC2        0.0000 
     22 N          -4.4090   30.2820    2.1580 N.am      5 SEL2        0.0000 
     23 N          -2.7060   32.6640    3.7850 N.am      3 SEP2        0.0000 
     24 N          -5.4735   30.6440    2.8840 N.am      1 SEC2        0.0000 
     25 N          -6.5380   31.0060    3.6100 N.am      3 SEP2        0.0000 
     26 N          -0.4160   30.2285    1.1685 N.am      1 SEC2        0.0000 
     27 N          -1.6700   30.5360    1.5310 N.am      5 SEL2        0.0000 
     28 N           0.8380   29.9210    0.8060 N.am      3 SEP2        0.0000 
     29 CA         -6.2858   26.1693   -4.1772 C.3       2 GLC5        0.0000 
     30 CA         -5.7870   25.3700   -2.1060 C.3       6 GLL5        0.0000 
     31 CA         -7.2230   27.0770   -5.7000 C.3       4 GLP5        0.0000 
     32 CA         -3.8133   25.0817   -5.2127 C.3       2 GLC5        0.0000 
     33 CA         -3.3900   24.8070   -7.2630 C.3       4 GLP5        0.0000 
     34 CA         -3.6920   24.6470   -0.2130 C.3       2 GLC5        0.0000 
     35 CA         -3.9390   26.4140   -0.8390 C.3       6 GLL5        0.0000 
     36 CA         -2.7680   23.0860    0.4630 C.3       4 GLP5        0.0000 
     37 CA         -3.0045   27.8580   -2.1918 C.3       2 GLC5        0.0000 
     38 CA         -2.5000   29.4150   -2.9900 C.3       4 GLP5        0.0000 
     39 CA         -3.0445   24.4800   -1.0360 C.3       2 GLC5        0.0000 
     40 CA         -3.0790   26.1880   -1.9480 C.3       6 GLL5        0.0000 
     41 CA         -1.7430   25.2235   -3.2845 C.3       2 GLC5        0.0000 
     42 CA         -0.1650   24.5730   -4.0340 C.3       4 GLP5        0.0000 
     43 CA         -7.2280   23.1542   -4.6090 C.3       2 GLC5        0.0000 
     44 CA         -7.5330   23.5080   -2.4850 C.3       6 GLL5        0.0000 
     45 CA         -7.5248   22.1565   -4.8715 C.3       2 GLC5        0.0000 
@<TRIPOS>BOND
@<TRIPOS>SUBSTRUCTURE
     1 SEC2        9 GROUP        1 X    SEC  0     ROOT SEC X 2
     2 GLC5        1 GROUP        1 X    GLC  0     **** GLC X 6
     3 SEP2       11 GROUP        1 Y    SEP  0     ROOT SEP Y 9
     4 GLP5        3 GROUP        1 Y    GLP  0     **** GLP Y 13
     5 SEL2       10 GROUP        1 Z    SEL  0     ROOT SEL Z 16
     6 GLL5        2 GROUP        1 Z    GLL  0     **** GLL Z 20
@<TRIPOS>SET

