#    Name: 2aia_SB8_1_ligand
#    Modification time : Mon Mar 24 19:20:51 2014

@<TRIPOS>MOLECULE
2aia_SB8_1_ligand
   36    37     1     0     0
SMALL
NO_CHARGES


@<TRIPOS>ATOM
      1 C1         -4.9100   25.1530   -3.2030 C.ar      1 SB8501      0.0000 
      2 C2         -5.7870   25.3700   -2.1060 C.ar      1 SB8501      0.0000 
      3 C3         -5.2930   26.0020   -0.9390 C.ar      1 SB8501      0.0000 
      4 C4         -3.9390   26.4140   -0.8390 C.ar      1 SB8501      0.0000 
      5 C5         -3.0790   26.1880   -1.9480 C.ar      1 SB8501      0.0000 
      6 C6         -3.5630   25.5600   -3.1220 C.ar      1 SB8501      0.0000 
      7 C7         -7.1970   24.9340   -2.2050 C.2       1 SB8501      0.0000 
      8 O8         -8.0960   25.7520   -2.0280 O.2       1 SB8501      0.0000 
      9 C9         -7.5330   23.5080   -2.4850 C.ar      1 SB8501      0.0000 
     10 C10        -6.9660   22.4120   -1.7490 C.ar      1 SB8501      0.0000 
     11 C11        -7.3250   21.0810   -2.0570 C.ar      1 SB8501      0.0000 
     12 C12        -8.3260   20.8290   -3.1870 C.ar      1 SB8501      0.0000 
     13 C13        -8.8550   21.9330   -3.8830 C.ar      1 SB8501      0.0000 
     14 C14        -8.4610   23.2450   -3.5350 C.ar      1 SB8501      0.0000 
     15 O24        -3.5220   27.0430    0.3650 O.3       1 SB8501      0.0000 
     16 C25        -4.4750   27.2260    1.4190 C.3       1 SB8501      0.0000 
     17 C26        -3.8050   27.9110    2.6120 C.3       1 SB8501      0.0000 
     18 N29        -3.4270   29.2850    2.2810 N.am      1 SB8501      0.0000 
     19 O32        -4.4090   30.2820    2.1580 O.3       1 SB8501      0.0000 
     20 C34        -2.1070   29.5520    2.1030 C.2       1 SB8501      0.0000 
     21 O35        -1.6700   30.5360    1.5310 O.2       1 SB8501      0.0000 
     22 H          -5.2610   24.7014   -4.0484 H         1 SB8501      0.0000 
     23 H          -5.9284   26.1664   -0.1463 H         1 SB8501      0.0000 
     24 H          -2.1001   26.4829   -1.8957 H         1 SB8501      0.0000 
     25 H          -2.9317   25.4032   -3.9100 H         1 SB8501      0.0000 
     26 H          -6.3005   22.6075   -1.0008 H         1 SB8501      0.0000 
     27 H          -6.9641   20.2869   -1.5802 H         1 SB8501      0.0000 
     28 H          -8.5632   19.8835   -3.3840 H         1 SB8501      0.0000 
     29 H          -9.5249   21.7878   -4.6412 H         1 SB8501      0.0000 
     30 H          -8.8569   24.0460   -4.0573 H         1 SB8501      0.0000 
     31 H          -4.8819   26.2702    1.7675 H         1 SB8501      0.0000 
     32 H          -5.3147   27.8541    1.1012 H         1 SB8501      0.0000 
     33 H          -2.9247   27.3215    2.8942 H         1 SB8501      0.0000 
     34 H          -4.5060   27.8916    3.4549 H         1 SB8501      0.0000 
     35 H          -1.4350   28.7970    2.5228 H         1 SB8501      0.0000 
     36 H          -4.0971   30.8609    1.4046 H         1 SB8501      0.0000 
@<TRIPOS>BOND
     1    2    1 ar   
     2    6    1 ar   
     3   22    1 1    
     4    3    2 ar   
     5    7    2 1    
     6    4    3 ar   
     7   23    3 1    
     8    5    4 ar   
     9   15    4 1    
    10    6    5 ar   
    11   24    5 1    
    12   25    6 1    
    13    8    7 2    
    14    9    7 1    
    15   10    9 ar   
    16   14    9 ar   
    17   11   10 ar   
    18   26   10 1    
    19   12   11 ar   
    20   27   11 1    
    21   13   12 ar   
    22   28   12 1    
    23   14   13 ar   
    24   29   13 1    
    25   30   14 1    
    26   16   15 1    
    27   17   16 1    
    28   31   16 1    
    29   32   16 1    
    30   18   17 1    
    31   33   17 1    
    32   34   17 1    
    33   19   18 1    
    34   20   18 am   
    35   36   19 1    
    36   21   20 2    
    37   35   20 1    
@<TRIPOS>SUBSTRUCTURE
     1 SB8501      1 GROUP   
@<TRIPOS>SET

