#    Name: 2cv2_GSU_1_INTS_M
#    Modification time : Tue Mar 25 01:15:32 2014

@<TRIPOS>MOLECULE
2cv2_GSU_1_INTS_M
   91     0    15     0     0
SMALL
NO_CHARGES


@<TRIPOS>ATOM
      1 CA         33.0785   73.6080   54.4430 C.3       5 GLC5        0.0000 
      2 CA         31.4170   74.8180   54.3990 C.3      15 GLL5        0.0000 
      3 CA         34.7400   72.3980   54.4870 C.3      10 GLP5        0.0000 
      4 CA         32.2470   75.3255   52.4270 C.3       5 GLC5        0.0000 
      5 CA         33.0770   75.8330   50.4550 C.3      10 GLP5        0.0000 
      6 CA         31.0800   76.6380   53.8950 C.3       5 GLC5        0.0000 
      7 CA         30.7430   78.4580   53.3910 C.3      10 GLP5        0.0000 
      8 CA         29.7230   75.2490   55.2700 C.3       5 GLC5        0.0000 
      9 CA         28.0290   75.6800   56.1410 C.3      10 GLP5        0.0000 
     10 CA         30.6610   73.0485   55.5465 C.3       5 GLC5        0.0000 
     11 CA         29.9050   71.2790   56.6940 C.3      10 GLP5        0.0000 
     12 OD1        41.1875   83.3270   51.8875 O.co2     3 ASC3        0.0000 
     13 OD1        40.7570   82.2620   52.6240 O.co2    13 ASL3        0.0000 
     14 OD1        41.6180   84.3920   51.1510 O.co2     8 ASP3        0.0000 
     15 O          40.9995   81.3675   51.7280 O.2       1 ALC1        0.0000 
     16 O          40.7570   82.2620   52.6240 O.2      11 ALL1        0.0000 
     17 O          41.2420   80.4730   50.8320 O.2       6 ALP1        0.0000 
     18 O          41.1875   83.3270   51.8875 O.2       1 ALC1        0.0000 
     19 O          41.6180   84.3920   51.1510 O.2       6 ALP1        0.0000 
     20 CA         39.7860   81.9895   49.9815 C.3       5 GLC5        0.0000 
     21 CA         38.6670   82.3730   51.5400 C.3      15 GLL5        0.0000 
     22 CA         40.9050   81.6060   48.4230 C.3      10 GLP5        0.0000 
     23 CA         36.2165   83.3630   52.8540 C.3       5 GLC5        0.0000 
     24 CA         37.2690   82.9320   51.3970 C.3      15 GLL5        0.0000 
     25 CA         35.1640   83.7940   54.3110 C.3      10 GLP5        0.0000 
     26 NZ         36.7720   84.3665   47.8875 N.4       4 LYC4        0.0000 
     27 NZ         36.5180   84.0510   49.4080 N.4      14 LYL4        0.0000 
     28 NZ         37.2360   83.4360   45.9820 N.4       9 LYP4        0.0000 
     29 NZ         35.5425   85.3530   49.3955 N.4       4 LYC4        0.0000 
     30 NZ         33.4200   86.0110   49.2870 N.4       9 LYP4        0.0000 
     31 N          36.6205   83.2455   48.0490 N.am      2 SEC2        0.0000 
     32 N          36.5180   84.0510   49.4080 N.am     12 SEL2        0.0000 
     33 N          36.7230   82.4400   46.6900 N.am      7 SEP2        0.0000 
     34 N          36.7720   84.3665   47.8875 N.am      2 SEC2        0.0000 
     35 N          37.0260   84.6820   46.3670 N.am      7 SEP2        0.0000 
     36 N          36.4905   85.0655   50.2855 N.am      2 SEC2        0.0000 
     37 N          36.4630   86.0800   51.1630 N.am      7 SEP2        0.0000 
     38 N          37.7880   85.0880   49.2825 N.am      2 SEC2        0.0000 
     39 N          39.0580   86.1250   49.1570 N.am      7 SEP2        0.0000 
     40 N          34.9665   84.3650   49.3760 N.am      2 SEC2        0.0000 
     41 N          33.4150   84.6790   49.3440 N.am      7 SEP2        0.0000 
     42 N          35.5425   85.3530   49.3955 N.am      2 SEC2        0.0000 
     43 N          34.5670   86.6550   49.3830 N.am      7 SEP2        0.0000 
     44 NZ         36.6205   83.2455   48.0490 N.4       4 LYC4        0.0000 
     45 NZ         36.8370   81.8570   49.3110 N.4      14 LYL4        0.0000 
     46 N          36.1180   81.8625   53.9695 N.am      2 SEC2        0.0000 
     47 N          37.6050   81.0890   54.1270 N.am     12 SEL2        0.0000 
     48 N          34.6310   82.6360   53.8120 N.am      7 SEP2        0.0000 
     49 N          41.8225   78.3890   54.1680 N.am      2 SEC2        0.0000 
     50 N          40.5410   77.9550   54.7490 N.am     12 SEL2        0.0000 
     51 N          43.1040   78.8230   53.5870 N.am      7 SEP2        0.0000 
     52 CA         40.2545   77.9350   52.0895 C.3       5 GLC5        0.0000 
     53 CA         38.1890   77.8900   52.6850 C.3      15 GLL5        0.0000 
     54 CA         42.3200   77.9800   51.4940 C.3      10 GLP5        0.0000 
     55 CA         37.3755   76.8140   50.1000 C.3       5 GLC5        0.0000 
     56 CA         36.8800   77.6110   51.9810 C.3      15 GLL5        0.0000 
     57 CA         37.8710   76.0170   48.2190 C.3      10 GLP5        0.0000 
     58 CA         37.2295   75.4160   52.0575 C.3       5 GLC5        0.0000 
     59 CA         37.5790   73.2210   52.1340 C.3      10 GLP5        0.0000 
     60 CA         35.4875   76.5230   50.6810 C.3       5 GLC5        0.0000 
     61 CA         34.0950   75.4350   49.3810 C.3      10 GLP5        0.0000 
     62 CA         33.9975   76.5570   51.8210 C.3       5 GLC5        0.0000 
     63 CA         34.9180   77.2810   53.1870 C.3      15 GLL5        0.0000 
     64 CA         33.2035   75.8955   52.6095 C.3       5 GLC5        0.0000 
     65 CA         33.3300   75.9580   54.7640 C.3      15 GLL5        0.0000 
     66 CA         32.0365   77.2080   54.0775 C.3       5 GLC5        0.0000 
     67 N          30.0340   73.9480   56.1170 N.am      2 SEC2        0.0000 
     68 N          31.2780   74.4810   55.6870 N.am     12 SEL2        0.0000 
     69 N          28.7900   73.4150   56.5470 N.am      7 SEP2        0.0000 
     70 CA         31.0680   73.0910   56.6440 C.3       5 GLC5        0.0000 
     71 CA         32.2310   74.9030   56.5940 C.3      15 GLL5        0.0000 
     72 CA         32.4045   73.3410   58.1890 C.3       5 GLC5        0.0000 
     73 CA         32.5780   71.7790   59.7840 C.3      10 GLP5        0.0000 
     74 CA         34.2950   80.8665   53.2155 C.3       5 GLC5        0.0000 
     75 CA         35.1830   78.8180   53.1700 C.3      15 GLL5        0.0000 
     76 CA         33.4070   82.9150   53.2610 C.3      10 GLP5        0.0000 
     77 N          32.7340   79.5740   52.2320 N.am      2 SEC2        0.0000 
     78 N          33.9760   79.5750   53.1390 N.am     12 SEL2        0.0000 
     79 N          31.4920   79.5730   51.3250 N.am      7 SEP2        0.0000 
     80 N          34.3035   81.1055   53.4755 N.am      2 SEC2        0.0000 
     81 O          33.9295   79.8805   54.5440 O.2       1 ALC1        0.0000 
     82 O          33.9760   79.5750   53.1390 O.2      11 ALL1        0.0000 
     83 O          33.8830   80.1860   55.9490 O.2       6 ALP1        0.0000 
     84 CA         37.6882   83.2005   53.5988 C.3       5 GLC5        0.0000 
     85 CA         36.3850   84.0150   54.9600 C.3      10 GLP5        0.0000 
     86 CA         38.3796   84.3005   51.9931 C.3       5 GLC5        0.0000 
     87 CA         38.6290   85.9420   52.1690 C.3      10 GLP5        0.0000 
     88 CA         32.8967   78.2537   53.2848 C.3       5 GLC5        0.0000 
     89 CA         33.7589   73.8806   55.2512 C.3       5 GLC5        0.0000 
     90 CA         31.4334   76.6081   56.3413 C.3       5 GLC5        0.0000 
     91 CA         30.0890   77.8530   56.6670 C.3      10 GLP5        0.0000 
@<TRIPOS>BOND
@<TRIPOS>SUBSTRUCTURE
     1 ALC1       15 GROUP        1 X    ALC  0     ROOT ALC X 1
     2 SEC2       31 GROUP        1 X    SEC  0     **** SEC X 2
     3 ASC3       12 GROUP        1 X    ASC  0     **** ASC X 3
     4 LYC4       26 GROUP        1 X    LYC  0     **** LYC X 4
     5 GLC5        1 GROUP        1 X    GLC  0     **** GLC X 6
     6 ALP1       17 GROUP        1 Y    ALP  0     ROOT ALP Y 8
     7 SEP2       33 GROUP        1 Y    SEP  0     **** SEP Y 9
     8 ASP3       14 GROUP        1 Y    ASP  0     **** ASP Y 10
     9 LYP4       28 GROUP        1 Y    LYP  0     **** LYP Y 11
    10 GLP5        3 GROUP        1 Y    GLP  0     **** GLP Y 13
    11 ALL1       16 GROUP        1 Z    ALL  0     ROOT ALL Z 15
    12 SEL2       32 GROUP        1 Z    SEL  0     **** SEL Z 16
    13 ASL3       13 GROUP        1 Z    ASL  0     **** ASL Z 17
    14 LYL4       27 GROUP        1 Z    LYL  0     **** LYL Z 18
    15 GLL5        2 GROUP        1 Z    GLL  0     **** GLL Z 20
@<TRIPOS>SET

