#    Name: 2cv2_GSU_1_ligand
#    Modification time : Tue Mar 25 01:15:32 2014

@<TRIPOS>MOLECULE
2cv2_GSU_1_ligand
   53    55     1     0     0
SMALL
NO_CHARGES


@<TRIPOS>ATOM
      1 C2         31.4170   74.8180   54.3990 C.ar      1 GSU601      0.0000 
      2 S          39.3430   78.8040   54.7460 S.o2      1 GSU601      0.0000 
      3 N          40.7570   82.2620   52.6240 N.4       1 GSU601      0.0000 
      4 CA         39.3160   82.3990   52.9350 C.3       1 GSU601      0.0000 
      5 CB         38.6670   82.3730   51.5400 C.3       1 GSU601      0.0000 
      6 CG         37.2690   82.9320   51.3970 C.3       1 GSU601      0.0000 
      7 CD         36.8360   83.0000   49.9500 C.2       1 GSU601      0.0000 
      8 OE1        36.5180   84.0510   49.4080 O.co2     1 GSU601      0.0000 
      9 OE2        36.8370   81.8570   49.3110 O.co2     1 GSU601      0.0000 
     10 C          38.7690   81.1940   53.7280 C.2       1 GSU601      0.0000 
     11 O          37.6050   81.0890   54.1270 O.2       1 GSU601      0.0000 
     12 N10        39.6720   80.2130   53.9450 N.am      1 GSU601      0.0000 
     13 O1S        38.9210   79.1240   56.1050 O.2       1 GSU601      0.0000 
     14 O2S        40.5410   77.9550   54.7490 O.2       1 GSU601      0.0000 
     15 O5'        38.1370   78.0250   54.0640 O.3       1 GSU601      0.0000 
     16 C5'        38.1890   77.8900   52.6850 C.3       1 GSU601      0.0000 
     17 C4'        36.8800   77.6110   51.9810 C.3       1 GSU601      0.0000 
     18 O4'        36.1180   76.6500   52.7220 O.3       1 GSU601      0.0000 
     19 C1'        34.9180   77.2810   53.1870 C.3       1 GSU601      0.0000 
     20 N9         34.4570   76.7170   54.5320 N.pl3     1 GSU601      0.0000 
     21 C4         33.3300   75.9580   54.7640 C.ar      1 GSU601      0.0000 
     22 N3         32.4110   75.5570   53.8370 N.ar      1 GSU601      0.0000 
     23 N1         31.2780   74.4810   55.6870 N.ar      1 GSU601      0.0000 
     24 C6         32.2310   74.9030   56.5940 C.ar      1 GSU601      0.0000 
     25 N6         32.0930   74.5690   57.8920 N.pl3     1 GSU601      0.0000 
     26 C5         33.3190   75.6890   56.1100 C.ar      1 GSU601      0.0000 
     27 N7         34.3860   76.2440   56.7160 N.2       1 GSU601      0.0000 
     28 C8         35.0330   76.8470   55.7490 C.2       1 GSU601      0.0000 
     29 C2'        35.1830   78.8180   53.1700 C.3       1 GSU601      0.0000 
     30 O2'        33.9760   79.5750   53.1390 O.3       1 GSU601      0.0000 
     31 C3'        36.0670   78.9010   51.9400 C.3       1 GSU601      0.0000 
     32 O3'        35.2790   78.9640   50.7560 O.3       1 GSU601      0.0000 
     33 H          30.6442   74.4608   53.7109 H         1 GSU601      0.0000 
     34 H          39.0937   83.2965   53.3962 H         1 GSU601      0.0000 
     35 H          38.6730   81.3122   51.1770 H         1 GSU601      0.0000 
     36 H          39.3486   82.9138   50.8329 H         1 GSU601      0.0000 
     37 H          37.2350   83.9376   51.8328 H         1 GSU601      0.0000 
     38 H          36.5679   82.3005   51.9555 H         1 GSU601      0.0000 
     39 H          40.6578   80.2302   53.6398 H         1 GSU601      0.0000 
     40 H          38.9045   77.0687   52.3748 H         1 GSU601      0.0000 
     41 H          38.6306   78.8101   52.1940 H         1 GSU601      0.0000 
     42 H          37.0659   77.2948   50.9869 H         1 GSU601      0.0000 
     43 H          34.1151   77.1050   52.4473 H         1 GSU601      0.0000 
     44 H          31.2807   74.0343   58.1248 H         1 GSU601      0.0000 
     45 H          32.8152   74.8856   58.5070 H         1 GSU601      0.0000 
     46 H          35.8879   77.3683   55.8784 H         1 GSU601      0.0000 
     47 H          35.8063   79.0060   54.0284 H         1 GSU601      0.0000 
     48 H          36.7316   79.7181   52.0557 H         1 GSU601      0.0000 
     49 H          40.9807   81.3438   52.2971 H         1 GSU601      0.0000 
     50 H          41.0465   82.9044   51.9144 H         1 GSU601      0.0000 
     51 H          41.3282   82.4347   53.4265 H         1 GSU601      0.0000 
     52 H          33.8082   79.8333   54.0904 H         1 GSU601      0.0000 
     53 H          35.9383   79.0720   50.0119 H         1 GSU601      0.0000 
@<TRIPOS>BOND
     1   22    1 ar   
     2   23    1 ar   
     3   33    1 1    
     4   12    2 1    
     5   13    2 2    
     6   14    2 2    
     7   15    2 1    
     8    4    3 1    
     9   49    3 1    
    10   50    3 1    
    11   51    3 1    
    12    5    4 1    
    13   10    4 1    
    14   34    4 1    
    15    6    5 1    
    16   35    5 1    
    17   36    5 1    
    18    7    6 1    
    19   37    6 1    
    20   38    6 1    
    21    8    7 ar   
    22    9    7 ar   
    23   11   10 2    
    24   12   10 am   
    25   39   12 1    
    26   16   15 1    
    27   17   16 1    
    28   40   16 1    
    29   41   16 1    
    30   18   17 1    
    31   31   17 1    
    32   42   17 1    
    33   19   18 1    
    34   20   19 1    
    35   29   19 1    
    36   43   19 1    
    37   21   20 1    
    38   28   20 1    
    39   22   21 ar   
    40   26   21 ar   
    41   24   23 ar   
    42   25   24 1    
    43   26   24 ar   
    44   44   25 1    
    45   45   25 1    
    46   27   26 1    
    47   28   27 2    
    48   46   28 1    
    49   30   29 1    
    50   31   29 1    
    51   47   29 1    
    52   52   30 1    
    53   32   31 1    
    54   48   31 1    
    55   53   32 1    
@<TRIPOS>SUBSTRUCTURE
     1 GSU601      1 GROUP   
@<TRIPOS>SET

