#    Name: 1he1_GDP_2_INTS_M
#    Modification time : Tue Mar 25 05:24:29 2014

@<TRIPOS>MOLECULE
1he1_GDP_2_INTS_M
   68     0    15     0     0
SMALL
NO_CHARGES


@<TRIPOS>ATOM
      1 NZ         -2.8905   24.3750   53.0915 N.4       3 LYC4        0.0000 
      2 NZ         -3.6120   24.5930   54.2260 N.4      13 LYL4        0.0000 
      3 NZ         -2.1690   24.1570   51.9570 N.4       8 LYP4        0.0000 
      4 N          -3.2460   24.6775   55.6945 N.am      2 SEC2        0.0000 
      5 N          -3.6120   24.5930   54.2260 N.am     12 SEL2        0.0000 
      6 N          -2.8800   24.7620   57.1630 N.am      7 SEP2        0.0000 
      7 N          -3.3275   25.8290   54.8350 N.am      2 SEC2        0.0000 
      8 N          -3.0430   27.0650   55.4440 N.am      7 SEP2        0.0000 
      9 N          -2.8905   24.3750   53.0915 N.am      2 SEC2        0.0000 
     10 N          -2.1690   24.1570   51.9570 N.am      7 SEP2        0.0000 
     11 Zn         -6.4370   25.6735   52.6640 Zn        4 ZIC7        0.0000 
     12 Zn         -5.8000   25.4740   53.4330 Zn       14 ZIL7        0.0000 
     13 Zn         -7.0740   25.8730   51.8950 Zn        9 ZIP7        0.0000 
     14 N          -5.5185   26.9770   53.8525 N.am      2 SEC2        0.0000 
     15 N          -5.8000   25.4740   53.4330 N.am     12 SEL2        0.0000 
     16 N          -5.2370   28.4800   54.2720 N.am      7 SEP2        0.0000 
     17 NZ         -6.5080   22.4965   53.9955 N.4       3 LYC4        0.0000 
     18 NZ         -5.4130   23.1130   53.2640 N.4      13 LYL4        0.0000 
     19 NZ         -7.8390   20.5710   54.8060 N.4       8 LYP4        0.0000 
     20 NZ         -3.7910   23.6350   52.6105 N.4       3 LYC4        0.0000 
     21 N          -6.5080   22.4965   53.9955 N.am      2 SEC2        0.0000 
     22 N          -5.4130   23.1130   53.2640 N.am     12 SEL2        0.0000 
     23 N          -7.6030   21.8800   54.7270 N.am      7 SEP2        0.0000 
     24 N          -4.7430   22.0575   53.9295 N.am      2 SEC2        0.0000 
     25 N          -4.0730   21.0020   54.5950 N.am      7 SEP2        0.0000 
     26 N          -4.2645   24.4430   56.3730 N.am      2 SEC2        0.0000 
     27 N          -5.6490   24.1240   55.5830 N.am     12 SEL2        0.0000 
     28 N          -6.6140   27.8125   56.4875 N.am      2 SEC2        0.0000 
     29 N          -6.4970   26.3740   56.3750 N.am     12 SEL2        0.0000 
     30 N          -6.7310   29.2510   56.6000 N.am      7 SEP2        0.0000 
     31 N          -7.8610   23.2390   55.2025 N.am      2 SEC2        0.0000 
     32 N          -8.1190   24.5980   55.6780 N.am     12 SEL2        0.0000 
     33 CA         -5.7015   22.1340   57.0595 C.3       5 GLC5        0.0000 
     34 CA         -7.0030   23.1520   58.1040 C.3      15 GLL5        0.0000 
     35 CA         -4.4000   21.1160   56.0150 C.3      10 GLP5        0.0000 
     36 N          -5.1450   22.5105   60.8105 N.am      2 SEC2        0.0000 
     37 N          -6.5400   23.2170   60.5910 N.am     12 SEL2        0.0000 
     38 N          -3.7500   21.8040   61.0300 N.am      7 SEP2        0.0000 
     39 N          -9.8710   22.1890   58.9680 N.am      2 SEC2        0.0000 
     40 N          -9.8810   23.3450   59.6170 N.am     12 SEL2        0.0000 
     41 N          -9.8610   21.0330   58.3190 N.am      7 SEP2        0.0000 
     42 CA         -8.4435   26.2720   62.0820 C.3       5 GLC5        0.0000 
     43 CA         -8.4080   24.3750   61.3330 C.3      15 GLL5        0.0000 
     44 CA         -8.4790   28.1690   62.8310 C.3      10 GLP5        0.0000 
     45 O          -9.3250   22.2850   62.0650 O.2       1 ALC1        0.0000 
     46 O          -9.2260   23.6290   62.2500 O.2      11 ALL1        0.0000 
     47 O          -9.4240   20.9410   61.8800 O.2       6 ALP1        0.0000 
     48 CA         -5.0525   23.6375   61.4040 C.3       5 GLC5        0.0000 
     49 CA         -6.9560   24.0920   61.6150 C.3      15 GLL5        0.0000 
     50 CA         -3.1490   23.1830   61.1930 C.3      10 GLP5        0.0000 
     51 CA         -3.3190   25.7840   62.6690 C.3       5 GLC5        0.0000 
     52 CA         -4.8560   26.8310   62.6810 C.3      15 GLL5        0.0000 
     53 CA         -1.7820   24.7370   62.6570 C.3      10 GLP5        0.0000 
     54 N          -3.1735   29.8565   63.4805 N.am      2 SEC2        0.0000 
     55 N          -3.4740   28.5280   63.7650 N.am     12 SEL2        0.0000 
     56 N          -2.8730   31.1850   63.1960 N.am      7 SEP2        0.0000 
     57 N          -4.3300   29.8745   64.1550 N.am      2 SEC2        0.0000 
     58 N          -5.1860   31.2210   64.5450 N.am      7 SEP2        0.0000 
     59 O          -3.5835   27.3830   66.0335 O.2       1 ALC1        0.0000 
     60 O          -4.4580   26.9150   64.9950 O.2      11 ALL1        0.0000 
     61 O          -2.7090   27.8510   67.0720 O.2       6 ALP1        0.0000 
     62 O          -4.6450   26.0385   67.5080 O.2       1 ALC1        0.0000 
     63 O          -5.3810   25.3380   66.4660 O.2      11 ALL1        0.0000 
     64 O          -3.9090   26.7390   68.5500 O.2       6 ALP1        0.0000 
     65 CA         -4.3810   24.4510   62.0745 C.3       5 GLC5        0.0000 
     66 CA         -5.6130   25.7190   62.9560 C.3      15 GLL5        0.0000 
     67 CA         -8.4105   25.9805   59.8602 C.3       5 GLC5        0.0000 
     68 CA         -8.2920   27.7610   59.1230 C.3      10 GLP5        0.0000 
@<TRIPOS>BOND
@<TRIPOS>SUBSTRUCTURE
     1 ALC1       45 GROUP        1 X    ALC  0     ROOT ALC X 1
     2 SEC2        4 GROUP        1 X    SEC  0     **** SEC X 2
     3 LYC4        1 GROUP        1 X    LYC  0     **** LYC X 4
     4 ZIC7       11 GROUP        1 X    ZIC  0     **** ZIC X 5
     5 GLC5       33 GROUP        1 X    GLC  0     **** GLC X 6
     6 ALP1       47 GROUP        1 Y    ALP  0     ROOT ALP Y 8
     7 SEP2        6 GROUP        1 Y    SEP  0     **** SEP Y 9
     8 LYP4        3 GROUP        1 Y    LYP  0     **** LYP Y 11
     9 ZIP7       13 GROUP        1 Y    ZIP  0     **** ZIP Y 12
    10 GLP5       35 GROUP        1 Y    GLP  0     **** GLP Y 13
    11 ALL1       46 GROUP        1 Z    ALL  0     ROOT ALL Z 15
    12 SEL2        5 GROUP        1 Z    SEL  0     **** SEL Z 16
    13 LYL4        2 GROUP        1 Z    LYL  0     **** LYL Z 18
    14 ZIL7       12 GROUP        1 Z    ZIL  0     **** ZIL Z 19
    15 GLL5       34 GROUP        1 Z    GLL  0     **** GLL Z 20
@<TRIPOS>SET

