#    Name: 1he1_GDP_2_ligand
#    Modification time : Tue Mar 25 05:24:29 2014

@<TRIPOS>MOLECULE
1he1_GDP_2_ligand
   40    42     1     0     0
SMALL
NO_CHARGES


@<TRIPOS>ATOM
      1 PB         -5.0650   24.3970   54.0900 P.3       1 GDP200      0.0000 
      2 O1B        -3.6120   24.5930   54.2260 O.co2     1 GDP200      0.0000 
      3 O2B        -5.8000   25.4740   53.4330 O.co2     1 GDP200      0.0000 
      4 O3B        -5.4130   23.1130   53.2640 O.co2     1 GDP200      0.0000 
      5 O3A        -5.6490   24.1240   55.5830 O.3       1 GDP200      0.0000 
      6 PA         -6.8520   24.9700   56.2880 P.3       1 GDP200      0.0000 
      7 O1A        -6.4970   26.3740   56.3750 O.co2     1 GDP200      0.0000 
      8 O2A        -8.1190   24.5980   55.6780 O.co2     1 GDP200      0.0000 
      9 O5'        -6.7240   24.4820   57.7420 O.3       1 GDP200      0.0000 
     10 C5'        -7.0030   23.1520   58.1040 C.3       1 GDP200      0.0000 
     11 C4'        -7.5110   23.0570   59.5410 C.3       1 GDP200      0.0000 
     12 O4'        -6.5400   23.2170   60.5910 O.3       1 GDP200      0.0000 
     13 C3'        -8.6500   24.0250   59.8620 C.3       1 GDP200      0.0000 
     14 O3'        -9.8810   23.3450   59.6170 O.3       1 GDP200      0.0000 
     15 C2'        -8.4080   24.3750   61.3330 C.3       1 GDP200      0.0000 
     16 O2'        -9.2260   23.6290   62.2500 O.3       1 GDP200      0.0000 
     17 C1'        -6.9560   24.0920   61.6150 C.3       1 GDP200      0.0000 
     18 N9         -6.1070   25.2620   61.7650 N.pl3     1 GDP200      0.0000 
     19 C8         -5.6230   26.1240   60.8590 C.2       1 GDP200      0.0000 
     20 N7         -4.8780   27.0730   61.3340 N.2       1 GDP200      0.0000 
     21 C5         -4.8560   26.8310   62.6810 C.2       1 GDP200      0.0000 
     22 C6         -4.1980   27.5250   63.7680 C.2       1 GDP200      0.0000 
     23 O6         -3.4740   28.5280   63.7650 O.2       1 GDP200      0.0000 
     24 N1         -4.4580   26.9150   64.9950 N.am      1 GDP200      0.0000 
     25 C2         -5.2390   25.7880   65.2000 C.2       1 GDP200      0.0000 
     26 N2         -5.3810   25.3380   66.4660 N.pl3     1 GDP200      0.0000 
     27 N3         -5.8460   25.1490   64.1810 N.2       1 GDP200      0.0000 
     28 C4         -5.6130   25.7190   62.9560 C.2       1 GDP200      0.0000 
     29 H          -6.1089   22.5045   58.0291 H         1 GDP200      0.0000 
     30 H          -7.7736   22.6970   57.4533 H         1 GDP200      0.0000 
     31 H          -7.9748   22.0314   59.6603 H         1 GDP200      0.0000 
     32 H          -8.5086   24.8901   59.2722 H         1 GDP200      0.0000 
     33 H          -8.5572   25.4437   61.4468 H         1 GDP200      0.0000 
     34 H          -6.9497   23.5131   62.5774 H         1 GDP200      0.0000 
     35 H          -5.8400   26.0206   59.8648 H         1 GDP200      0.0000 
     36 H          -4.0097   27.3627   65.8603 H         1 GDP200      0.0000 
     37 H          -4.8928   25.8504   67.1725 H         1 GDP200      0.0000 
     38 H          -5.9617   24.5325   66.5841 H         1 GDP200      0.0000 
     39 H         -10.5362   24.0675   59.3963 H         1 GDP200      0.0000 
     40 H          -9.1385   22.6764   61.9587 H         1 GDP200      0.0000 
@<TRIPOS>BOND
     1    2    1 ar   
     2    3    1 ar   
     3    4    1 ar   
     4    5    1 1    
     5    6    5 1    
     6    7    6 ar   
     7    8    6 ar   
     8    9    6 1    
     9   10    9 1    
    10   11   10 1    
    11   29   10 1    
    12   30   10 1    
    13   12   11 1    
    14   13   11 1    
    15   31   11 1    
    16   17   12 1    
    17   14   13 1    
    18   15   13 1    
    19   32   13 1    
    20   39   14 1    
    21   16   15 1    
    22   17   15 1    
    23   33   15 1    
    24   40   16 1    
    25   18   17 1    
    26   34   17 1    
    27   19   18 1    
    28   28   18 1    
    29   20   19 2    
    30   35   19 1    
    31   21   20 1    
    32   22   21 1    
    33   28   21 2    
    34   23   22 2    
    35   24   22 am   
    36   25   24 1    
    37   36   24 1    
    38   26   25 1    
    39   27   25 2    
    40   37   26 1    
    41   38   26 1    
    42   28   27 1    
@<TRIPOS>SUBSTRUCTURE
     1 GDP200      1 GROUP   
@<TRIPOS>SET

