#    Name: 2QX0_3_CAVITY_N1_ALL.mol2
#    Modification time : Tue Mar 11 09:07:52 2014

@<TRIPOS>MOLECULE
2QX0_3_CAVITY_N1_ALL.mol2
  223     0     7     0     0
SMALL
NO_CHARGES


@<TRIPOS>ATOM
      1 O           6.9727    9.2428   14.2230 O.2       2 ALA2        0.0000 
      2 O           7.8458    8.2472   14.9276 O.2       2 ALA2        0.0000 
      3 N           4.8804    9.5504   14.0570 N.2       2 ALA2        0.0000 
      4 O           5.7535    8.5547   14.7616 O.2       2 ALA2        0.0000 
      5 O           6.6266    7.5591   15.4662 O.2       2 ALA2        0.0000 
      6 N           3.6612    8.8623   14.5956 N.2       2 ALA2        0.0000 
      7 N           4.5343    7.8667   15.3002 N.2       2 ALA2        0.0000 
      8 CZ          5.4074    6.8711   16.0047 C.ar      5 PHE5        0.0000 
      9 O           4.1881    6.1830   16.5433 O.2       2 ALA2        0.0000 
     10 CZ          5.0612    5.1874   17.2479 C.ar      5 PHE5        0.0000 
     11 NZ          3.8420    4.4993   17.7864 N.2       4 LYS4        0.0000 
     12 NZ          4.7151    3.5037   18.4910 N.2       4 LYS4        0.0000 
     13 NZ          2.6228    3.8112   18.3250 N.2       4 LYS4        0.0000 
     14 CA         -0.3427    5.1144   17.4544 C.3       6 GLY6        0.0000 
     15 O           0.5304    4.1188   18.1590 O.2       2 ALA2        0.0000 
     16 CA         -2.4350    5.4220   17.2884 C.3       6 GLY6        0.0000 
     17 CA         -1.5619    4.4264   17.9930 C.3       6 GLY6        0.0000 
     18 OD1        -0.6888    3.4308   18.6976 O.3       3 ASP3        0.0000 
     19 CA         -3.6542    4.7340   17.8270 C.3       6 GLY6        0.0000 
     20 O          -2.7811    3.7383   18.5316 O.2       2 ALA2        0.0000 
     21 NZ         -1.9080    2.7427   19.2361 N.2       4 LYS4        0.0000 
     22 CA         -4.8734    4.0459   18.3656 C.3       6 GLY6        0.0000 
     23 O          -4.0003    3.0503   19.0701 O.2       2 ALA2        0.0000 
     24 O           6.0653    9.3523   12.3087 O.2       2 ALA2        0.0000 
     25 O           6.9384    8.3566   13.0133 O.2       2 ALA2        0.0000 
     26 O           7.8115    7.3610   13.7178 O.2       2 ALA2        0.0000 
     27 N           8.6846    6.3654   14.4224 N.2       2 ALA2        0.0000 
     28 N           4.8461    8.6642   12.8473 N.2       2 ALA2        0.0000 
     29 DU          5.7192    7.6686   13.5518 H         7 CUB7        0.0000 
     30 DU          6.5923    6.6729   14.2564 H         7 CUB7        0.0000 
     31 CZ          7.4654    5.6773   14.9610 C.ar      5 PHE5        0.0000 
     32 N           8.3385    4.6817   15.6655 N.2       2 ALA2        0.0000 
     33 N           2.7538    8.9718   12.6813 N.2       2 ALA2        0.0000 
     34 DU          3.6269    7.9761   13.3858 H         7 CUB7        0.0000 
     35 O           4.5000    6.9805   14.0904 O.2       2 ALA2        0.0000 
     36 DU          5.3731    5.9849   14.7950 H         7 CUB7        0.0000 
     37 CZ          6.2462    4.9893   15.4995 C.ar      5 PHE5        0.0000 
     38 O           1.5345    8.2837   13.2198 O.2       2 ALA2        0.0000 
     39 O           2.4076    7.2881   13.9244 O.2       2 ALA2        0.0000 
     40 O           4.1538    5.2968   15.3335 O.2       2 ALA2        0.0000 
     41 CZ          5.0269    4.3012   16.0381 C.ar      5 PHE5        0.0000 
     42 CZ          5.9000    3.3056   16.7427 C.ar      5 PHE5        0.0000 
     43 O           0.3153    7.5957   13.7584 O.2       2 ALA2        0.0000 
     44 O           1.1884    6.6000   14.4630 O.2       2 ALA2        0.0000 
     45 O           2.9346    4.6088   15.8721 O.2       2 ALA2        0.0000 
     46 DU          3.8077    3.6131   16.5767 H         7 CUB7        0.0000 
     47 O           4.6808    2.6175   17.2812 O.2       2 ALA2        0.0000 
     48 O          -0.0308    5.9120   15.0015 O.2       2 ALA2        0.0000 
     49 O           0.8423    4.9163   15.7061 O.2       2 ALA2        0.0000 
     50 O           1.7154    3.9207   16.4107 O.2       2 ALA2        0.0000 
     51 OD1         2.5885    2.9251   17.1152 O.3       3 ASP3        0.0000 
     52 O           3.4616    1.9294   17.8198 O.2       2 ALA2        0.0000 
     53 N          -1.2500    5.2239   15.5401 N.2       2 ALA2        0.0000 
     54 O          -0.3769    4.2283   16.2447 O.2       2 ALA2        0.0000 
     55 OD1         0.4962    3.2326   16.9492 O.3       3 ASP3        0.0000 
     56 N          -2.4693    4.5358   16.0787 N.2       2 ALA2        0.0000 
     57 DU         -1.5962    3.5402   16.7832 H         7 CUB7        0.0000 
     58 OD1        -0.7231    2.5446   17.4878 O.3       3 ASP3        0.0000 
     59 CA         -4.5616    4.8434   15.9127 C.3       6 GLY6        0.0000 
     60 CA         -3.6885    3.8478   16.6172 C.3       6 GLY6        0.0000 
     61 DU         -2.8154    2.8522   17.3218 H         7 CUB7        0.0000 
     62 NZ         -1.9423    1.8565   18.0264 N.2       4 LYS4        0.0000 
     63 O          -5.7808    4.1554   16.4512 O.2       2 ALA2        0.0000 
     64 N          -4.9077    3.1597   17.1558 N.2       2 ALA2        0.0000 
     65 CA         -4.0346    2.1641   17.8604 C.3       6 GLY6        0.0000 
     66 CA         -3.1615    1.1685   18.5649 C.3       6 GLY6        0.0000 
     67 O           6.0311    8.4661   11.0989 O.2       2 ALA2        0.0000 
     68 O           6.9042    7.4705   11.8035 O.2       2 ALA2        0.0000 
     69 O           7.7773    6.4748   12.5081 O.2       2 ALA2        0.0000 
     70 N           8.6504    5.4792   13.2126 N.2       2 ALA2        0.0000 
     71 N           4.8118    7.7780   11.6375 N.2       2 ALA2        0.0000 
     72 DU          5.6849    6.7824   12.3421 H         7 CUB7        0.0000 
     73 DU          6.5580    5.7868   13.0466 H         7 CUB7        0.0000 
     74 O           7.4311    4.7912   13.7512 O.2       2 ALA2        0.0000 
     75 N           8.3042    3.7955   14.4558 N.2       2 ALA2        0.0000 
     76 N           2.7195    8.0856   11.4715 N.2       2 ALA2        0.0000 
     77 DU          3.5926    7.0900   12.1761 H         7 CUB7        0.0000 
     78 DU          4.4657    6.0944   12.8806 H         7 CUB7        0.0000 
     79 DU          5.3388    5.0987   13.5852 H         7 CUB7        0.0000 
     80 O           6.2119    4.1031   14.2898 O.2       2 ALA2        0.0000 
     81 O           7.0850    3.1075   14.9943 O.2       2 ALA2        0.0000 
     82 CA          0.6272    8.3932   11.3055 C.3       6 GLY6        0.0000 
     83 DU          1.5003    7.3976   12.0101 H         7 CUB7        0.0000 
     84 DU          2.3734    6.4019   12.7146 H         7 CUB7        0.0000 
     85 DU          3.2465    5.4063   13.4192 H         7 CUB7        0.0000 
     86 DU          4.1196    4.4107   14.1238 H         7 CUB7        0.0000 
     87 DU          4.9927    3.4150   14.8283 H         7 CUB7        0.0000 
     88 O           5.8658    2.4194   15.5329 O.2       2 ALA2        0.0000 
     89 CA         -0.5921    7.7051   11.8441 C.3       6 GLY6        0.0000 
     90 N           0.2810    6.7095   12.5486 N.2       2 ALA2        0.0000 
     91 O           1.1541    5.7139   13.2532 O.2       2 ALA2        0.0000 
     92 DU          2.9003    3.7226   14.6623 H         7 CUB7        0.0000 
     93 DU          3.7734    2.7270   15.3669 H         7 CUB7        0.0000 
     94 O           4.6465    1.7313   16.0715 O.2       2 ALA2        0.0000 
     95 N          -0.9382    6.0214   13.0872 N.2       2 ALA2        0.0000 
     96 N          -0.0651    5.0258   13.7918 N.2       2 ALA2        0.0000 
     97 DU          0.8080    4.0302   14.4963 H         7 CUB7        0.0000 
     98 DU          1.6811    3.0345   15.2009 H         7 CUB7        0.0000 
     99 DU          2.5542    2.0389   15.9055 H         7 CUB7        0.0000 
    100 O           3.4273    1.0433   16.6100 O.2       2 ALA2        0.0000 
    101 O           4.3004    0.0476   17.3146 O.2       2 ALA2        0.0000 
    102 N          -1.2843    4.3377   14.3303 N.2       2 ALA2        0.0000 
    103 DU         -0.4112    3.3421   15.0349 H         7 CUB7        0.0000 
    104 OD1         0.4619    2.3465   15.7395 O.3       3 ASP3        0.0000 
    105 OD1         1.3350    1.3508   16.4440 O.3       3 ASP3        0.0000 
    106 O           3.0812   -0.6404   17.8532 O.2       2 ALA2        0.0000 
    107 N          -2.5036    3.6497   14.8689 N.2       2 ALA2        0.0000 
    108 DU         -1.6305    2.6540   15.5735 H         7 CUB7        0.0000 
    109 OD1        -0.7574    1.6584   16.2780 O.3       3 ASP3        0.0000 
    110 O          -4.5959    3.9573   14.7029 O.2       2 ALA2        0.0000 
    111 DU         -3.7228    2.9616   15.4075 H         7 CUB7        0.0000 
    112 DU         -2.8497    1.9660   16.1120 H         7 CUB7        0.0000 
    113 OD1        -1.9766    0.9704   16.8166 O.3       3 ASP3        0.0000 
    114 OD1        -1.1035   -0.0253   17.5212 O.3       3 ASP3        0.0000 
    115 N          -4.9420    2.2736   15.9460 N.2       2 ALA2        0.0000 
    116 CA         -4.0689    1.2779   16.6506 C.3       6 GLY6        0.0000 
    117 N           5.1237    8.5756    9.1846 N.2       2 ALA2        0.0000 
    118 CZ          5.9968    7.5799    9.8892 C.ar      5 PHE5        0.0000 
    119 CZ          6.8699    6.5843   10.5937 C.ar      5 PHE5        0.0000 
    120 DU          7.7430    5.5887   11.2983 H         7 CUB7        0.0000 
    121 O           8.6161    4.5930   12.0029 O.2       2 ALA2        0.0000 
    122 N           3.9044    7.8875    9.7232 N.2       2 ALA2        0.0000 
    123 DU          4.7775    6.8919   10.4277 H         7 CUB7        0.0000 
    124 DU          5.6506    5.8962   11.1323 H         7 CUB7        0.0000 
    125 DU          6.5237    4.9006   11.8369 H         7 CUB7        0.0000 
    126 O           7.3968    3.9050   12.5414 O.2       2 ALA2        0.0000 
    127 CA          1.8121    8.1951    9.5572 C.3       6 GLY6        0.0000 
    128 CA          2.6852    7.1994   10.2617 C.3       6 GLY6        0.0000 
    129 DU          5.3045    4.2126   12.3754 H         7 CUB7        0.0000 
    130 O           6.1776    3.2169   13.0800 O.2       2 ALA2        0.0000 
    131 CA          0.5929    7.5070   10.0957 C.3       6 GLY6        0.0000 
    132 O           1.4660    6.5114   10.8003 O.2       2 ALA2        0.0000 
    133 DU          2.3391    5.5158   11.5049 H         7 CUB7        0.0000 
    134 DU          4.0853    3.5245   12.9140 H         7 CUB7        0.0000 
    135 O           4.9584    2.5289   13.6186 O.2       2 ALA2        0.0000 
    136 O           5.8315    1.5332   14.3231 O.2       2 ALA2        0.0000 
    137 O           0.2467    5.8233   11.3389 O.2       2 ALA2        0.0000 
    138 O           1.1198    4.8277   12.0434 O.2       2 ALA2        0.0000 
    139 DU          1.9929    3.8321   12.7480 H         7 CUB7        0.0000 
    140 DU          3.7391    1.8408   14.1571 H         7 CUB7        0.0000 
    141 O           4.6122    0.8452   14.8617 O.2       2 ALA2        0.0000 
    142 OG         -0.0994    4.1396   12.5820 O.2       1 SER1        0.0000 
    143 DU          0.7737    3.1440   13.2866 H         7 CUB7        0.0000 
    144 DU          2.5199    1.1527   14.6957 H         7 CUB7        0.0000 
    145 O           3.3930    0.1571   15.4003 O.2       2 ALA2        0.0000 
    146 O           4.2661   -0.8385   16.1048 O.2       2 ALA2        0.0000 
    147 OG         -0.4455    2.4559   13.8251 O.2       1 SER1        0.0000 
    148 DU          0.4276    1.4603   14.5297 H         7 CUB7        0.0000 
    149 OD1         1.3007    0.4647   15.2343 O.3       3 ASP3        0.0000 
    150 OD1         2.1738   -0.5309   15.9388 O.3       3 ASP3        0.0000 
    151 O           3.0469   -1.5266   16.6434 O.2       2 ALA2        0.0000 
    152 OG         -2.5378    2.7635   13.6591 O.2       1 SER1        0.0000 
    153 DU         -1.6647    1.7679   14.3637 H         7 CUB7        0.0000 
    154 DU         -0.7916    0.7723   15.0683 H         7 CUB7        0.0000 
    155 OD1         0.0815   -0.2234   15.7728 O.3       3 ASP3        0.0000 
    156 OD1         1.8277   -2.2146   17.1820 O.3       3 ASP3        0.0000 
    157 CZ         -3.7571    2.0755   14.1977 C.ar      5 PHE5        0.0000 
    158 DU         -2.8840    1.0798   14.9023 H         7 CUB7        0.0000 
    159 N          -2.0109    0.0842   15.6068 N.2       2 ALA2        0.0000 
    160 N          -1.1378   -0.9114   16.3114 N.2       2 ALA2        0.0000 
    161 CA         -4.9763    1.3874   14.7363 C.3       6 GLY6        0.0000 
    162 N          -4.1032    0.3918   15.4408 N.2       2 ALA2        0.0000 
    163 O           4.2163    8.6850    7.2703 O.2       2 ALA2        0.0000 
    164 CZ          5.0894    7.6894    7.9748 C.ar      5 PHE5        0.0000 
    165 CZ          6.8356    5.6981    9.3840 C.ar      5 PHE5        0.0000 
    166 CA          7.7087    4.7025   10.0885 C.3       6 GLY6        0.0000 
    167 CA          2.9971    7.9970    7.8088 C.3       6 GLY6        0.0000 
    168 CZ          3.8702    7.0013    8.5134 C.ar      5 PHE5        0.0000 
    169 CZ          4.7433    6.0057    9.2180 C.ar      5 PHE5        0.0000 
    170 CZ          5.6164    5.0101    9.9225 C.ar      5 PHE5        0.0000 
    171 O           6.4895    4.0144   10.6271 O.2       2 ALA2        0.0000 
    172 O           7.3626    3.0188   11.3317 O.2       2 ALA2        0.0000 
    173 CA          1.7778    7.3089    8.3474 C.3       6 GLY6        0.0000 
    174 O           2.6509    6.3133    9.0520 O.2       2 ALA2        0.0000 
    175 DU          3.5240    5.3176    9.7565 H         7 CUB7        0.0000 
    176 DU          4.3971    4.3220   10.4611 H         7 CUB7        0.0000 
    177 O           5.2702    3.3264   11.1657 O.2       2 ALA2        0.0000 
    178 O           6.1433    2.3308   11.8702 O.2       2 ALA2        0.0000 
    179 O           1.4317    5.6252    9.5905 O.2       2 ALA2        0.0000 
    180 O           2.3048    4.6296   10.2951 O.2       2 ALA2        0.0000 
    181 DU          3.1779    3.6340   10.9997 H         7 CUB7        0.0000 
    182 O           4.0510    2.6383   11.7042 O.2       2 ALA2        0.0000 
    183 O           4.9241    1.6427   12.4088 O.2       2 ALA2        0.0000 
    184 O           1.0856    3.9415   10.8337 O.2       2 ALA2        0.0000 
    185 DU          1.9587    2.9459   11.5382 H         7 CUB7        0.0000 
    186 DU          2.8318    1.9503   12.2428 H         7 CUB7        0.0000 
    187 O           4.5780   -0.0410   13.6519 O.2       2 ALA2        0.0000 
    188 DU          0.7394    2.2578   12.0768 H         7 CUB7        0.0000 
    189 O           4.2318   -1.7247   14.8951 O.2       2 ALA2        0.0000 
    190 OG         -0.4798    1.5698   12.6154 O.2       1 SER1        0.0000 
    191 CZ         -1.6990    0.8817   13.1539 C.ar      5 PHE5        0.0000 
    192 DU         -0.8259   -0.1139   13.8585 H         7 CUB7        0.0000 
    193 CZ         -2.9183    0.1937   13.6925 C.ar      5 PHE5        0.0000 
    194 CZ         -2.0452   -0.8020   14.3971 C.ar      5 PHE5        0.0000 
    195 CZ          4.1820    7.7989    6.0605 C.ar      5 PHE5        0.0000 
    196 CZ          2.9628    7.1108    6.5991 C.ar      5 PHE5        0.0000 
    197 CZ          3.8359    6.1152    7.3036 C.ar      5 PHE5        0.0000 
    198 CZ          4.7090    5.1195    8.0082 C.ar      5 PHE5        0.0000 
    199 O           5.5821    4.1239    8.7128 O.2       2 ALA2        0.0000 
    200 CZ          1.7435    6.4227    7.1376 C.ar      5 PHE5        0.0000 
    201 O           2.6166    5.4271    7.8422 O.2       2 ALA2        0.0000 
    202 OD1         3.4897    4.4315    8.5468 O.3       3 ASP3        0.0000 
    203 OD1         4.3628    3.4358    9.2513 O.3       3 ASP3        0.0000 
    204 O           1.3974    4.7391    8.3808 O.2       2 ALA2        0.0000 
    205 OD1         2.2705    3.7434    9.0853 O.3       3 ASP3        0.0000 
    206 OD1         3.1436    2.7478    9.7899 O.3       3 ASP3        0.0000 
    207 OD1         1.9244    2.0597   10.3285 O.3       3 ASP3        0.0000 
    208 OD1         2.7975    1.0641   11.0330 O.3       3 ASP3        0.0000 
    209 CZ          2.9285    6.2246    5.3893 C.ar      5 PHE5        0.0000 
    210 CZ          3.8016    5.2290    6.0939 C.ar      5 PHE5        0.0000 
    211 NZ          4.6747    4.2334    6.7984 N.2       4 LYS4        0.0000 
    212 CZ          1.7093    5.5366    5.9279 C.ar      5 PHE5        0.0000 
    213 OD1         2.5824    4.5409    6.6324 O.3       3 ASP3        0.0000 
    214 CZ          2.8942    5.3385    4.1795 C.ar      5 PHE5        0.0000 
    215 O           3.7673    4.3428    4.8841 O.2       2 ALA2        0.0000 
    216 NZ          4.6404    3.3472    5.5887 N.2       4 LYS4        0.0000 
    217 OD1         2.5481    3.6548    5.4227 O.3       3 ASP3        0.0000 
    218 O           3.7330    3.4567    3.6743 O.2       2 ALA2        0.0000 
    219 NZ          4.6061    2.4610    4.3789 N.2       4 LYS4        0.0000 
    220 CZ          1.6407    3.7642    3.5083 C.ar      5 PHE5        0.0000 
    221 NZ          2.5138    2.7686    4.2129 N.2       4 LYS4        0.0000 
    222 NZ          0.4215    3.0762    4.0469 N.2       4 LYS4        0.0000 
    223 O          -2.7468    4.6245   19.7413 O.2       2 ALA2        0.0000 
@<TRIPOS>BOND
@<TRIPOS>SUBSTRUCTURE
     1 SER1      142 GROUP   
     2 ALA2        1 GROUP   
     3 ASP3       18 GROUP   
     4 LYS4       11 GROUP   
     5 PHE5        8 GROUP   
     6 GLY6       14 GROUP   
     7 CUB7       29 GROUP   
@<TRIPOS>SET

