#    Name: 2qx0_APC_3_INTS_M
#    Modification time : Mon Mar 24 22:55:15 2014

@<TRIPOS>MOLECULE
2qx0_APC_3_INTS_M
   77     0    15     0     0
SMALL
NO_CHARGES


@<TRIPOS>ATOM
      1 N          -2.9895   -2.1040   16.9210 N.am      2 SEC2        0.0000 
      2 N          -1.7770   -2.1660   15.9100 N.am     12 SEL2        0.0000 
      3 N          -4.2020   -2.0420   17.9320 N.am      7 SEP2        0.0000 
      4 NZ         -2.0825   -5.6105   16.3070 N.4       3 LYC4        0.0000 
      5 NZ         -1.3730   -4.6170   15.6860 N.4      13 LYL4        0.0000 
      6 NZ         -3.4670   -6.4490   18.0630 N.4       8 LYP4        0.0000 
      7 N          -2.3030   -5.1195   14.9525 N.am      2 SEC2        0.0000 
      8 N          -1.3730   -4.6170   15.6860 N.am     12 SEL2        0.0000 
      9 N          -3.2330   -5.6220   14.2190 N.am      7 SEP2        0.0000 
     10 N          -2.0825   -5.6105   16.3070 N.am      2 SEC2        0.0000 
     11 N          -2.7920   -6.6040   16.9280 N.am      7 SEP2        0.0000 
     12 NZ         -2.2910   -4.5195   18.3960 N.4       3 LYC4        0.0000 
     13 NZ         -1.4120   -3.5980   17.9210 N.4      13 LYL4        0.0000 
     14 Zn         -0.8825   -3.2700   18.7955 Zn        4 ZIC7        0.0000 
     15 Zn         -1.4120   -3.5980   17.9210 Zn       14 ZIL7        0.0000 
     16 Zn         -0.3530   -2.9420   19.6700 Zn        9 ZIP7        0.0000 
     17 N          -2.8070   -2.8200   17.9265 N.am      2 SEC2        0.0000 
     18 N          -1.4120   -3.5980   17.9210 N.am     12 SEL2        0.0000 
     19 N          -2.2910   -4.5195   18.3960 N.am      2 SEC2        0.0000 
     20 N          -3.1700   -5.4410   18.8710 N.am      7 SEP2        0.0000 
     21 N          -2.1020   -5.1010   17.4245 N.am      2 SEC2        0.0000 
     22 Zn          0.7005   -0.5140   18.7020 Zn        4 ZIC7        0.0000 
     23 Zn          0.6750   -1.5000   18.2530 Zn       14 ZIL7        0.0000 
     24 Zn          0.7260    0.4720   19.1510 Zn        9 ZIP7        0.0000 
     25 Zn          0.1610   -2.2210   18.9615 Zn        4 ZIC7        0.0000 
     26 N           3.8585   -2.1260   18.1530 N.am      2 SEC2        0.0000 
     27 N           2.8300   -2.4520   17.1660 N.am     12 SEL2        0.0000 
     28 N           4.8870   -1.8000   19.1400 N.am      7 SEP2        0.0000 
     29 NZ          3.6635    0.5790   18.8675 N.4       3 LYC4        0.0000 
     30 NZ          2.4760    0.7690   17.9230 N.4      13 LYL4        0.0000 
     31 NZ          5.4270   -0.8030   19.8300 N.4       8 LYP4        0.0000 
     32 Zn          1.6010    0.6205   18.5370 Zn        4 ZIC7        0.0000 
     33 Zn          2.4760    0.7690   17.9230 Zn       14 ZIL7        0.0000 
     34 N           3.6635    0.5790   18.8675 N.am      2 SEC2        0.0000 
     35 N           2.4760    0.7690   17.9230 N.am     12 SEL2        0.0000 
     36 N           4.8510    0.3890   19.8120 N.am      7 SEP2        0.0000 
     37 N           5.4250    0.0555   16.1155 N.am      2 SEC2        0.0000 
     38 N           3.8310    0.6560   15.7660 N.am     12 SEL2        0.0000 
     39 N           7.0190   -0.5450   16.4650 N.am      7 SEP2        0.0000 
     40 O           1.8360    6.3575   15.6880 O.2       1 ALC1        0.0000 
     41 O           1.8500    5.5560   14.4540 O.2      11 ALL1        0.0000 
     42 O           1.8220    7.1590   16.9220 O.2       6 ALP1        0.0000 
     43 CA         -1.1825    7.1255   15.8310 C.3       5 GLC5        0.0000 
     44 CA         -0.5010    5.2490   14.9730 C.3      15 GLL5        0.0000 
     45 CA         -1.8640    9.0020   16.6890 C.3      10 GLP5        0.0000 
     46 O          -1.9635    6.5800   14.0175 O.2       1 ALC1        0.0000 
     47 O          -0.6260    6.3730   14.0800 O.2      11 ALL1        0.0000 
     48 O          -3.3010    6.7870   13.9550 O.2       6 ALP1        0.0000 
     49 CA         -2.6640    3.8965   12.7930 C.3       5 GLC5        0.0000 
     50 CA         -1.4160    4.1010   14.5340 C.3      15 GLL5        0.0000 
     51 CA         -3.9120    3.6920   11.0520 C.3      10 GLP5        0.0000 
     52 N          -6.1750    4.1075   14.9620 N.am      2 SEC2        0.0000 
     53 N          -4.8610    3.4590   15.6100 N.am     12 SEL2        0.0000 
     54 N          -7.4890    4.7560   14.3140 N.am      7 SEP2        0.0000 
     55 CA         -5.3470    4.1940   20.0000 C.3       5 GLC5        0.0000 
     56 CA         -4.7250    3.3800   18.1460 C.3      15 GLL5        0.0000 
     57 CA         -5.9690    5.0080   21.8540 C.3      10 GLP5        0.0000 
     58 CA         -4.8470    1.1650   18.3205 C.3       5 GLC5        0.0000 
     59 CA         -4.9690   -1.0500   18.4950 C.3      10 GLP5        0.0000 
     60 O          -6.5430    2.8280   19.6900 O.2       1 ALC1        0.0000 
     61 O          -5.9610    3.1400   18.5100 O.2      11 ALL1        0.0000 
     62 O          -7.1250    2.5160   20.8700 O.2       6 ALP1        0.0000 
     63 N          -4.1640    3.2440   20.5970 N.am      2 SEC2        0.0000 
     64 N          -3.8170    3.5000   19.2230 N.am     12 SEL2        0.0000 
     65 N          -4.5110    2.9880   21.9710 N.am      7 SEP2        0.0000 
     66 CA         -2.0305    5.5995   18.8065 C.3       5 GLC5        0.0000 
     67 CA         -2.5540    3.7390   18.9800 C.3      15 GLL5        0.0000 
     68 CA         -1.5070    7.4600   18.6330 C.3      10 GLP5        0.0000 
     69 CA         -2.6215    2.5635   20.5135 C.3       5 GLC5        0.0000 
     70 CA         -2.6890    1.3880   22.0470 C.3      10 GLP5        0.0000 
     71 CA         -3.6710    4.8355   20.5705 C.3       5 GLC5        0.0000 
     72 CA         -4.7880    5.9320   22.1610 C.3      10 GLP5        0.0000 
     73 CA         -2.1760    5.6190   17.6570 C.3       5 GLC5        0.0000 
     74 CA         -2.8450    3.7780   16.6810 C.3      15 GLL5        0.0000 
     75 CA         -4.3736    5.3870   17.0796 C.3       5 GLC5        0.0000 
     76 CA         -4.1980    3.5280   16.8650 C.3      15 GLL5        0.0000 
     77 CA         -5.0940    7.1580   17.0660 C.3      10 GLP5        0.0000 
@<TRIPOS>BOND
@<TRIPOS>SUBSTRUCTURE
     1 ALC1       40 GROUP        1 X    ALC  0     ROOT ALC X 1
     2 SEC2        1 GROUP        1 X    SEC  0     **** SEC X 2
     3 LYC4        4 GROUP        1 X    LYC  0     **** LYC X 4
     4 ZIC7       14 GROUP        1 X    ZIC  0     **** ZIC X 5
     5 GLC5       43 GROUP        1 X    GLC  0     **** GLC X 6
     6 ALP1       42 GROUP        1 Y    ALP  0     ROOT ALP Y 8
     7 SEP2        3 GROUP        1 Y    SEP  0     **** SEP Y 9
     8 LYP4        6 GROUP        1 Y    LYP  0     **** LYP Y 11
     9 ZIP7       16 GROUP        1 Y    ZIP  0     **** ZIP Y 12
    10 GLP5       45 GROUP        1 Y    GLP  0     **** GLP Y 13
    11 ALL1       41 GROUP        1 Z    ALL  0     ROOT ALL Z 15
    12 SEL2        2 GROUP        1 Z    SEL  0     **** SEL Z 16
    13 LYL4        5 GROUP        1 Z    LYL  0     **** LYL Z 18
    14 ZIL7       15 GROUP        1 Z    ZIL  0     **** ZIL Z 19
    15 GLL5       44 GROUP        1 Z    GLL  0     **** GLL Z 20
@<TRIPOS>SET

