#    Name: 2qx0_APC_3_ligand
#    Modification time : Mon Mar 24 22:55:15 2014

@<TRIPOS>MOLECULE
2qx0_APC_3_ligand
   44    46     1     0     0
SMALL
NO_CHARGES


@<TRIPOS>ATOM
      1 PG         -1.0870   -3.3600   16.4620 P.3       1 APC172      0.0000 
      2 O1G        -1.7770   -2.1660   15.9100 O.co2     1 APC172      0.0000 
      3 O2G        -1.3730   -4.6170   15.6860 O.co2     1 APC172      0.0000 
      4 O3G        -1.4120   -3.5980   17.9210 O.co2     1 APC172      0.0000 
      5 PB          1.4230   -1.9820   17.0090 P.3       1 APC172      0.0000 
      6 O1B         0.6750   -1.5000   18.2530 O.co2     1 APC172      0.0000 
      7 O2B         2.8300   -2.4520   17.1660 O.co2     1 APC172      0.0000 
      8 O3B         0.5210   -3.1490   16.3520 O.3       1 APC172      0.0000 
      9 PA          2.4790    0.7170   16.3920 P.3       1 APC172      0.0000 
     10 O1A         2.4760    0.7690   17.9230 O.co2     1 APC172      0.0000 
     11 O2A         3.8310    0.6560   15.7660 O.co2     1 APC172      0.0000 
     12 C3A         1.4630   -0.6280   15.8270 C.3       1 APC172      0.0000 
     13 O5'         1.7580    2.0610   15.8990 O.3       1 APC172      0.0000 
     14 C5'         1.8010    2.4040   14.4530 C.3       1 APC172      0.0000 
     15 C4'         0.7180    3.4160   14.2280 C.3       1 APC172      0.0000 
     16 O4'        -0.5740    2.9030   14.6270 O.3       1 APC172      0.0000 
     17 C3'         0.8850    4.7070   14.9450 C.3       1 APC172      0.0000 
     18 O3'         1.8500    5.5560   14.4540 O.3       1 APC172      0.0000 
     19 C2'        -0.5010    5.2490   14.9730 C.3       1 APC172      0.0000 
     20 O2'        -0.6260    6.3730   14.0800 O.3       1 APC172      0.0000 
     21 C1'        -1.4160    4.1010   14.5340 C.3       1 APC172      0.0000 
     22 N9         -2.6380    3.8610   15.3450 N.pl3     1 APC172      0.0000 
     23 C8         -3.9100    3.6620   14.6780 C.2       1 APC172      0.0000 
     24 N7         -4.8610    3.4590   15.6100 N.2       1 APC172      0.0000 
     25 C5         -4.1980    3.5280   16.8650 C.ar      1 APC172      0.0000 
     26 C6         -4.7250    3.3800   18.1460 C.ar      1 APC172      0.0000 
     27 N6         -5.9610    3.1400   18.5100 N.pl3     1 APC172      0.0000 
     28 N1         -3.8170    3.5000   19.2230 N.ar      1 APC172      0.0000 
     29 C2         -2.5540    3.7390   18.9800 C.ar      1 APC172      0.0000 
     30 N3         -1.9130    3.9040   17.7210 N.ar      1 APC172      0.0000 
     31 C4         -2.8450    3.7780   16.6810 C.ar      1 APC172      0.0000 
     32 H           0.4895   -0.2715   15.7498 H         1 APC172      0.0000 
     33 H           1.8969   -1.0028   14.9597 H         1 APC172      0.0000 
     34 H           1.6091    1.5271   13.8561 H         1 APC172      0.0000 
     35 H           2.7573    2.8323   14.1998 H         1 APC172      0.0000 
     36 H           0.6679    3.6412   13.1455 H         1 APC172      0.0000 
     37 H           1.0968    4.4152   16.0149 H         1 APC172      0.0000 
     38 H          -0.7576    5.5050   15.9807 H         1 APC172      0.0000 
     39 H          -1.6697    4.2478   13.4936 H         1 APC172      0.0000 
     40 H          -3.9976    3.6824   13.7321 H         1 APC172      0.0000 
     41 H          -1.8665    3.8313   19.8292 H         1 APC172      0.0000 
     42 H           2.0554    6.1785   15.2092 H         1 APC172      0.0000 
     43 H          -1.6071    6.5620   14.0378 H         1 APC172      0.0000 
     44 H          -5.9128    2.9723   19.4947 H         1 APC172      0.0000 
@<TRIPOS>BOND
     1    2    1 ar   
     2    3    1 ar   
     3    4    1 ar   
     4    8    1 1    
     5    6    5 ar   
     6    7    5 ar   
     7    8    5 1    
     8   12    5 1    
     9   10    9 ar   
    10   11    9 ar   
    11   12    9 1    
    12   13    9 1    
    13   32   12 1    
    14   33   12 1    
    15   14   13 1    
    16   15   14 1    
    17   34   14 1    
    18   35   14 1    
    19   16   15 1    
    20   17   15 1    
    21   36   15 1    
    22   21   16 1    
    23   18   17 1    
    24   19   17 1    
    25   37   17 1    
    26   42   18 1    
    27   20   19 1    
    28   21   19 1    
    29   38   19 1    
    30   43   20 1    
    31   22   21 1    
    32   39   21 1    
    33   23   22 1    
    34   31   22 1    
    35   24   23 2    
    36   40   23 1    
    37   25   24 1    
    38   26   25 ar   
    39   31   25 ar   
    40   27   26 1    
    41   28   26 ar   
    42   44   27 1    
    43   29   28 ar   
    44   30   29 ar   
    45   41   29 1    
    46   31   30 ar   
@<TRIPOS>SUBSTRUCTURE
     1 APC172      1 GROUP   
@<TRIPOS>SET

