#    Name: 4h95_06U_1_INTS_M
#    Modification time : Tue Mar 25 00:42:44 2014

@<TRIPOS>MOLECULE
4h95_06U_1_INTS_M
   61     0     9     0     0
SMALL
NO_CHARGES


@<TRIPOS>ATOM
      1 CA        -17.6985   17.9150    3.0090 C.3       3 GLC5        0.0000 
      2 CA        -15.8000   18.5110    3.6820 C.3       9 GLL5        0.0000 
      3 CA        -19.5970   17.3190    2.3360 C.3       6 GLP5        0.0000 
      4 CA        -16.6315   19.9020    2.4035 C.3       3 GLC5        0.0000 
      5 CA        -17.4630   21.2930    1.1250 C.3       6 GLP5        0.0000 
      6 CA        -15.4295   20.4845    4.3765 C.3       3 GLC5        0.0000 
      7 CA        -15.0590   22.4580    5.0710 C.3       6 GLP5        0.0000 
      8 CA        -15.8170   16.5670    4.4915 C.3       3 GLC5        0.0000 
      9 CA        -15.8340   14.6230    5.3010 C.3       6 GLP5        0.0000 
     10 N         -14.5600   18.3600    5.5935 N.am      2 SEC2        0.0000 
     11 N         -14.6670   17.9950    4.3230 N.am      8 SEL2        0.0000 
     12 N         -14.4530   18.7250    6.8640 N.am      5 SEP2        0.0000 
     13 CA        -16.1185   19.6800    1.3340 C.3       3 GLC5        0.0000 
     14 CA        -14.7740   18.0670    1.5430 C.3       9 GLL5        0.0000 
     15 O         -15.6405   18.8475    5.6245 O.2       1 ALC1        0.0000 
     16 O         -16.8280   18.9700    4.3850 O.2       7 ALL1        0.0000 
     17 O         -14.4530   18.7250    6.8640 O.2       4 ALP1        0.0000 
     18 O         -16.7110   19.0900    5.6470 O.2       1 ALC1        0.0000 
     19 O         -16.5940   19.2100    6.9090 O.2       4 ALP1        0.0000 
     20 O         -16.3055   18.5570   -0.1340 O.2       1 ALC1        0.0000 
     21 O         -14.8360   18.1120    0.2150 O.2       7 ALL1        0.0000 
     22 O         -17.7750   19.0020   -0.4830 O.2       4 ALP1        0.0000 
     23 O         -14.3715   17.8160   -1.1090 O.2       1 ALC1        0.0000 
     24 O         -13.9070   17.5200   -2.4330 O.2       4 ALP1        0.0000 
     25 O         -15.2030   19.0430   -0.8275 O.2       1 ALC1        0.0000 
     26 O         -15.5700   19.9740   -1.8700 O.2       4 ALP1        0.0000 
     27 CA        -14.1260   15.8060    1.4560 C.3       3 GLC5        0.0000 
     28 CA        -12.5610   17.0680    1.4020 C.3       9 GLL5        0.0000 
     29 CA        -15.6910   14.5440    1.5100 C.3       6 GLP5        0.0000 
     30 CA        -10.9580   17.9565   -1.0155 C.3       3 GLC5        0.0000 
     31 CA        -10.5280   16.1610   -0.0870 C.3       9 GLL5        0.0000 
     32 CA        -11.3880   19.7520   -1.9440 C.3       6 GLP5        0.0000 
     33 CA         -9.4515   13.8340   -1.5380 C.3       3 GLC5        0.0000 
     34 CA        -11.0610   15.0720   -1.0190 C.3       9 GLL5        0.0000 
     35 CA         -7.8420   12.5960   -2.0570 C.3       6 GLP5        0.0000 
     36 CA        -12.4835   14.1315   -1.7935 C.3       3 GLC5        0.0000 
     37 CA        -13.9060   13.1910   -2.5680 C.3       6 GLP5        0.0000 
     38 CA         -6.2165   14.1010   -0.0055 C.3       3 GLC5        0.0000 
     39 CA         -7.0280   15.5800    1.3510 C.3       9 GLL5        0.0000 
     40 CA         -5.4050   12.6220   -1.3620 C.3       6 GLP5        0.0000 
     41 CA        -10.8180   19.5640    4.2120 C.3       3 GLC5        0.0000 
     42 CA        -11.4360   18.0310    4.8640 C.3       9 GLL5        0.0000 
     43 CA        -10.2000   21.0970    3.5600 C.3       6 GLP5        0.0000 
     44 CA        -14.3193   15.8245    4.2850 C.3       3 GLC5        0.0000 
     45 CA        -12.3820   16.9430    4.3640 C.3       9 GLL5        0.0000 
     46 CA        -10.2780   10.4283    2.2893 C.3       3 GLC5        0.0000 
     47 CA         -9.5380   12.0320    3.2400 C.3       9 GLL5        0.0000 
     48 CA        -10.9060    9.3000    0.8400 C.3       6 GLP5        0.0000 
     49 CA        -11.2400   16.6160    6.4080 C.3       3 GLC5        0.0000 
     50 CA        -10.5710   15.7450    8.2020 C.3       6 GLP5        0.0000 
     51 CA        -12.1152   18.4750    0.1295 C.3       3 GLC5        0.0000 
     52 CA        -12.1340   20.0890   -0.8130 C.3       6 GLP5        0.0000 
     53 CA        -10.4413   15.9783   -2.4780 C.3       3 GLC5        0.0000 
     54 CA        -10.0880   16.3400   -4.4030 C.3       6 GLP5        0.0000 
     55 CA         -8.2888   14.2153   -0.6883 C.3       3 GLC5        0.0000 
     56 CA         -9.3860   15.6050    0.7860 C.3       9 GLL5        0.0000 
     57 CA         -5.8415   13.7735    1.6390 C.3       3 GLC5        0.0000 
     58 CA         -4.5290   12.4470    1.4360 C.3       6 GLP5        0.0000 
     59 CA         -9.7640   13.0723    6.8390 C.3       3 GLC5        0.0000 
     60 CA         -8.3430   13.3580    4.8440 C.3       9 GLL5        0.0000 
     61 CA        -11.0560   13.2830    8.3610 C.3       6 GLP5        0.0000 
@<TRIPOS>BOND
@<TRIPOS>SUBSTRUCTURE
     1 ALC1       15 GROUP        1 X    ALC  0     ROOT ALC X 1
     2 SEC2       10 GROUP        1 X    SEC  0     **** SEC X 2
     3 GLC5        1 GROUP        1 X    GLC  0     **** GLC X 6
     4 ALP1       17 GROUP        1 Y    ALP  0     ROOT ALP Y 8
     5 SEP2       12 GROUP        1 Y    SEP  0     **** SEP Y 9
     6 GLP5        3 GROUP        1 Y    GLP  0     **** GLP Y 13
     7 ALL1       16 GROUP        1 Z    ALL  0     ROOT ALL Z 15
     8 SEL2       11 GROUP        1 Z    SEL  0     **** SEL Z 16
     9 GLL5        2 GROUP        1 Z    GLL  0     **** GLL Z 20
@<TRIPOS>SET

