#    Name: 4h95_06U_1_ligand
#    Modification time : Tue Mar 25 00:42:44 2014

@<TRIPOS>MOLECULE
4h95_06U_1_ligand
   51    53     1     0     0
SMALL
NO_CHARGES


@<TRIPOS>ATOM
      1 N1        -15.8520   18.5460    2.2910 N.ar      1 06U202      0.0000 
      2 C2        -15.8000   18.5110    3.6820 C.ar      1 06U202      0.0000 
      3 N3        -14.6670   17.9950    4.3230 N.ar      1 06U202      0.0000 
      4 C4        -13.5780   17.5110    3.5800 C.ar      1 06U202      0.0000 
      5 C5        -13.6500   17.5530    2.1860 C.ar      1 06U202      0.0000 
      6 C6        -14.7740   18.0670    1.5430 C.ar      1 06U202      0.0000 
      7 CAA        -9.5380   12.0320    3.2400 C.ar      1 06U202      0.0000 
      8 NAH       -16.8280   18.9700    4.3850 N.pl3     1 06U202      0.0000 
      9 CAI       -12.3820   16.9430    4.3640 C.3       1 06U202      0.0000 
     10 NAJ       -14.8360   18.1120    0.2150 N.pl3     1 06U202      0.0000 
     11 CAK       -12.5610   17.0680    1.4020 C.1       1 06U202      0.0000 
     12 CAL       -11.6320   16.6540    0.7420 C.1       1 06U202      0.0000 
     13 CAM       -10.5280   16.1610   -0.0870 C.3       1 06U202      0.0000 
     14 CAN       -11.0610   15.0720   -1.0190 C.3       1 06U202      0.0000 
     15 CAO        -9.3860   15.6050    0.7860 C.ar      1 06U202      0.0000 
     16 CAP        -8.0850   16.0640    0.5750 C.ar      1 06U202      0.0000 
     17 CAQ        -7.0280   15.5800    1.3510 C.ar      1 06U202      0.0000 
     18 CAR        -7.2800   14.6200    2.3330 C.ar      1 06U202      0.0000 
     19 CAS        -8.5810   14.1520    2.5550 C.ar      1 06U202      0.0000 
     20 CAT        -9.6310   14.6480    1.7750 C.ar      1 06U202      0.0000 
     21 CAU        -8.8210   13.1910    3.5420 C.ar      1 06U202      0.0000 
     22 CAV        -8.3430   13.3580    4.8440 C.ar      1 06U202      0.0000 
     23 CAW        -8.6010   12.3650    5.7900 C.ar      1 06U202      0.0000 
     24 NAX        -9.2930   11.2750    5.4650 N.ar      1 06U202      0.0000 
     25 CAY        -9.7620   11.0810    4.2370 C.ar      1 06U202      0.0000 
     26 CAZ       -11.4360   18.0310    4.8640 C.3       1 06U202      0.0000 
     27 OBA        -5.7510   16.0240    1.1380 O.3       1 06U202      0.0000 
     28 CBB        -5.4470   17.2780    1.7760 C.3       1 06U202      0.0000 
     29 H          -9.8972   11.8804    2.2936 H         1 06U202      0.0000 
     30 H         -17.5987   19.3259    3.8564 H         1 06U202      0.0000 
     31 H         -16.7389   18.9184    5.3797 H         1 06U202      0.0000 
     32 H         -11.8301   16.2538    3.7151 H         1 06U202      0.0000 
     33 H         -12.7601   16.3713    5.2189 H         1 06U202      0.0000 
     34 H         -14.0409   17.7547   -0.2750 H         1 06U202      0.0000 
     35 H         -15.6722   18.4991   -0.1736 H         1 06U202      0.0000 
     36 H         -10.1319   16.9589   -0.6961 H         1 06U202      0.0000 
     37 H          -7.9015   16.7641   -0.1573 H         1 06U202      0.0000 
     38 H          -6.5033   14.2516    2.9002 H         1 06U202      0.0000 
     39 H         -10.5884   14.3063    1.9304 H         1 06U202      0.0000 
     40 H          -7.8148   14.1912    5.0981 H         1 06U202      0.0000 
     41 H          -8.2346   12.5051    6.7572 H         1 06U202      0.0000 
     42 H         -10.3014   10.2276    3.9876 H         1 06U202      0.0000 
     43 H         -10.3413   14.6999   -1.6051 H         1 06U202      0.0000 
     44 H         -11.4500   14.3046   -0.5093 H         1 06U202      0.0000 
     45 H         -11.7801   15.4181   -1.6216 H         1 06U202      0.0000 
     46 H         -10.6633   17.6476    5.3698 H         1 06U202      0.0000 
     47 H         -11.0559   18.5676    4.1106 H         1 06U202      0.0000 
     48 H         -11.8981   18.6722    5.4766 H         1 06U202      0.0000 
     49 H          -4.5069   17.5677    1.5965 H         1 06U202      0.0000 
     50 H          -6.0460   18.0122    1.4564 H         1 06U202      0.0000 
     51 H          -5.5528   17.2248    2.7690 H         1 06U202      0.0000 
@<TRIPOS>BOND
     1    2    1 ar   
     2    6    1 ar   
     3    3    2 ar   
     4    8    2 1    
     5    4    3 ar   
     6    5    4 ar   
     7    9    4 1    
     8    6    5 ar   
     9   11    5 1    
    10   10    6 1    
    11   21    7 ar   
    12   25    7 ar   
    13   29    7 1    
    14   30    8 1    
    15   31    8 1    
    16   26    9 1    
    17   32    9 1    
    18   33    9 1    
    19   34   10 1    
    20   35   10 1    
    21   12   11 3    
    22   13   12 1    
    23   14   13 1    
    24   15   13 1    
    25   36   13 1    
    26   43   14 1    
    27   44   14 1    
    28   45   14 1    
    29   16   15 ar   
    30   20   15 ar   
    31   17   16 ar   
    32   37   16 1    
    33   18   17 ar   
    34   27   17 1    
    35   19   18 ar   
    36   38   18 1    
    37   20   19 ar   
    38   21   19 1    
    39   39   20 1    
    40   22   21 ar   
    41   23   22 ar   
    42   40   22 1    
    43   24   23 ar   
    44   41   23 1    
    45   25   24 ar   
    46   42   25 1    
    47   46   26 1    
    48   47   26 1    
    49   48   26 1    
    50   28   27 1    
    51   49   28 1    
    52   50   28 1    
    53   51   28 1    
@<TRIPOS>SUBSTRUCTURE
     1 06U202      1 GROUP   
@<TRIPOS>SET

