#    Name: 3eai_328_2_INTS_M
#    Modification time : Tue Mar 25 01:21:01 2014

@<TRIPOS>MOLECULE
3eai_328_2_INTS_M
   45     0     6     0     0
SMALL
NO_CHARGES


@<TRIPOS>ATOM
      1 CA        130.8470  118.6605   81.9730 C.3       2 GLC5        0.0000 
      2 CA        130.8030  118.1170   83.9990 C.3       6 GLL5        0.0000 
      3 CA        130.8910  119.2040   79.9470 C.3       4 GLP5        0.0000 
      4 CA        131.1470  119.9465   83.0580 C.3       2 GLC5        0.0000 
      5 CA        131.4910  121.7760   82.1170 C.3       4 GLP5        0.0000 
      6 CA        126.3755  110.9260   92.8640 C.3       2 GLC5        0.0000 
      7 CA        125.4870  111.2800   94.5870 C.3       6 GLL5        0.0000 
      8 CA        127.2640  110.5720   91.1410 C.3       4 GLP5        0.0000 
      9 CA        125.5230  109.4840   94.2830 C.3       2 GLC5        0.0000 
     10 CA        125.5590  107.6880   93.9790 C.3       4 GLP5        0.0000 
     11 CA        123.6680  110.9155   94.4285 C.3       2 GLC5        0.0000 
     12 CA        121.8490  110.5510   94.2700 C.3       4 GLP5        0.0000 
     13 CA        124.7105  117.5295   90.0705 C.3       2 GLC5        0.0000 
     14 CA        125.5790  115.8040   89.7240 C.3       6 GLL5        0.0000 
     15 CA        123.8420  119.2550   90.4170 C.3       4 GLP5        0.0000 
     16 CA        123.7285  115.3630   94.6720 C.3       2 GLC5        0.0000 
     17 CA        125.2010  114.8400   95.6830 C.3       6 GLL5        0.0000 
     18 CA        122.2560  115.8860   93.6610 C.3       4 GLP5        0.0000 
     19 CA        123.2710  115.7410   96.3515 C.3       2 GLC5        0.0000 
     20 CA        121.3410  116.6420   97.0200 C.3       4 GLP5        0.0000 
     21 CA        124.4095  116.0790   93.9210 C.3       2 GLC5        0.0000 
     22 CA        125.6100  116.1400   95.3210 C.3       6 GLL5        0.0000 
     23 CA        123.2090  116.0180   92.5210 C.3       4 GLP5        0.0000 
     24 CA        124.5210  117.7875   95.4385 C.3       2 GLC5        0.0000 
     25 CA        123.4320  119.4350   95.5560 C.3       4 GLP5        0.0000 
     26 CA        126.8180  112.2625   92.4415 C.3       2 GLC5        0.0000 
     27 CA        126.3720  113.9530   93.7420 C.3       6 GLL5        0.0000 
     28 O         127.9035  116.8150   92.4450 O.2       1 ALC1        0.0000 
     29 O         127.5350  115.5460   92.2650 O.2       5 ALL1        0.0000 
     30 O         128.2720  118.0840   92.6250 O.2       3 ALP1        0.0000 
     31 CA        125.9698  114.1245   88.2537 C.3       2 GLC5        0.0000 
     32 CA        126.0790  113.1050   86.4750 C.3       4 GLP5        0.0000 
     33 CA        124.1623  115.2275   90.7097 C.3       2 GLC5        0.0000 
     34 CA        126.1420  114.4840   90.3410 C.3       6 GLL5        0.0000 
     35 CA        122.4640  115.3110   91.3870 C.3       4 GLP5        0.0000 
     36 CA        127.0575  112.5832   90.9183 C.3       2 GLC5        0.0000 
     37 CA        123.6420  113.5883   96.2653 C.3       2 GLC5        0.0000 
     38 CA        125.5810  113.7370   94.9000 C.3       6 GLL5        0.0000 
     39 CA        121.8930  112.8880   97.2390 C.3       4 GLP5        0.0000 
     40 CA        127.1232  114.8222   86.4797 C.3       2 GLC5        0.0000 
     41 CA        127.5580  116.9280   86.5330 C.3       6 GLL5        0.0000 
     42 CA        126.5948  117.0679   84.5046 C.3       2 GLC5        0.0000 
     43 CA        125.4270  116.5080   83.0780 C.3       4 GLP5        0.0000 
     44 CA        124.7884  115.2892   93.1912 C.3       2 GLC5        0.0000 
     45 CA        126.7590  115.2760   93.4020 C.3       6 GLL5        0.0000 
@<TRIPOS>BOND
@<TRIPOS>SUBSTRUCTURE
     1 ALC1       28 GROUP        1 X    ALC  0     ROOT ALC X 1
     2 GLC5        1 GROUP        1 X    GLC  0     **** GLC X 6
     3 ALP1       30 GROUP        1 Y    ALP  0     ROOT ALP Y 8
     4 GLP5        3 GROUP        1 Y    GLP  0     **** GLP Y 13
     5 ALL1       29 GROUP        1 Z    ALL  0     ROOT ALL Z 15
     6 GLL5        2 GROUP        1 Z    GLL  0     **** GLL Z 20
@<TRIPOS>SET

