#    Name: 3eai_328_2_ligand
#    Modification time : Tue Mar 25 01:21:01 2014

@<TRIPOS>MOLECULE
3eai_328_2_ligand
   45    47     1     0     0
SMALL
NO_CHARGES


@<TRIPOS>ATOM
      1 C1        127.4230  118.1260   85.7570 C.ar      1 3282905     0.0000 
      2 C2        128.5110  118.5290   84.9020 C.ar      1 3282905     0.0000 
      3 C3        129.7200  117.7330   84.8310 C.ar      1 3282905     0.0000 
      4 C7        130.8030  118.1170   83.9990 C.1       1 3282905     0.0000 
      5 C9        125.4870  111.2800   94.5870 C.3       1 3282905     0.0000 
      6 C10       125.5790  115.8040   89.7240 C.3       1 3282905     0.0000 
      7 C12       127.9650  116.6580   89.5260 C.3       1 3282905     0.0000 
      8 C13       128.5540  115.3500   90.0700 C.3       1 3282905     0.0000 
      9 C14       127.5600  114.7050   91.0500 C.3       1 3282905     0.0000 
     10 C15       126.1420  114.4840   90.3410 C.3       1 3282905     0.0000 
     11 C16       126.4620  116.4390   87.4690 C.2       1 3282905     0.0000 
     12 C19       125.5810  113.7370   94.9000 C.ar      1 3282905     0.0000 
     13 C20       125.2010  114.8400   95.6830 C.ar      1 3282905     0.0000 
     14 C21       125.6100  116.1400   95.3210 C.ar      1 3282905     0.0000 
     15 C24       126.3720  113.9530   93.7420 C.ar      1 3282905     0.0000 
     16 N25       131.6900  118.4120   83.3290 N.1       1 3282905     0.0000 
     17 C6        127.5580  116.9280   86.5330 C.ar      1 3282905     0.0000 
     18 C5        128.7770  116.1510   86.4360 C.ar      1 3282905     0.0000 
     19 C4        129.8420  116.5530   85.5950 C.ar      1 3282905     0.0000 
     20 N17       127.5350  115.5460   92.2650 N.pl3     1 3282905     0.0000 
     21 N11       126.6730  116.3110   88.8500 N.am      1 3282905     0.0000 
     22 O8        125.4050  116.1610   86.9490 O.2       1 3282905     0.0000 
     23 O18       125.1570  112.4830   95.3070 O.3       1 3282905     0.0000 
     24 C23       126.7590  115.2760   93.4020 C.ar      1 3282905     0.0000 
     25 N22       126.3690  116.3190   94.2040 N.ar      1 3282905     0.0000 
     26 H         126.5848  118.6780   85.8061 H         1 3282905     0.0000 
     27 H         128.4337  119.3721   84.3466 H         1 3282905     0.0000 
     28 H         125.3733  116.4830   90.5183 H         1 3282905     0.0000 
     29 H         124.7109  115.5636   89.1559 H         1 3282905     0.0000 
     30 H         128.6549  117.0854   88.8199 H         1 3282905     0.0000 
     31 H         127.7900  117.3310   90.3468 H         1 3282905     0.0000 
     32 H         129.4796  115.5613   90.5885 H         1 3282905     0.0000 
     33 H         128.7373  114.6699   89.2489 H         1 3282905     0.0000 
     34 H         127.9541  113.7150   91.2911 H         1 3282905     0.0000 
     35 H         126.2714  113.7462   89.5587 H         1 3282905     0.0000 
     36 H         125.4508  114.1103   91.0865 H         1 3282905     0.0000 
     37 H         124.6260  114.7019   96.5186 H         1 3282905     0.0000 
     38 H         125.3265  116.9323   95.9095 H         1 3282905     0.0000 
     39 H         126.6579  113.1714   93.1634 H         1 3282905     0.0000 
     40 H         128.8558  115.2951   86.9935 H         1 3282905     0.0000 
     41 H         130.6904  115.9927   85.5429 H         1 3282905     0.0000 
     42 H         128.1473  116.3928   92.2467 H         1 3282905     0.0000 
     43 H         126.4755  111.1383   94.5338 H         1 3282905     0.0000 
     44 H         125.0975  110.4682   95.0220 H         1 3282905     0.0000 
     45 H         125.1432  111.3029   93.6482 H         1 3282905     0.0000 
@<TRIPOS>BOND
     1    2    1 ar   
     2   17    1 ar   
     3   26    1 1    
     4    3    2 ar   
     5   27    2 1    
     6    4    3 1    
     7   19    3 ar   
     8   16    4 3    
     9   23    5 1    
    10   43    5 1    
    11   44    5 1    
    12   45    5 1    
    13   10    6 1    
    14   21    6 1    
    15   28    6 1    
    16   29    6 1    
    17    8    7 1    
    18   21    7 1    
    19   30    7 1    
    20   31    7 1    
    21    9    8 1    
    22   32    8 1    
    23   33    8 1    
    24   10    9 1    
    25   20    9 1    
    26   34    9 1    
    27   35   10 1    
    28   36   10 1    
    29   17   11 1    
    30   21   11 am   
    31   22   11 2    
    32   13   12 ar   
    33   15   12 ar   
    34   23   12 1    
    35   14   13 ar   
    36   37   13 1    
    37   25   14 ar   
    38   38   14 1    
    39   24   15 ar   
    40   39   15 1    
    41   18   17 ar   
    42   19   18 ar   
    43   40   18 1    
    44   41   19 1    
    45   24   20 1    
    46   42   20 1    
    47   25   24 ar   
@<TRIPOS>SUBSTRUCTURE
     1 3282905     1 GROUP   
@<TRIPOS>SET

