#    Name: 3rml_M31_1_INTS_M
#    Modification time : Tue Mar 25 11:42:00 2014

@<TRIPOS>MOLECULE
3rml_M31_1_INTS_M
   82     0     9     0     0
SMALL
NO_CHARGES


@<TRIPOS>ATOM
      1 CA         17.7255  -13.6550   26.9195 C.3       3 GLC5        0.0000 
      2 CA         18.4540  -15.4600   26.2810 C.3       9 GLL5        0.0000 
      3 CA         16.9970  -11.8500   27.5580 C.3       6 GLP5        0.0000 
      4 CA         16.6615  -15.8385   27.3755 C.3       3 GLC5        0.0000 
      5 CA         14.8690  -16.2170   28.4700 C.3       6 GLP5        0.0000 
      6 O          15.5935  -14.4035   24.3460 O.2       1 ALC1        0.0000 
      7 O          17.0310  -14.6910   24.1780 O.2       7 ALL1        0.0000 
      8 O          14.1560  -14.1160   24.5140 O.2       4 ALP1        0.0000 
      9 N          15.3650  -12.0545   23.8995 N.am      2 SEC2        0.0000 
     10 N          16.1420  -12.6410   22.7820 N.am      8 SEL2        0.0000 
     11 N          14.5880  -11.4680   25.0170 N.am      5 SEP2        0.0000 
     12 CA         18.9815  -10.4585   21.7625 C.3       3 GLC5        0.0000 
     13 CA         17.4290  -11.4220   20.6190 C.3       9 GLL5        0.0000 
     14 CA         20.5340   -9.4950   22.9060 C.3       6 GLP5        0.0000 
     15 CA         17.3915  -10.8295   22.6455 C.3       3 GLC5        0.0000 
     16 CA         17.3540  -10.2370   24.6720 C.3       6 GLP5        0.0000 
     17 CA         21.0575  -13.0765   19.1290 C.3       3 GLC5        0.0000 
     18 CA         19.4970  -12.2330   19.6730 C.3       9 GLL5        0.0000 
     19 CA         22.6180  -13.9200   18.5850 C.3       6 GLP5        0.0000 
     20 CA         20.0155  -10.8640   21.2895 C.3       3 GLC5        0.0000 
     21 CA         21.0685  -13.3650   20.3025 C.3       3 GLC5        0.0000 
     22 CA         19.0890  -13.2070   20.7650 C.3       9 GLL5        0.0000 
     23 CA         23.0480  -13.5230   19.8400 C.3       6 GLP5        0.0000 
     24 O          16.0495   -9.2630   21.3905 O.2       1 ALC1        0.0000 
     25 O          15.3040  -10.2710   20.6150 O.2       7 ALL1        0.0000 
     26 O          16.7950   -8.2550   22.1660 O.2       4 ALP1        0.0000 
     27 CA         12.6520  -10.8190   18.6580 C.3       3 GLC5        0.0000 
     28 CA         13.8860  -10.0940   20.3710 C.3       9 GLL5        0.0000 
     29 CA         11.4180  -11.5440   16.9450 C.3       6 GLP5        0.0000 
     30 CA         12.2970  -13.1665   19.2685 C.3       3 GLC5        0.0000 
     31 CA         12.2680  -12.4590   21.1600 C.3       9 GLL5        0.0000 
     32 CA         12.3260  -13.8740   17.3770 C.3       6 GLP5        0.0000 
     33 CA         10.5475  -13.1840   21.0050 C.3       3 GLC5        0.0000 
     34 CA          8.8270  -13.9090   20.8500 C.3       6 GLP5        0.0000 
     35 O          11.8825  -13.9160   22.7675 O.2       1 ALC1        0.0000 
     36 O          13.0750  -13.4620   21.8540 O.2       7 ALL1        0.0000 
     37 O          10.6900  -14.3700   23.6810 O.2       4 ALP1        0.0000 
     38 CA         10.1465  -12.5270   21.9850 C.3       3 GLC5        0.0000 
     39 CA         11.4660  -11.1450   23.1200 C.3       9 GLL5        0.0000 
     40 CA         11.2730   -9.2295   25.8910 C.3       3 GLC5        0.0000 
     41 CA         11.4190   -9.9940   23.9000 C.3       9 GLL5        0.0000 
     42 CA         11.1270   -8.4650   27.8820 C.3       6 GLP5        0.0000 
     43 CA         10.7135   -7.2415   23.2845 C.3       3 GLC5        0.0000 
     44 CA         12.1880   -7.4370   24.5200 C.3       9 GLL5        0.0000 
     45 CA          9.2390   -7.0460   22.0490 C.3       6 GLP5        0.0000 
     46 CA         11.6575   -7.9510   26.2010 C.3       3 GLC5        0.0000 
     47 CA         13.3540   -7.1210   26.4170 C.3       3 GLC5        0.0000 
     48 CA         14.5200   -6.8050   28.3140 C.3       6 GLP5        0.0000 
     49 CA         11.2870   -5.8655   25.2940 C.3       3 GLC5        0.0000 
     50 CA         10.3860   -4.2940   26.0680 C.3       6 GLP5        0.0000 
     51 CA         18.8167  -11.5843   25.2270 C.3       3 GLC5        0.0000 
     52 CA         19.7270  -13.2970   25.9970 C.3       9 GLL5        0.0000 
     53 CA         22.6465  -11.9983   26.3953 C.3       3 GLC5        0.0000 
     54 CA         20.8320  -12.5660   25.5670 C.3       9 GLL5        0.0000 
     55 CA         23.9320  -11.1050   27.5360 C.3       6 GLP5        0.0000 
     56 CA         21.6665  -11.2043   24.3453 C.3       3 GLC5        0.0000 
     57 CA         21.8900  -13.2170   24.9420 C.3       9 GLL5        0.0000 
     58 CA         21.9720   -9.5170   23.4360 C.3       6 GLP5        0.0000 
     59 CA         20.5780  -15.1683   27.3941 C.3       3 GLC5        0.0000 
     60 CA         19.6720  -14.6830   25.8110 C.3       9 GLL5        0.0000 
     61 CA         21.0910  -15.5800   29.1850 C.3       6 GLP5        0.0000 
     62 CA         18.8969  -10.1136   18.9453 C.3       3 GLC5        0.0000 
     63 CA         19.1330   -8.3850   18.0710 C.3       6 GLP5        0.0000 
     64 CA         18.5124  -13.5525   18.7070 C.3       3 GLC5        0.0000 
     65 CA         18.2200  -11.4810   19.3130 C.3       9 GLL5        0.0000 
     66 CA         18.0510  -14.5730   17.2850 C.3       6 GLP5        0.0000 
     67 CA         12.7785   -7.5757   21.6137 C.3       3 GLC5        0.0000 
     68 CA         13.0290  -10.0880   21.6140 C.3       9 GLL5        0.0000 
     69 CA         12.5410   -5.6370   21.2220 C.3       6 GLP5        0.0000 
     70 CA         14.4975   -9.5732   23.1672 C.3       3 GLC5        0.0000 
     71 CA         13.0030   -8.9410   22.3970 C.3       9 GLL5        0.0000 
     72 CA         15.9790   -9.6320   24.3290 C.3       6 GLP5        0.0000 
     73 CA         12.7470  -11.6735   24.1925 C.3       3 GLC5        0.0000 
     74 CA         12.2580  -11.1810   21.9800 C.3       9 GLL5        0.0000 
     75 CA         13.6320  -12.1840   25.8350 C.3       6 GLP5        0.0000 
     76 CA         10.4759  -11.0474   21.0326 C.3       3 GLC5        0.0000 
     77 CA          8.9910  -10.7490   19.7660 C.3       6 GLP5        0.0000 
     78 CA         12.7205  -10.8195   24.7728 C.3       3 GLC5        0.0000 
     79 CA         12.1990   -8.9160   23.5210 C.3       9 GLL5        0.0000 
     80 CA         12.3673   -6.9068   22.6213 C.3       3 GLC5        0.0000 
     81 CA         14.0862   -8.9043   24.1748 C.3       3 GLC5        0.0000 
     82 CA         10.8225   -8.1220   22.5514 C.3       3 GLC5        0.0000 
@<TRIPOS>BOND
@<TRIPOS>SUBSTRUCTURE
     1 ALC1        6 GROUP        1 X    ALC  0     ROOT ALC X 1
     2 SEC2        9 GROUP        1 X    SEC  0     **** SEC X 2
     3 GLC5        1 GROUP        1 X    GLC  0     **** GLC X 6
     4 ALP1        8 GROUP        1 Y    ALP  0     ROOT ALP Y 8
     5 SEP2       11 GROUP        1 Y    SEP  0     **** SEP Y 9
     6 GLP5        3 GROUP        1 Y    GLP  0     **** GLP Y 13
     7 ALL1        7 GROUP        1 Z    ALL  0     ROOT ALL Z 15
     8 SEL2       10 GROUP        1 Z    SEL  0     **** SEL Z 16
     9 GLL5        2 GROUP        1 Z    GLL  0     **** GLL Z 20
@<TRIPOS>SET

