#    Name: 3rml_M31_1_ligand
#    Modification time : Tue Mar 25 11:42:00 2014

@<TRIPOS>MOLECULE
3rml_M31_1_ligand
   60    62     1     0     0
SMALL
NO_CHARGES


@<TRIPOS>ATOM
      1 C7         18.4540  -15.4600   26.2810 C.3       1 M311        0.0000 
      2 S8         17.4900  -15.9820   25.0140 S.o2      1 M311        0.0000 
      3 C6         19.6720  -14.6830   25.8110 C.ar      1 M311        0.0000 
      4 C1         19.7270  -13.2970   25.9970 C.ar      1 M311        0.0000 
      5 C2         20.8320  -12.5660   25.5670 C.ar      1 M311        0.0000 
      6 C30        21.8900  -13.2170   24.9420 C.ar      1 M311        0.0000 
      7 C4         21.8410  -14.5980   24.7610 C.ar      1 M311        0.0000 
      8 C5         20.7350  -15.3290   25.1850 C.ar      1 M311        0.0000 
      9 O13        18.1790  -16.8840   24.1400 O.2       1 M311        0.0000 
     10 O14        16.3180  -16.6130   25.5430 O.2       1 M311        0.0000 
     11 N9         17.0310  -14.6910   24.1780 N.pl3     1 M311        0.0000 
     12 C10        17.7310  -14.3930   22.9520 C.3       1 M311        0.0000 
     13 C11        17.1650  -13.1320   22.3330 C.2       1 M311        0.0000 
     14 O15        16.1420  -12.6410   22.7820 O.2       1 M311        0.0000 
     15 N12        17.8660  -12.6300   21.3300 N.am      1 M311        0.0000 
     16 C16        17.4290  -11.4220   20.6190 C.3       1 M311        0.0000 
     17 C17        15.9520  -11.4020   20.3240 C.2       1 M311        0.0000 
     18 O18        15.3560  -12.3700   19.8520 O.2       1 M311        0.0000 
     19 C21        18.2200  -11.4810   19.3130 C.3       1 M311        0.0000 
     20 C22        19.4970  -12.2330   19.6730 C.3       1 M311        0.0000 
     21 C23        19.0890  -13.2070   20.7650 C.3       1 M311        0.0000 
     22 N19        15.3040  -10.2710   20.6150 N.am      1 M311        0.0000 
     23 C20        13.8860  -10.0940   20.3710 C.3       1 M311        0.0000 
     24 C24        13.0290  -10.0880   21.6140 C.ar      1 M311        0.0000 
     25 C25        12.2580  -11.1810   21.9800 C.ar      1 M311        0.0000 
     26 C26        12.2680  -12.4590   21.1600 C.3       1 M311        0.0000 
     27 N32        13.0750  -13.4620   21.8540 N.4       1 M311        0.0000 
     28 C27        11.4660  -11.1450   23.1200 C.ar      1 M311        0.0000 
     29 C28        11.4190   -9.9940   23.9000 C.ar      1 M311        0.0000 
     30 C29        12.1990   -8.9160   23.5210 C.ar      1 M311        0.0000 
     31 CL3        12.1880   -7.4370   24.5200 Cl        1 M311        0.0000 
     32 C31        13.0030   -8.9410   22.3970 C.ar      1 M311        0.0000 
     33 H          18.7365  -16.3583   26.8180 H         1 M311        0.0000 
     34 H          17.8082  -14.8513   26.9034 H         1 M311        0.0000 
     35 H          18.9404  -12.8149   26.4572 H         1 M311        0.0000 
     36 H          20.8642  -11.5504   25.7114 H         1 M311        0.0000 
     37 H          22.7034  -12.6845   24.6152 H         1 M311        0.0000 
     38 H          22.6318  -15.0820   24.3087 H         1 M311        0.0000 
     39 H          20.7026  -16.3453   25.0362 H         1 M311        0.0000 
     40 H          16.2969  -14.1731   24.5476 H         1 M311        0.0000 
     41 H          17.6271  -15.2086   22.2280 H         1 M311        0.0000 
     42 H          18.8001  -14.2374   23.1338 H         1 M311        0.0000 
     43 H          17.7308  -10.5492   21.1424 H         1 M311        0.0000 
     44 H          18.4594  -10.4954   18.9936 H         1 M311        0.0000 
     45 H          17.6713  -12.0291   18.5855 H         1 M311        0.0000 
     46 H          20.2229  -11.5481   20.0498 H         1 M311        0.0000 
     47 H          19.8500  -12.7694   18.8212 H         1 M311        0.0000 
     48 H          18.8986  -14.1648   20.3253 H         1 M311        0.0000 
     49 H          19.8686  -13.2567   21.4976 H         1 M311        0.0000 
     50 H          15.7988   -9.4495   21.0387 H         1 M311        0.0000 
     51 H          13.5056  -10.8960   19.6943 H         1 M311        0.0000 
     52 H          13.7029   -9.1397   19.8219 H         1 M311        0.0000 
     53 H          12.6833  -12.2386   20.1773 H         1 M311        0.0000 
     54 H          11.2413  -12.8026   21.0389 H         1 M311        0.0000 
     55 H          10.9129  -11.9699   23.3891 H         1 M311        0.0000 
     56 H          10.8267   -9.9498   24.7250 H         1 M311        0.0000 
     57 H          13.5710   -8.1293   22.1432 H         1 M311        0.0000 
     58 H          13.8067  -13.0429   22.3916 H         1 M311        0.0000 
     59 H          12.5250  -14.0099   22.4844 H         1 M311        0.0000 
     60 H          13.5081  -14.0973   21.2147 H         1 M311        0.0000 
@<TRIPOS>BOND
     1    2    1 1    
     2    3    1 1    
     3   33    1 1    
     4   34    1 1    
     5    9    2 2    
     6   10    2 2    
     7   11    2 1    
     8    4    3 ar   
     9    8    3 ar   
    10    5    4 ar   
    11   35    4 1    
    12    6    5 ar   
    13   36    5 1    
    14    7    6 ar   
    15   37    6 1    
    16    8    7 ar   
    17   38    7 1    
    18   39    8 1    
    19   12   11 1    
    20   40   11 1    
    21   13   12 1    
    22   41   12 1    
    23   42   12 1    
    24   14   13 2    
    25   15   13 am   
    26   16   15 1    
    27   21   15 1    
    28   17   16 1    
    29   19   16 1    
    30   43   16 1    
    31   18   17 2    
    32   22   17 am   
    33   20   19 1    
    34   44   19 1    
    35   45   19 1    
    36   21   20 1    
    37   46   20 1    
    38   47   20 1    
    39   48   21 1    
    40   49   21 1    
    41   23   22 1    
    42   50   22 1    
    43   24   23 1    
    44   51   23 1    
    45   52   23 1    
    46   25   24 ar   
    47   32   24 ar   
    48   26   25 1    
    49   28   25 ar   
    50   27   26 1    
    51   53   26 1    
    52   54   26 1    
    53   58   27 1    
    54   59   27 1    
    55   60   27 1    
    56   29   28 ar   
    57   55   28 1    
    58   30   29 ar   
    59   56   29 1    
    60   31   30 1    
    61   32   30 ar   
    62   57   32 1    
@<TRIPOS>SUBSTRUCTURE
     1 M311        1 GROUP   
@<TRIPOS>SET

