#    Name: 3h7r_NAP_1_INTS_M
#    Modification time : Tue Mar 25 13:43:21 2014

@<TRIPOS>MOLECULE
3h7r_NAP_1_INTS_M
  120     0    12     0     0
SMALL
NO_CHARGES


@<TRIPOS>ATOM
      1 N          62.4745    1.0305   28.2335 N.am      2 SEC2        0.0000 
      2 N          62.1250    2.3720   27.6810 N.am     10 SEL2        0.0000 
      3 N          62.8240   -0.3110   28.7860 N.am      6 SEP2        0.0000 
      4 N          60.8225    2.6280   28.3675 N.am      2 SEC2        0.0000 
      5 N          59.5200    2.8840   29.0540 N.am      6 SEP2        0.0000 
      6 N          65.4645    3.5180   25.8580 N.am      2 SEC2        0.0000 
      7 N          64.2270    3.0120   26.4400 N.am     10 SEL2        0.0000 
      8 N          66.7020    4.0240   25.2760 N.am      6 SEP2        0.0000 
      9 CA         64.8560    6.9550   27.3665 C.3       4 GLC5        0.0000 
     10 CA         63.9750    5.4740   28.5870 C.3      12 GLL5        0.0000 
     11 CA         65.7370    8.4360   26.1460 C.3       8 GLP5        0.0000 
     12 CA         63.7975    5.9480   32.2415 C.3       4 GLC5        0.0000 
     13 CA         65.7530    6.1570   31.3570 C.3      12 GLL5        0.0000 
     14 CA         61.8420    5.7390   33.1260 C.3       8 GLP5        0.0000 
     15 N          69.4955    3.3155   29.7400 N.am      2 SEC2        0.0000 
     16 N          68.7050    4.0790   30.8030 N.am     10 SEL2        0.0000 
     17 N          70.2860    2.5520   28.6770 N.am      6 SEP2        0.0000 
     18 CA         70.6100    4.7070   32.9365 C.3       4 GLC5        0.0000 
     19 CA         69.3540    3.3020   33.0710 C.3      12 GLL5        0.0000 
     20 CA         71.8660    6.1120   32.8020 C.3       8 GLP5        0.0000 
     21 O          71.2670    1.7190   33.5985 O.2       1 ALC1        0.0000 
     22 O          70.4150    2.5380   32.7410 O.2       9 ALL1        0.0000 
     23 O          72.1190    0.9000   34.4560 O.2       5 ALP1        0.0000 
     24 O          70.6805    1.8370   31.5240 O.2       1 ALC1        0.0000 
     25 O          70.9460    1.1360   30.3070 O.2       5 ALP1        0.0000 
     26 CA         66.0280    3.3905   34.6925 C.3       4 GLC5        0.0000 
     27 CA         67.8820    4.1620   34.7470 C.3      12 GLL5        0.0000 
     28 CA         64.1740    2.6190   34.6380 C.3       8 GLP5        0.0000 
     29 CA         69.2340    5.5390   33.8325 C.3       4 GLC5        0.0000 
     30 CA         70.5860    6.9160   32.9180 C.3       8 GLP5        0.0000 
     31 CA         65.8330    3.6855   33.5820 C.3       4 GLC5        0.0000 
     32 CA         67.4920    4.7520   32.5260 C.3      12 GLL5        0.0000 
     33 N          62.3550    7.4365   24.9135 N.am      2 SEC2        0.0000 
     34 N          62.2030    6.1030   24.5660 N.am     10 SEL2        0.0000 
     35 N          62.5070    8.7700   25.2610 N.am      6 SEP2        0.0000 
     36 N          59.3450    3.7510   25.1995 N.am      2 SEC2        0.0000 
     37 N          60.0740    4.9310   25.3780 N.am     10 SEL2        0.0000 
     38 N          58.6160    2.5710   25.0210 N.am      6 SEP2        0.0000 
     39 N          59.6490    5.7135   26.8285 N.am      2 SEC2        0.0000 
     40 N          59.2240    6.4960   28.2790 N.am      6 SEP2        0.0000 
     41 N          61.2095    2.1330   24.1260 N.am      2 SEC2        0.0000 
     42 N          61.8040    3.5940   24.2220 N.am     10 SEL2        0.0000 
     43 N          60.6150    0.6720   24.0300 N.am      6 SEP2        0.0000 
     44 CA         61.7350    2.1855   24.5070 C.3       4 GLC5        0.0000 
     45 CA         63.0590    3.3920   23.5780 C.3      12 GLL5        0.0000 
     46 CA         60.4110    0.9790   25.4360 C.3       8 GLP5        0.0000 
     47 CA         63.1040    1.6050   24.4255 C.3       4 GLC5        0.0000 
     48 CA         63.1490   -0.1820   25.2730 C.3       8 GLP5        0.0000 
     49 CA         64.3965    4.8180   24.1785 C.3       4 GLC5        0.0000 
     50 CA         65.7340    6.2440   24.7790 C.3       8 GLP5        0.0000 
     51 CA         63.9345    1.9530   21.4690 C.3       4 GLC5        0.0000 
     52 CA         62.9720    3.6780   22.0970 C.3      12 GLL5        0.0000 
     53 CA         64.8970    0.2280   20.8410 C.3       8 GLP5        0.0000 
     54 N          63.6750    7.4500   21.2580 N.am      2 SEC2        0.0000 
     55 N          63.4330    6.0980   21.9650 N.am     10 SEL2        0.0000 
     56 N          63.9170    8.8020   20.5510 N.am      6 SEP2        0.0000 
     57 CA         61.9740    6.2965   18.8450 C.3       4 GLC5        0.0000 
     58 CA         62.1770    4.8920   20.2630 C.3      12 GLL5        0.0000 
     59 CA         61.7710    7.7010   17.4270 C.3       8 GLP5        0.0000 
     60 N          64.6450    5.8885   19.7445 N.am      2 SEC2        0.0000 
     61 N          63.3810    4.8440   19.5120 N.am     10 SEL2        0.0000 
     62 N          65.9090    6.9330   19.9770 N.am      6 SEP2        0.0000 
     63 O          63.2610    4.1250   18.3835 O.2       1 ALC1        0.0000 
     64 O          63.3810    4.8440   19.5120 O.2       9 ALL1        0.0000 
     65 O          63.1410    3.4060   17.2550 O.2       5 ALP1        0.0000 
     66 CA         60.6865    1.8525   20.6895 C.3       4 GLC5        0.0000 
     67 CA         61.5210    3.5100   20.3120 C.3      12 GLL5        0.0000 
     68 CA         59.8520    0.1950   21.0670 C.3       8 GLP5        0.0000 
     69 CA         62.4665    1.6050   19.6225 C.3       4 GLC5        0.0000 
     70 CA         63.4120   -0.3000   18.9330 C.3       8 GLP5        0.0000 
     71 CA         59.8270    3.2815   17.1945 C.3       4 GLC5        0.0000 
     72 CA         59.2980    3.2540   19.3450 C.3      12 GLL5        0.0000 
     73 CA         60.3560    3.3090   15.0440 C.3       8 GLP5        0.0000 
     74 N          56.1475    4.4505   17.1025 N.am      2 SEC2        0.0000 
     75 N          55.8150    3.3290   18.2240 N.am     10 SEL2        0.0000 
     76 N          56.4800    5.5720   15.9810 N.am      6 SEP2        0.0000 
     77 N          54.7600    2.4425   17.6775 N.am      2 SEC2        0.0000 
     78 N          53.7050    1.5560   17.1310 N.am      6 SEP2        0.0000 
     79 O          57.0030    1.2305   16.5055 O.2       1 ALC1        0.0000 
     80 O          57.6160    2.1980   17.2940 O.2       9 ALL1        0.0000 
     81 O          56.3900    0.2630   15.7170 O.2       5 ALP1        0.0000 
     82 O          58.8985    1.5795   17.3715 O.2       1 ALC1        0.0000 
     83 O          60.1810    0.9610   17.4490 O.2       5 ALP1        0.0000 
     84 NZ         66.3960   10.1655   28.2245 N.4       3 LYC4        0.0000 
     85 NZ         67.2990    9.6930   29.1100 N.4      11 LYL4        0.0000 
     86 NZ         65.4930   10.6380   27.3390 N.4       7 LYP4        0.0000 
     87 N          66.3960   10.1655   28.2245 N.am      2 SEC2        0.0000 
     88 N          67.2990    9.6930   29.1100 N.am     10 SEL2        0.0000 
     89 N          65.4930   10.6380   27.3390 N.am      6 SEP2        0.0000 
     90 N          68.5140    9.8150   28.3335 N.am      2 SEC2        0.0000 
     91 N          69.7290    9.9370   27.5570 N.am      6 SEP2        0.0000 
     92 NZ         68.3665    8.3870   32.4235 N.4       3 LYC4        0.0000 
     93 NZ         68.5140    8.6510   31.0530 N.4      11 LYL4        0.0000 
     94 NZ         68.9890    7.5160   34.6800 N.4       7 LYP4        0.0000 
     95 N          69.4885    8.1830   30.2365 N.am      2 SEC2        0.0000 
     96 N          68.5140    8.6510   31.0530 N.am     10 SEL2        0.0000 
     97 N          70.4630    7.7150   29.4200 N.am      6 SEP2        0.0000 
     98 N          68.3665    8.3870   32.4235 N.am      2 SEC2        0.0000 
     99 N          68.2190    8.1230   33.7940 N.am      6 SEP2        0.0000 
    100 CA         62.9718    6.2442   31.5325 C.3       4 GLC5        0.0000 
    101 CA         63.8640    6.0360   29.9860 C.3      12 GLL5        0.0000 
    102 CA         62.7726    7.4330   28.4736 C.3       4 GLC5        0.0000 
    103 CA         61.4160    8.2570   27.3580 C.3       8 GLP5        0.0000 
    104 CA         65.3953    7.9127   28.1365 C.3       4 GLC5        0.0000 
    105 CA         64.3390    7.4630   29.8920 C.3      12 GLL5        0.0000 
    106 CA         67.2297    3.1395   31.1288 C.3       4 GLC5        0.0000 
    107 CA         66.4210    1.9140   29.9240 C.3       8 GLP5        0.0000 
    108 CA         68.8528    1.7470   32.9030 C.3       4 GLC5        0.0000 
    109 CA         68.5850    3.9780   32.1410 C.3      12 GLL5        0.0000 
    110 CA         68.7360   -0.1460   33.2000 C.3       8 GLP5        0.0000 
    111 CA         69.3123    5.6405   32.6257 C.3       4 GLC5        0.0000 
    112 CA         64.6517    4.1695   21.9727 C.3       4 GLC5        0.0000 
    113 CA         66.2880    4.8040   21.1080 C.3       8 GLP5        0.0000 
    114 CA         64.3117    4.8933   21.0478 C.3       4 GLC5        0.0000 
    115 CA         62.4940    5.0730   21.7120 C.3      12 GLL5        0.0000 
    116 CA         61.9707    6.9422   21.1833 C.3       4 GLC5        0.0000 
    117 CA         61.6060    8.9020   21.3790 C.3       8 GLP5        0.0000 
    118 CA         59.2270    1.7360   20.2295 C.3       4 GLC5        0.0000 
    119 CA         59.2015    2.0299   21.2330 C.3       4 GLC5        0.0000 
    120 CA         59.4390    3.9080   21.6180 C.3      12 GLL5        0.0000 
@<TRIPOS>BOND
@<TRIPOS>SUBSTRUCTURE
     1 ALC1       21 GROUP        1 X    ALC  0     ROOT ALC X 1
     2 SEC2        1 GROUP        1 X    SEC  0     **** SEC X 2
     3 LYC4       84 GROUP        1 X    LYC  0     **** LYC X 4
     4 GLC5        9 GROUP        1 X    GLC  0     **** GLC X 6
     5 ALP1       23 GROUP        1 Y    ALP  0     ROOT ALP Y 8
     6 SEP2        3 GROUP        1 Y    SEP  0     **** SEP Y 9
     7 LYP4       86 GROUP        1 Y    LYP  0     **** LYP Y 11
     8 GLP5       11 GROUP        1 Y    GLP  0     **** GLP Y 13
     9 ALL1       22 GROUP        1 Z    ALL  0     ROOT ALL Z 15
    10 SEL2        2 GROUP        1 Z    SEL  0     **** SEL Z 16
    11 LYL4       85 GROUP        1 Z    LYL  0     **** LYL Z 18
    12 GLL5       10 GROUP        1 Z    GLL  0     **** GLL Z 20
@<TRIPOS>SET

