#    Name: 3h7r_NAP_1_ligand
#    Modification time : Tue Mar 25 13:43:21 2014

@<TRIPOS>MOLECULE
3h7r_NAP_1_ligand
   73    77     1     0     0
SMALL
NO_CHARGES


@<TRIPOS>ATOM
      1 PA         63.0530    3.4500   27.2720 P.3       1 NAP401      0.0000 
      2 O1A        62.1250    2.3720   27.6810 O.co2     1 NAP401      0.0000 
      3 O2A        64.2270    3.0120   26.4400 O.co2     1 NAP401      0.0000 
      4 O5B        63.4510    4.1790   28.6220 O.3       1 NAP401      0.0000 
      5 C5B        63.9750    5.4740   28.5870 C.3       1 NAP401      0.0000 
      6 C4B        63.8640    6.0360   29.9860 C.3       1 NAP401      0.0000 
      7 O4B        64.6670    5.3390   30.9400 O.3       1 NAP401      0.0000 
      8 C3B        64.3390    7.4630   29.8920 C.3       1 NAP401      0.0000 
      9 O3B        63.5710    8.2560   30.7690 O.3       1 NAP401      0.0000 
     10 C2B        65.7680    7.3160   30.3620 C.3       1 NAP401      0.0000 
     11 O2B        66.0840    8.5190   30.9760 O.3       1 NAP401      0.0000 
     12 C1B        65.7530    6.1570   31.3570 C.3       1 NAP401      0.0000 
     13 N9A        66.9540    5.3090   31.4110 N.pl3     1 NAP401      0.0000 
     14 C8A        67.7330    4.8730   30.3430 C.2       1 NAP401      0.0000 
     15 N7A        68.7050    4.0790   30.8030 N.2       1 NAP401      0.0000 
     16 C5A        68.5850    3.9780   32.1410 C.ar      1 NAP401      0.0000 
     17 C6A        69.3540    3.3020   33.0710 C.ar      1 NAP401      0.0000 
     18 N6A        70.4150    2.5380   32.7410 N.pl3     1 NAP401      0.0000 
     19 N1A        68.9820    3.3920   34.3940 N.ar      1 NAP401      0.0000 
     20 C2A        67.8820    4.1620   34.7470 C.ar      1 NAP401      0.0000 
     21 N3A        67.1290    4.8460   33.8300 N.ar      1 NAP401      0.0000 
     22 C4A        67.4920    4.7520   32.5260 C.ar      1 NAP401      0.0000 
     23 O3         62.2280    4.6280   26.5250 O.3       1 NAP401      0.0000 
     24 PN         61.5620    4.8920   25.1340 P.3       1 NAP401      0.0000 
     25 O1N        62.2030    6.1030   24.5660 O.co2     1 NAP401      0.0000 
     26 O2N        60.0740    4.9310   25.3780 O.co2     1 NAP401      0.0000 
     27 O5D        61.8040    3.5940   24.2220 O.3       1 NAP401      0.0000 
     28 C5D        63.0590    3.3920   23.5780 C.3       1 NAP401      0.0000 
     29 C4D        62.9720    3.6780   22.0970 C.3       1 NAP401      0.0000 
     30 O4D        62.0220    2.8610   21.4470 O.3       1 NAP401      0.0000 
     31 C3D        62.4940    5.0730   21.7120 C.3       1 NAP401      0.0000 
     32 O3D        63.4330    6.0980   21.9650 O.3       1 NAP401      0.0000 
     33 C2D        62.1770    4.8920   20.2630 C.3       1 NAP401      0.0000 
     34 O2D        63.3810    4.8440   19.5120 O.3       1 NAP401      0.0000 
     35 C1D        61.5210    3.5100   20.3120 C.3       1 NAP401      0.0000 
     36 N1N        60.0340    3.5630   20.4270 N.pl3     1 NAP401      0.0000 
     37 C2N        59.2980    3.2540   19.3450 C.ar      1 NAP401      0.0000 
     38 C3N        57.9060    3.3000   19.4390 C.ar      1 NAP401      0.0000 
     39 C7N        57.1030    2.9140   18.2780 C.2       1 NAP401      0.0000 
     40 O7N        55.8150    3.3290   18.2240 O.2       1 NAP401      0.0000 
     41 N7N        57.6160    2.1980   17.2940 N.am      1 NAP401      0.0000 
     42 C4N        57.2710    3.6750   20.6330 C.ar      1 NAP401      0.0000 
     43 C5N        58.0550    3.9680   21.7270 C.ar      1 NAP401      0.0000 
     44 C6N        59.4390    3.9080   21.6180 C.ar      1 NAP401      0.0000 
     45 P2B        67.3370    9.4120   30.5810 P.3       1 NAP401      0.0000 
     46 O1X        67.2990    9.6930   29.1100 O.co2     1 NAP401      0.0000 
     47 O2X        67.0490   10.7010   31.3670 O.co2     1 NAP401      0.0000 
     48 O3X        68.5140    8.6510   31.0530 O.co2     1 NAP401      0.0000 
     49 H          63.4206    6.1321   27.9163 H         1 NAP401      0.0000 
     50 H          65.0276    5.4922   28.3009 H         1 NAP401      0.0000 
     51 H          62.8254    6.0566   30.2647 H         1 NAP401      0.0000 
     52 H          64.3293    7.7556   28.8918 H         1 NAP401      0.0000 
     53 H          66.3685    7.0694   29.5392 H         1 NAP401      0.0000 
     54 H          65.5281    6.5620   32.3377 H         1 NAP401      0.0000 
     55 H          67.5708    5.1228   29.4248 H         1 NAP401      0.0000 
     56 H          71.1614    2.5107   33.4060 H         1 NAP401      0.0000 
     57 H          70.3611    2.0667   31.8607 H         1 NAP401      0.0000 
     58 H          67.6220    4.2175   35.7649 H         1 NAP401      0.0000 
     59 H          63.4136    2.3528   23.7036 H         1 NAP401      0.0000 
     60 H          63.8409    4.0457   24.0054 H         1 NAP401      0.0000 
     61 H          63.9457    3.5379   21.6311 H         1 NAP401      0.0000 
     62 H          61.5468    5.2222   22.2275 H         1 NAP401      0.0000 
     63 H          61.4782    5.5882   19.9621 H         1 NAP401      0.0000 
     64 H          61.7954    2.9780   19.4147 H         1 NAP401      0.0000 
     65 H          59.7309    2.9853   18.4521 H         1 NAP401      0.0000 
     66 H          56.9934    1.9686   16.5458 H         1 NAP401      0.0000 
     67 H          58.5804    1.9503   17.3865 H         1 NAP401      0.0000 
     68 H          56.2563    3.7256   20.6772 H         1 NAP401      0.0000 
     69 H          57.6233    4.2306   22.6229 H         1 NAP401      0.0000 
     70 H          60.0225    4.1263   22.4451 H         1 NAP401      0.0000 
     71 H          64.2268    8.8782   31.1965 H         1 NAP401      0.0000 
     72 H          63.2696    6.3702   22.9132 H         1 NAP401      0.0000 
     73 H          63.1541    4.3171   18.6929 H         1 NAP401      0.0000 
@<TRIPOS>BOND
     1    2    1 ar   
     2    3    1 ar   
     3    4    1 1    
     4   23    1 1    
     5    5    4 1    
     6    6    5 1    
     7   49    5 1    
     8   50    5 1    
     9    7    6 1    
    10    8    6 1    
    11   51    6 1    
    12   12    7 1    
    13    9    8 1    
    14   10    8 1    
    15   52    8 1    
    16   71    9 1    
    17   11   10 1    
    18   12   10 1    
    19   53   10 1    
    20   45   11 1    
    21   13   12 1    
    22   54   12 1    
    23   14   13 1    
    24   22   13 1    
    25   15   14 2    
    26   55   14 1    
    27   16   15 1    
    28   17   16 ar   
    29   22   16 ar   
    30   18   17 1    
    31   19   17 ar   
    32   56   18 1    
    33   57   18 1    
    34   20   19 ar   
    35   21   20 ar   
    36   58   20 1    
    37   22   21 ar   
    38   24   23 1    
    39   25   24 ar   
    40   26   24 ar   
    41   27   24 1    
    42   28   27 1    
    43   29   28 1    
    44   59   28 1    
    45   60   28 1    
    46   30   29 1    
    47   31   29 1    
    48   61   29 1    
    49   35   30 1    
    50   32   31 1    
    51   33   31 1    
    52   62   31 1    
    53   72   32 1    
    54   34   33 1    
    55   35   33 1    
    56   63   33 1    
    57   73   34 1    
    58   36   35 1    
    59   64   35 1    
    60   37   36 ar   
    61   44   36 ar   
    62   38   37 ar   
    63   65   37 1    
    64   39   38 1    
    65   42   38 ar   
    66   40   39 2    
    67   41   39 am   
    68   66   41 1    
    69   67   41 1    
    70   43   42 ar   
    71   68   42 1    
    72   44   43 ar   
    73   69   43 1    
    74   70   44 1    
    75   46   45 ar   
    76   47   45 ar   
    77   48   45 ar   
@<TRIPOS>SUBSTRUCTURE
     1 NAP401      1 GROUP   
@<TRIPOS>SET

