#    Name: 4n3c_UD1_1_INTS_M
#    Modification time : Tue Mar 25 12:32:47 2014

@<TRIPOS>MOLECULE
4n3c_UD1_1_INTS_M
   93     0    12     0     0
SMALL
NO_CHARGES


@<TRIPOS>ATOM
      1 CA          2.7885  -36.8165   18.5070 C.3       4 GLC5        0.0000 
      2 CA          0.7880  -37.0930   18.2250 C.3      12 GLL5        0.0000 
      3 CA          4.7890  -36.5400   18.7890 C.3       8 GLP5        0.0000 
      4 CA         -7.2935  -39.8110   15.8220 C.3       4 GLC5        0.0000 
      5 CA         -6.9080  -38.6810   17.2200 C.3      12 GLL5        0.0000 
      6 CA         -7.6790  -40.9410   14.4240 C.3       8 GLP5        0.0000 
      7 CA         -8.3660  -38.3230   16.3875 C.3       4 GLC5        0.0000 
      8 CA         -9.8240  -37.9650   15.5550 C.3       8 GLP5        0.0000 
      9 O          -5.0770  -36.5065   16.2320 O.2       1 ALC1        0.0000 
     10 O          -4.7470  -37.6000   17.2160 O.2       9 ALL1        0.0000 
     11 O          -5.4070  -35.4130   15.2480 O.2       5 ALP1        0.0000 
     12 N          -0.9815  -38.1940   15.0150 N.am      2 SEC2        0.0000 
     13 N          -2.3850  -38.4670   15.6550 N.am     10 SEL2        0.0000 
     14 N           0.4220  -37.9210   14.3750 N.am      6 SEP2        0.0000 
     15 O          -4.5355  -35.2260   16.4845 O.2       1 ALC1        0.0000 
     16 O          -3.6640  -35.0390   17.7210 O.2       9 ALL1        0.0000 
     17 O          -0.7660  -33.5155   17.9380 O.2       1 ALC1        0.0000 
     18 O          -0.9140  -34.6780   17.1570 O.2       9 ALL1        0.0000 
     19 O          -0.6180  -32.3530   18.7190 O.2       5 ALP1        0.0000 
     20 O           1.8820  -36.6945   20.1350 O.2       1 ALC1        0.0000 
     21 O           0.4790  -36.9910   19.5820 O.2       9 ALL1        0.0000 
     22 O           3.2850  -36.3980   20.6880 O.2       5 ALP1        0.0000 
     23 O           2.9130  -49.0610   10.9145 O.2       1 ALC1        0.0000 
     24 O           2.0030  -48.0170   10.7850 O.2       9 ALL1        0.0000 
     25 O           3.8230  -50.1050   11.0440 O.2       5 ALP1        0.0000 
     26 CA         -1.4930  -48.0545    9.6635 C.3       4 GLC5        0.0000 
     27 CA         -0.2720  -47.1660   10.6610 C.3      12 GLL5        0.0000 
     28 CA         -2.7140  -48.9430    8.6660 C.3       8 GLP5        0.0000 
     29 CA          0.9520  -46.6190    9.4180 C.3       4 GLC5        0.0000 
     30 CA          2.1760  -46.0720    8.1750 C.3       8 GLP5        0.0000 
     31 CA          1.2445  -45.4445   10.0275 C.3       4 GLC5        0.0000 
     32 CA          0.1240  -46.0440   11.3380 C.3      12 GLL5        0.0000 
     33 CA          2.3650  -44.8450    8.7170 C.3       8 GLP5        0.0000 
     34 N           1.1935  -50.4875    9.8750 N.am      2 SEC2        0.0000 
     35 N           0.4070  -49.2310    9.7370 N.am     10 SEL2        0.0000 
     36 N           1.9800  -51.7440   10.0130 N.am      6 SEP2        0.0000 
     37 CA          3.7405  -44.2575   12.3550 C.3       4 GLC5        0.0000 
     38 CA          1.6500  -44.8600   12.8890 C.3      12 GLL5        0.0000 
     39 CA          5.8310  -43.6550   11.8210 C.3       8 GLP5        0.0000 
     40 CA          1.8020  -46.3310   14.0595 C.3       4 GLC5        0.0000 
     41 CA          1.9540  -47.8020   15.2300 C.3       8 GLP5        0.0000 
     42 N           3.5130  -42.3155   12.0385 N.am      2 SEC2        0.0000 
     43 N           2.4170  -43.0410   11.5740 N.am     10 SEL2        0.0000 
     44 N           4.6090  -41.5900   12.5030 N.am      6 SEP2        0.0000 
     45 O           2.0525  -42.2940   10.5795 O.2       1 ALC1        0.0000 
     46 O           2.4170  -43.0410   11.5740 O.2       9 ALL1        0.0000 
     47 O           1.6880  -41.5470    9.5850 O.2       5 ALP1        0.0000 
     48 CA          1.2890  -45.8000   14.9365 C.3       4 GLC5        0.0000 
     49 CA          0.6240  -43.7980   14.6430 C.3      12 GLL5        0.0000 
     50 N           3.5450  -41.9610   13.2965 N.am      2 SEC2        0.0000 
     51 N           2.4810  -42.3320   14.0900 N.am     10 SEL2        0.0000 
     52 CA         -1.1355  -44.9225   16.4040 C.3       4 GLC5        0.0000 
     53 CA         -0.8890  -43.6950   14.8880 C.3      12 GLL5        0.0000 
     54 CA         -1.3820  -46.1500   17.9200 C.3       8 GLP5        0.0000 
     55 N          -1.8295  -41.7420   18.7630 N.am      2 SEC2        0.0000 
     56 N          -2.3770  -41.4650   17.4720 N.am     10 SEL2        0.0000 
     57 N          -1.2820  -42.0190   20.0540 N.am      6 SEP2        0.0000 
     58 N          -3.9260  -43.9270   16.4865 N.am      2 SEC2        0.0000 
     59 N          -3.4340  -43.1010   15.6820 N.am     10 SEL2        0.0000 
     60 N          -4.4180  -44.7530   17.2910 N.am      6 SEP2        0.0000 
     61 NZ         -5.6170  -39.9030   14.2875 N.4       3 LYC4        0.0000 
     62 NZ         -4.6690  -39.4710   14.9300 N.4      11 LYL4        0.0000 
     63 NZ         -6.5650  -40.3350   13.6450 N.4       7 LYP4        0.0000 
     64 N          -5.6170  -39.9030   14.2875 N.am      2 SEC2        0.0000 
     65 N          -4.6690  -39.4710   14.9300 N.am     10 SEL2        0.0000 
     66 N          -6.5650  -40.3350   13.6450 N.am      6 SEP2        0.0000 
     67 N          -3.5490  -38.1525   12.4525 N.am      2 SEC2        0.0000 
     68 N          -2.7850  -39.0320   13.2130 N.am     10 SEL2        0.0000 
     69 N          -4.3130  -37.2730   11.6920 N.am      6 SEP2        0.0000 
     70 N          -1.9980  -39.2235   11.9590 N.am      2 SEC2        0.0000 
     71 N          -1.2110  -39.4150   10.7050 N.am      6 SEP2        0.0000 
     72 CA         -2.7000  -38.9505   18.9817 C.3       4 GLC5        0.0000 
     73 CA         -2.4590  -38.5020   17.0250 C.3      12 GLL5        0.0000 
     74 CA         -2.4860  -39.9590   20.6430 C.3       8 GLP5        0.0000 
     75 CA         -3.3665  -36.2305   15.4435 C.3       4 GLC5        0.0000 
     76 CA         -3.3690  -37.3820   17.6160 C.3      12 GLL5        0.0000 
     77 CA         -3.6270  -35.7580   13.4900 C.3       8 GLP5        0.0000 
     78 CA          1.3015  -38.5312   17.4573 C.3       4 GLC5        0.0000 
     79 CA         -0.5100  -37.0840   17.3960 C.3      12 GLL5        0.0000 
     80 CA          2.4640  -39.9740   17.1040 C.3       8 GLP5        0.0000 
     81 CA          1.3375  -35.8773   16.5018 C.3       4 GLC5        0.0000 
     82 CA          2.5360  -34.6660   15.1930 C.3       8 GLP5        0.0000 
     83 CA         -1.5395  -47.1270   12.2193 C.3       4 GLC5        0.0000 
     84 CA         -3.0050  -47.6490   13.4390 C.3       8 GLP5        0.0000 
     85 CA          0.6720  -47.7625   12.7022 C.3       4 GLC5        0.0000 
     86 CA          1.4180  -48.9200   14.4050 C.3       8 GLP5        0.0000 
     87 CA          1.9325  -44.4965   10.6728 C.3       4 GLC5        0.0000 
     88 CA          1.5857  -41.0550   12.9277 C.3       4 GLC5        0.0000 
     89 CA          1.3500  -43.4360   12.3680 C.3      12 GLL5        0.0000 
     90 CA          1.8960  -39.0410   12.8130 C.3       8 GLP5        0.0000 
     91 CA          1.5777  -42.3025   15.8830 C.3       4 GLC5        0.0000 
     92 CA          1.2010  -42.7020   13.7170 C.3      12 GLL5        0.0000 
     93 CA          2.2430  -41.3550   17.5860 C.3       8 GLP5        0.0000 
@<TRIPOS>BOND
@<TRIPOS>SUBSTRUCTURE
     1 ALC1        9 GROUP        1 X    ALC  0     ROOT ALC X 1
     2 SEC2       12 GROUP        1 X    SEC  0     **** SEC X 2
     3 LYC4       61 GROUP        1 X    LYC  0     **** LYC X 4
     4 GLC5        1 GROUP        1 X    GLC  0     **** GLC X 6
     5 ALP1       11 GROUP        1 Y    ALP  0     ROOT ALP Y 8
     6 SEP2       14 GROUP        1 Y    SEP  0     **** SEP Y 9
     7 LYP4       63 GROUP        1 Y    LYP  0     **** LYP Y 11
     8 GLP5        3 GROUP        1 Y    GLP  0     **** GLP Y 13
     9 ALL1       10 GROUP        1 Z    ALL  0     ROOT ALL Z 15
    10 SEL2       13 GROUP        1 Z    SEL  0     **** SEL Z 16
    11 LYL4       62 GROUP        1 Z    LYL  0     **** LYL Z 18
    12 GLL5        2 GROUP        1 Z    GLL  0     **** GLL Z 20
@<TRIPOS>SET

