#    Name: 4n3c_UD1_1_ligand
#    Modification time : Tue Mar 25 12:32:47 2014

@<TRIPOS>MOLECULE
4n3c_UD1_1_ligand
   64    66     1     0     0
SMALL
NO_CHARGES


@<TRIPOS>ATOM
      1 C1'        -2.4590  -38.5020   17.0250 C.3       1 UD11201     0.0000 
      2 C2'        -3.3690  -37.3820   17.6160 C.3       1 UD11201     0.0000 
      3 C3'        -2.8430  -36.0240   17.1780 C.3       1 UD11201     0.0000 
      4 C4'        -1.4150  -35.8410   17.7490 C.3       1 UD11201     0.0000 
      5 C5'        -0.5100  -37.0840   17.3960 C.3       1 UD11201     0.0000 
      6 C6'         0.7880  -37.0930   18.2250 C.3       1 UD11201     0.0000 
      7 C7'        -5.5050  -38.6090   17.7440 C.2       1 UD11201     0.0000 
      8 C8'        -6.9080  -38.6810   17.2200 C.3       1 UD11201     0.0000 
      9 N2'        -4.7470  -37.6000   17.2160 N.am      1 UD11201     0.0000 
     10 O1'        -2.3850  -38.4670   15.6550 O.3       1 UD11201     0.0000 
     11 O3'        -3.6640  -35.0390   17.7210 O.3       1 UD11201     0.0000 
     12 O4'        -0.9140  -34.6780   17.1570 O.3       1 UD11201     0.0000 
     13 O5'        -1.1680  -38.3310   17.6200 O.3       1 UD11201     0.0000 
     14 O6'         0.4790  -36.9910   19.5820 O.3       1 UD11201     0.0000 
     15 O7'        -5.0860  -39.4110   18.5800 O.2       1 UD11201     0.0000 
     16 N1          1.3550  -45.9610   11.9310 N.am      1 UD11201     0.0000 
     17 C2          2.3390  -46.9880   11.6810 C.2       1 UD11201     0.0000 
     18 N3          2.0030  -48.0170   10.7850 N.am      1 UD11201     0.0000 
     19 C4          0.7330  -48.1610   10.4740 C.2       1 UD11201     0.0000 
     20 C5         -0.2720  -47.1660   10.6610 C.2       1 UD11201     0.0000 
     21 C6          0.1240  -46.0440   11.3380 C.2       1 UD11201     0.0000 
     22 O2          3.4180  -46.9710   12.2160 O.2       1 UD11201     0.0000 
     23 O4          0.4070  -49.2310    9.7370 O.2       1 UD11201     0.0000 
     24 C1B         1.6500  -44.8600   12.8890 C.3       1 UD11201     0.0000 
     25 C2B         1.3500  -43.4360   12.3680 C.3       1 UD11201     0.0000 
     26 O2'         2.4170  -43.0410   11.5740 O.3       1 UD11201     0.0000 
     27 C3B         1.2010  -42.7020   13.7170 C.3       1 UD11201     0.0000 
     28 C4B         0.6240  -43.7980   14.6430 C.3       1 UD11201     0.0000 
     29 O4B         0.8350  -45.0420   13.9810 O.3       1 UD11201     0.0000 
     30 O3B         2.4810  -42.3320   14.0900 O.3       1 UD11201     0.0000 
     31 C5B        -0.8890  -43.6950   14.8880 C.3       1 UD11201     0.0000 
     32 O5B        -0.9990  -42.7830   15.8840 O.3       1 UD11201     0.0000 
     33 PA         -2.5260  -41.9870   16.0940 P.3       1 UD11201     0.0000 
     34 O1A        -2.3770  -41.4650   17.4720 O.co2     1 UD11201     0.0000 
     35 O2A        -3.4340  -43.1010   15.6820 O.co2     1 UD11201     0.0000 
     36 O3A        -2.5710  -40.8840   14.9760 O.3       1 UD11201     0.0000 
     37 PB         -3.2400  -39.5400   14.5290 P.3       1 UD11201     0.0000 
     38 O1B        -4.6690  -39.4710   14.9300 O.co2     1 UD11201     0.0000 
     39 O2B        -2.7850  -39.0320   13.2130 O.co2     1 UD11201     0.0000 
     40 H          -2.8896  -39.4446   17.3943 H         1 UD11201     0.0000 
     41 H          -3.2712  -37.4493   18.7009 H         1 UD11201     0.0000 
     42 H          -2.7864  -35.9952   16.1221 H         1 UD11201     0.0000 
     43 H          -1.4903  -35.7698   18.8082 H         1 UD11201     0.0000 
     44 H          -0.2180  -36.9838   16.3500 H         1 UD11201     0.0000 
     45 H           1.4035  -36.2568   17.8649 H         1 UD11201     0.0000 
     46 H           1.3188  -38.0231   17.9784 H         1 UD11201     0.0000 
     47 H          -5.1366  -36.9522   16.5060 H         1 UD11201     0.0000 
     48 H           2.7488  -48.6085   10.4125 H         1 UD11201     0.0000 
     49 H          -1.1938  -47.3054   10.3109 H         1 UD11201     0.0000 
     50 H          -0.5304  -45.2299   11.4038 H         1 UD11201     0.0000 
     51 H           2.6909  -44.8919   13.1742 H         1 UD11201     0.0000 
     52 H           0.4060  -43.4817   11.9072 H         1 UD11201     0.0000 
     53 H           0.5101  -41.9426   13.5999 H         1 UD11201     0.0000 
     54 H           1.1366  -43.7743   15.5759 H         1 UD11201     0.0000 
     55 H          -1.2324  -44.6876   15.1523 H         1 UD11201     0.0000 
     56 H          -1.3385  -43.3889   13.9514 H         1 UD11201     0.0000 
     57 H          -6.9280  -38.8256   16.2307 H         1 UD11201     0.0000 
     58 H          -7.4219  -39.4311   17.6363 H         1 UD11201     0.0000 
     59 H          -7.4167  -37.8398   17.4036 H         1 UD11201     0.0000 
     60 H          -4.5278  -35.1190   17.2236 H         1 UD11201     0.0000 
     61 H          -0.8962  -34.0005   17.8923 H         1 UD11201     0.0000 
     62 H           1.3559  -36.8321   20.0357 H         1 UD11201     0.0000 
     63 H           2.1481  -42.1522   11.2030 H         1 UD11201     0.0000 
     64 H           2.8287  -43.1040   14.6221 H         1 UD11201     0.0000 
@<TRIPOS>BOND
     1    2    1 1    
     2   10    1 1    
     3   13    1 1    
     4   40    1 1    
     5    3    2 1    
     6    9    2 1    
     7   41    2 1    
     8    4    3 1    
     9   11    3 1    
    10   42    3 1    
    11    5    4 1    
    12   12    4 1    
    13   43    4 1    
    14    6    5 1    
    15   13    5 1    
    16   44    5 1    
    17   14    6 1    
    18   45    6 1    
    19   46    6 1    
    20    8    7 1    
    21    9    7 am   
    22   15    7 2    
    23   57    8 1    
    24   58    8 1    
    25   59    8 1    
    26   47    9 1    
    27   37   10 1    
    28   60   11 1    
    29   61   12 1    
    30   62   14 1    
    31   17   16 1    
    32   21   16 1    
    33   24   16 1    
    34   18   17 1    
    35   22   17 2    
    36   19   18 1    
    37   48   18 1    
    38   20   19 1    
    39   23   19 2    
    40   21   20 2    
    41   49   20 1    
    42   50   21 1    
    43   25   24 1    
    44   29   24 1    
    45   51   24 1    
    46   26   25 1    
    47   27   25 1    
    48   52   25 1    
    49   63   26 1    
    50   28   27 1    
    51   30   27 1    
    52   53   27 1    
    53   29   28 1    
    54   31   28 1    
    55   54   28 1    
    56   64   30 1    
    57   32   31 1    
    58   55   31 1    
    59   56   31 1    
    60   33   32 1    
    61   34   33 ar   
    62   35   33 ar   
    63   36   33 1    
    64   37   36 1    
    65   38   37 ar   
    66   39   37 ar   
@<TRIPOS>SUBSTRUCTURE
     1 UD11201     1 GROUP   
@<TRIPOS>SET

