#    Name: 2x14_ACP_1_INTS_M
#    Modification time : Tue Mar 25 04:57:44 2014

@<TRIPOS>MOLECULE
2x14_ACP_1_INTS_M
   90     0    15     0     0
SMALL
NO_CHARGES


@<TRIPOS>ATOM
      1 NZ         -2.8665   11.0505  -19.4010 N.4       3 LYC4        0.0000 
      2 NZ         -3.3740   10.2020  -20.2400 N.4      13 LYL4        0.0000 
      3 NZ         -2.3590   11.8990  -18.5620 N.4       8 LYP4        0.0000 
      4 Zn         -4.4295   10.0995  -20.0195 Zn        4 ZIC7        0.0000 
      5 Zn         -3.3740   10.2020  -20.2400 Zn       14 ZIL7        0.0000 
      6 Zn         -5.4850    9.9970  -19.7990 Zn        9 ZIP7        0.0000 
      7 N          -2.8665   11.0505  -19.4010 N.am      2 SEC2        0.0000 
      8 N          -3.3740   10.2020  -20.2400 N.am     12 SEL2        0.0000 
      9 N          -2.3590   11.8990  -18.5620 N.am      7 SEP2        0.0000 
     10 N          -3.7305    6.7135  -20.5860 N.am      2 SEC2        0.0000 
     11 N          -2.5420    7.8100  -20.8900 N.am     12 SEL2        0.0000 
     12 N          -4.9190    5.6170  -20.2820 N.am      7 SEP2        0.0000 
     13 NZ         -1.8210   10.8725  -20.1635 N.4       3 LYC4        0.0000 
     14 NZ         -1.2830    9.8460  -21.7650 N.4      13 LYL4        0.0000 
     15 N          -0.2815    8.9150  -22.5080 N.am      2 SEC2        0.0000 
     16 N          -1.2830    9.8460  -21.7650 N.am     12 SEL2        0.0000 
     17 N           0.7200    7.9840  -23.2510 N.am      7 SEP2        0.0000 
     18 N          -7.1240    6.9470  -23.3210 N.am      2 SEC2        0.0000 
     19 N          -5.8510    7.7960  -23.5910 N.am     12 SEL2        0.0000 
     20 N          -8.3970    6.0980  -23.0510 N.am      7 SEP2        0.0000 
     21 N          -6.6475    7.3330  -24.5930 N.am      2 SEC2        0.0000 
     22 N          -7.4440    6.8700  -25.5950 N.am      7 SEP2        0.0000 
     23 Zn         -5.5455    9.3645  -20.5135 Zn        4 ZIC7        0.0000 
     24 Zn         -5.6060    8.7320  -21.2280 Zn       14 ZIL7        0.0000 
     25 N          -6.5375    7.6720  -20.8180 N.am      2 SEC2        0.0000 
     26 N          -5.6060    8.7320  -21.2280 N.am     12 SEL2        0.0000 
     27 N          -7.4690    6.6120  -20.4080 N.am      7 SEP2        0.0000 
     28 CA         -3.7930    7.2580  -22.7225 C.3       5 GLC5        0.0000 
     29 CA         -3.5840    9.2030  -22.9570 C.3      15 GLL5        0.0000 
     30 CA         -4.0020    5.3130  -22.4880 C.3      10 GLP5        0.0000 
     31 CA         -2.1605    7.6285  -23.1155 C.3       5 GLC5        0.0000 
     32 CA         -0.7370    6.0540  -23.2740 C.3      10 GLP5        0.0000 
     33 Zn         -5.5860   10.7995  -20.3800 Zn        4 ZIC7        0.0000 
     34 Zn         -5.6870   11.6020  -20.9610 Zn       14 ZIL7        0.0000 
     35 N          -5.7305   13.8035  -23.8235 N.am      2 SEC2        0.0000 
     36 N          -4.6950   12.5880  -23.1530 N.am     12 SEL2        0.0000 
     37 N          -6.7660   15.0190  -24.4940 N.am      7 SEP2        0.0000 
     38 N          -4.5440   14.2890  -23.3625 N.am      2 SEC2        0.0000 
     39 N          -4.3930   15.9900  -23.5720 N.am      7 SEP2        0.0000 
     40 N          -7.0135   13.7075  -23.7065 N.am      2 SEC2        0.0000 
     41 N          -7.2610   12.3960  -22.9190 N.am     12 SEL2        0.0000 
     42 CA         -8.8120   10.6455  -23.9535 C.3       5 GLC5        0.0000 
     43 CA         -8.4760   11.7420  -22.4800 C.3      15 GLL5        0.0000 
     44 CA         -9.1480    9.5490  -25.4270 C.3      10 GLP5        0.0000 
     45 CA         -8.6575   10.1495  -21.7165 C.3       5 GLC5        0.0000 
     46 CA         -8.8390    8.5570  -20.9530 C.3      10 GLP5        0.0000 
     47 CA         -8.6765   14.6575  -22.6145 C.3       5 GLC5        0.0000 
     48 CA         -9.5210   12.8330  -22.3750 C.3      15 GLL5        0.0000 
     49 CA         -7.8320   16.4820  -22.8540 C.3      10 GLP5        0.0000 
     50 CA         -9.8720   10.4080  -21.5385 C.3       5 GLC5        0.0000 
     51 CA        -10.9050   12.2590  -22.1240 C.3      15 GLL5        0.0000 
     52 O         -12.0985   11.6855  -20.4595 O.2       1 ALC1        0.0000 
     53 O         -11.1940   12.6190  -20.7740 O.2      11 ALL1        0.0000 
     54 O         -13.0030   10.7520  -20.1450 O.2       6 ALP1        0.0000 
     55 CA        -13.5820   13.3520  -23.9330 C.3       5 GLC5        0.0000 
     56 CA        -11.7780   13.0500  -23.1330 C.3      15 GLL5        0.0000 
     57 CA        -15.3860   13.6540  -24.7330 C.3      10 GLP5        0.0000 
     58 N         -13.7345   12.6060  -21.9430 N.am      2 SEC2        0.0000 
     59 N         -12.9530   13.5230  -22.4690 N.am     12 SEL2        0.0000 
     60 N         -14.5160   11.6890  -21.4170 N.am      7 SEP2        0.0000 
     61 CA         -9.0540   13.7120  -24.7645 C.3       5 GLC5        0.0000 
     62 CA        -10.8240   14.2080  -23.5380 C.3      15 GLL5        0.0000 
     63 CA         -7.2840   13.2160  -25.9910 C.3      10 GLP5        0.0000 
     64 CA         -9.3280   15.3450  -23.1960 C.3       5 GLC5        0.0000 
     65 CA        -10.8190   15.6420  -28.3015 C.3       5 GLC5        0.0000 
     66 CA        -11.7300   16.3010  -26.3810 C.3      15 GLL5        0.0000 
     67 CA         -9.9080   14.9830  -30.2220 C.3      10 GLP5        0.0000 
     68 CA        -12.9690   14.8015  -27.3615 C.3       5 GLC5        0.0000 
     69 CA        -14.2080   13.3020  -28.3420 C.3      10 GLP5        0.0000 
     70 CA        -14.0715   17.9260  -27.3900 C.3       5 GLC5        0.0000 
     71 CA        -12.0520   17.5810  -26.8430 C.3      15 GLL5        0.0000 
     72 CA        -16.0910   18.2710  -27.9370 C.3      10 GLP5        0.0000 
     73 O         -13.2600   18.9790  -28.4400 O.2       1 ALC1        0.0000 
     74 O         -12.3600   17.8340  -28.1130 O.2      11 ALL1        0.0000 
     75 O         -14.1600   20.1240  -28.7670 O.2       6 ALP1        0.0000 
     76 CA        -10.1075   19.0610  -24.7105 C.3       5 GLC5        0.0000 
     77 CA        -11.6930   18.3960  -24.6770 C.3      15 GLL5        0.0000 
     78 CA         -8.5220   19.7260  -24.7440 C.3      10 GLP5        0.0000 
     79 CA        -13.5430   19.1205  -25.1010 C.3       5 GLC5        0.0000 
     80 CA        -15.3930   19.8450  -25.5250 C.3      10 GLP5        0.0000 
     81 CA        -13.2735   17.2305  -24.5150 C.3       5 GLC5        0.0000 
     82 CA        -14.8540   16.0650  -24.3530 C.3      10 GLP5        0.0000 
     83 CA         -9.6285   16.3075  -23.9400 C.3       5 GLC5        0.0000 
     84 CA        -11.4250   16.1330  -25.0260 C.3      15 GLL5        0.0000 
     85 CA         -8.1412   12.7517  -24.2093 C.3       5 GLC5        0.0000 
     86 CA        -10.7862   11.2385  -23.9371 C.3       5 GLC5        0.0000 
     87 CA        -10.5770    9.6790  -25.1830 C.3      10 GLP5        0.0000 
     88 CA        -10.2755   17.4855  -27.5150 C.3       5 GLC5        0.0000 
     89 CA         -8.6600   18.0300  -28.4180 C.3      10 GLP5        0.0000 
     90 CA        -13.2560   16.3010  -25.0860 C.3       5 GLC5        0.0000 
@<TRIPOS>BOND
@<TRIPOS>SUBSTRUCTURE
     1 ALC1       52 GROUP        1 X    ALC  0     ROOT ALC X 1
     2 SEC2        7 GROUP        1 X    SEC  0     **** SEC X 2
     3 LYC4        1 GROUP        1 X    LYC  0     **** LYC X 4
     4 ZIC7        4 GROUP        1 X    ZIC  0     **** ZIC X 5
     5 GLC5       28 GROUP        1 X    GLC  0     **** GLC X 6
     6 ALP1       54 GROUP        1 Y    ALP  0     ROOT ALP Y 8
     7 SEP2        9 GROUP        1 Y    SEP  0     **** SEP Y 9
     8 LYP4        3 GROUP        1 Y    LYP  0     **** LYP Y 11
     9 ZIP7        6 GROUP        1 Y    ZIP  0     **** ZIP Y 12
    10 GLP5       30 GROUP        1 Y    GLP  0     **** GLP Y 13
    11 ALL1       53 GROUP        1 Z    ALL  0     ROOT ALL Z 15
    12 SEL2        8 GROUP        1 Z    SEL  0     **** SEL Z 16
    13 LYL4        2 GROUP        1 Z    LYL  0     **** LYL Z 18
    14 ZIL7        5 GROUP        1 Z    ZIL  0     **** ZIL Z 19
    15 GLL5       29 GROUP        1 Z    GLL  0     **** GLL Z 20
@<TRIPOS>SET

