#    Name: 2x14_ACP_1_ligand
#    Modification time : Tue Mar 25 04:57:44 2014

@<TRIPOS>MOLECULE
2x14_ACP_1_ligand
   45    47     1     0     0
SMALL
NO_CHARGES


@<TRIPOS>ATOM
      1 PG         -2.6720    9.3260  -21.4150 P.3       1 ACP1420     0.0000 
      2 O1G        -3.3740   10.2020  -20.2400 O.co2     1 ACP1420     0.0000 
      3 O2G        -2.5420    7.8100  -20.8900 O.co2     1 ACP1420     0.0000 
      4 O3G        -1.2830    9.8460  -21.7650 O.co2     1 ACP1420     0.0000 
      5 PB         -5.3560    8.9470  -22.6680 P.3       1 ACP1420     0.0000 
      6 O1B        -5.8510    7.7960  -23.5910 O.co2     1 ACP1420     0.0000 
      7 O2B        -5.6060    8.7320  -21.2280 O.co2     1 ACP1420     0.0000 
      8 C3B        -3.5840    9.2030  -22.9570 C.3       1 ACP1420     0.0000 
      9 PA         -5.7820   11.7440  -22.5510 P.3       1 ACP1420     0.0000 
     10 O1A        -5.6870   11.6020  -20.9610 O.co2     1 ACP1420     0.0000 
     11 O2A        -4.6950   12.5880  -23.1530 O.co2     1 ACP1420     0.0000 
     12 O3A        -5.8780   10.3200  -23.2450 O.3       1 ACP1420     0.0000 
     13 O5'        -7.2610   12.3960  -22.9190 O.3       1 ACP1420     0.0000 
     14 C5'        -8.4760   11.7420  -22.4800 C.3       1 ACP1420     0.0000 
     15 C4'        -9.5210   12.8330  -22.3750 C.3       1 ACP1420     0.0000 
     16 O4'        -9.5890   13.4870  -23.6410 O.3       1 ACP1420     0.0000 
     17 C3'       -10.9050   12.2590  -22.1240 C.3       1 ACP1420     0.0000 
     18 O3'       -11.1940   12.6190  -20.7740 O.3       1 ACP1420     0.0000 
     19 C2'       -11.7780   13.0500  -23.1330 C.3       1 ACP1420     0.0000 
     20 O2'       -12.9530   13.5230  -22.4690 O.3       1 ACP1420     0.0000 
     21 C1'       -10.8240   14.2080  -23.5380 C.3       1 ACP1420     0.0000 
     22 N9        -11.1740   14.8280  -24.8340 N.pl3     1 ACP1420     0.0000 
     23 C8        -11.3180   14.2140  -26.0150 C.2       1 ACP1420     0.0000 
     24 N7        -11.6540   15.0890  -26.9570 N.2       1 ACP1420     0.0000 
     25 C5        -11.7300   16.3010  -26.3810 C.ar      1 ACP1420     0.0000 
     26 C6        -12.0520   17.5810  -26.8430 C.ar      1 ACP1420     0.0000 
     27 N6        -12.3600   17.8340  -28.1130 N.pl3     1 ACP1420     0.0000 
     28 N1        -12.0270   18.5840  -25.9620 N.ar      1 ACP1420     0.0000 
     29 C2        -11.6930   18.3960  -24.6770 C.ar      1 ACP1420     0.0000 
     30 N3        -11.3950   17.1950  -24.1860 N.ar      1 ACP1420     0.0000 
     31 C4        -11.4250   16.1330  -25.0260 C.ar      1 ACP1420     0.0000 
     32 H          -3.2411    8.3597  -23.4497 H         1 ACP1420     0.0000 
     33 H          -3.4930   10.1137  -23.4406 H         1 ACP1420     0.0000 
     34 H          -8.3509   11.2866  -21.5091 H         1 ACP1420     0.0000 
     35 H          -8.8112   11.0083  -23.1975 H         1 ACP1420     0.0000 
     36 H          -9.2698   13.5065  -21.6017 H         1 ACP1420     0.0000 
     37 H         -10.9121   11.2647  -22.3377 H         1 ACP1420     0.0000 
     38 H         -11.9431   12.4437  -23.9640 H         1 ACP1420     0.0000 
     39 H         -10.7939   14.8927  -22.7420 H         1 ACP1420     0.0000 
     40 H         -11.1913   13.2479  -26.1597 H         1 ACP1420     0.0000 
     41 H         -11.9226   17.2498  -28.7967 H         1 ACP1420     0.0000 
     42 H         -13.0010   18.5855  -28.2690 H         1 ACP1420     0.0000 
     43 H         -11.6664   19.2389  -24.0305 H         1 ACP1420     0.0000 
     44 H         -11.8435   11.9286  -20.4555 H         1 ACP1420     0.0000 
     45 H         -12.6779   13.6508  -21.5161 H         1 ACP1420     0.0000 
@<TRIPOS>BOND
     1    2    1 ar   
     2    3    1 ar   
     3    4    1 ar   
     4    8    1 1    
     5    6    5 ar   
     6    7    5 ar   
     7    8    5 1    
     8   12    5 1    
     9   32    8 1    
    10   33    8 1    
    11   10    9 ar   
    12   11    9 ar   
    13   12    9 1    
    14   13    9 1    
    15   14   13 1    
    16   15   14 1    
    17   34   14 1    
    18   35   14 1    
    19   16   15 1    
    20   17   15 1    
    21   36   15 1    
    22   21   16 1    
    23   18   17 1    
    24   19   17 1    
    25   37   17 1    
    26   44   18 1    
    27   20   19 1    
    28   21   19 1    
    29   38   19 1    
    30   45   20 1    
    31   22   21 1    
    32   39   21 1    
    33   23   22 1    
    34   31   22 1    
    35   24   23 2    
    36   40   23 1    
    37   25   24 1    
    38   26   25 ar   
    39   31   25 ar   
    40   27   26 1    
    41   28   26 ar   
    42   41   27 1    
    43   42   27 1    
    44   29   28 ar   
    45   30   29 ar   
    46   43   29 1    
    47   31   30 ar   
@<TRIPOS>SUBSTRUCTURE
     1 ACP1420     1 GROUP   
@<TRIPOS>SET

