#    Name: 4hda_HIS_LYS_FDL_2_INTS_M
#    Modification time : Tue Mar 25 00:50:16 2014

@<TRIPOS>MOLECULE
4hda_HIS_LYS_FDL_2_INTS_M
   51     0     6     0     0
SMALL
NO_CHARGES


@<TRIPOS>ATOM
      1 CA         12.1490   14.0215    4.3355 C.3       2 GLC5        0.0000 
      2 CA         11.0890   15.2380    2.7970 C.3       6 GLL5        0.0000 
      3 CA         13.2090   12.8050    5.8740 C.3       4 GLP5        0.0000 
      4 CA         11.2135   16.0865    1.2920 C.3       2 GLC5        0.0000 
      5 CA         11.3380   16.9350   -0.2130 C.3       4 GLP5        0.0000 
      6 N           9.9895   13.8450    4.9705 N.am      1 SEC2        0.0000 
      7 N           9.1180   14.4310    3.7380 N.am      5 SEL2        0.0000 
      8 N          10.8610   13.2590    6.2030 N.am      3 SEP2        0.0000 
      9 CA          9.1485   13.5160    4.3660 C.3       2 GLC5        0.0000 
     10 CA          9.4320   12.3860    2.5200 C.3       6 GLL5        0.0000 
     11 CA          8.8650   14.6460    6.2120 C.3       4 GLP5        0.0000 
     12 CA          4.3185   17.5135    2.1975 C.3       2 GLC5        0.0000 
     13 CA          5.0100   16.0760    3.2230 C.3       6 GLL5        0.0000 
     14 CA          3.6270   18.9510    1.1720 C.3       4 GLP5        0.0000 
     15 CA          2.2215   15.0140    4.6520 C.3       2 GLC5        0.0000 
     16 CA          3.5900   16.3040    3.6640 C.3       6 GLL5        0.0000 
     17 CA          0.8530   13.7240    5.6400 C.3       4 GLP5        0.0000 
     18 CA          3.1810   17.9830    3.8240 C.3       2 GLC5        0.0000 
     19 CA          2.7720   19.6620    3.9840 C.3       4 GLP5        0.0000 
     20 CA          2.5705   23.6450   10.6255 C.3       2 GLC5        0.0000 
     21 CA          3.4420   22.9310   12.5490 C.3       6 GLL5        0.0000 
     22 CA          1.6990   24.3590    8.7020 C.3       4 GLP5        0.0000 
     23 CA          4.9230   20.4940   14.7425 C.3       2 GLC5        0.0000 
     24 CA          3.5750   20.6790   13.3840 C.3       6 GLL5        0.0000 
     25 CA          6.2710   20.3090   16.1010 C.3       4 GLP5        0.0000 
     26 CA          5.2660   22.5140    1.7990 C.3       2 GLC5        0.0000 
     27 CA          5.2340   23.0270    3.9290 C.3       6 GLL5        0.0000 
     28 CA          5.2980   22.0010   -0.3310 C.3       4 GLP5        0.0000 
     29 CA          5.3085   29.0320    2.9195 C.3       2 GLC5        0.0000 
     30 CA          4.3340   27.5990    3.1600 C.3       6 GLL5        0.0000 
     31 CA          6.2830   30.4650    2.6790 C.3       4 GLP5        0.0000 
     32 CA          5.3765   27.3150    1.5155 C.3       2 GLC5        0.0000 
     33 CA          6.4190   27.0310   -0.1290 C.3       4 GLP5        0.0000 
     34 CA         10.0855   14.5858    4.5950 C.3       2 GLC5        0.0000 
     35 CA         11.6933   11.9779    3.3051 C.3       2 GLC5        0.0000 
     36 CA         11.5230   13.8130    3.1590 C.3       6 GLL5        0.0000 
     37 CA         13.1040   11.1280    3.9420 C.3       4 GLP5        0.0000 
     38 CA          7.7082   15.1680    5.1171 C.3       2 GLC5        0.0000 
     39 CA          7.1270   15.6910    4.3920 C.3       6 GLL5        0.0000 
     40 CA          4.4510   15.9915    1.3838 C.3       2 GLC5        0.0000 
     41 CA          4.6020   15.7930   -0.6760 C.3       4 GLP5        0.0000 
     42 CA          6.4023   18.8933   11.0185 C.3       2 GLC5        0.0000 
     43 CA          5.0520   19.2770    9.8010 C.3       6 GLL5        0.0000 
     44 CA          8.0130   18.2620   11.6480 C.3       4 GLP5        0.0000 
     45 CA          3.1820   23.0280    9.0680 C.3       2 GLC5        0.0000 
     46 CA          4.8990   21.4280    8.8300 C.3       6 GLL5        0.0000 
     47 CA          4.3750   19.9395    4.3287 C.3       2 GLC5        0.0000 
     48 CA          6.3160   19.7900    5.1870 C.3       6 GLL5        0.0000 
     49 CA          4.0790   21.4863    4.7025 C.3       2 GLC5        0.0000 
     50 CA          5.9720   22.0000    4.7090 C.3       6 GLL5        0.0000 
     51 CA          2.5550   20.4590    5.0860 C.3       4 GLP5        0.0000 
@<TRIPOS>BOND
@<TRIPOS>SUBSTRUCTURE
     1 SEC2        6 GROUP        1 X    SEC  0     ROOT SEC X 2
     2 GLC5        1 GROUP        1 X    GLC  0     **** GLC X 6
     3 SEP2        8 GROUP        1 Y    SEP  0     ROOT SEP Y 9
     4 GLP5        3 GROUP        1 Y    GLP  0     **** GLP Y 13
     5 SEL2        7 GROUP        1 Z    SEL  0     ROOT SEL Z 16
     6 GLL5        2 GROUP        1 Z    GLL  0     **** GLL Z 20
@<TRIPOS>SET

