#    Name: 4hda_HIS_LYS_FDL_2_ligand
#    Modification time : Tue Mar 25 00:50:17 2014

@<TRIPOS>MOLECULE
4hda_HIS_LYS_FDL_2_ligand
   87    89     3     0     0
SMALL
NO_CHARGES


@<TRIPOS>ATOM
      1 N          11.9590   16.2070    3.4560 N.4       1 HIS2        0.0000
      2 CA         11.0890   15.2380    2.7970 C.3       1 HIS2        0.0000
      3 C           9.6410   15.3850    3.2160 C.2       1 HIS2        0.0000
      4 O           9.1180   14.4310    3.7380 O.2       1 HIS2        0.0000
      5 CB         11.5230   13.8130    3.1590 C.3       1 HIS2        0.0000
      6 CG         10.7430   12.7260    2.4740 C.2       1 HIS2        0.0000
      7 ND1        11.3430   11.8100    1.6410 N.pl3     1 HIS2        0.0000
      8 CD2         9.4320   12.3860    2.5200 C.2       1 HIS2        0.0000
      9 CE1        10.4340   10.9680    1.1820 C.2       1 HIS2        0.0000
     10 NE2         9.2670   11.2940    1.6990 N.2       1 HIS2        0.0000
     11 HA         11.1469   15.3295    1.7236 H         1 HIS2        0.0000
     12 HB2        11.4393   13.6921    4.2570 H         1 HIS2        0.0000
     13 HB3        12.5986   13.7047    2.9169 H         1 HIS2        0.0000
     14 HD1        12.2956   11.8086    1.4399 H         1 HIS2        0.0000
     15 HD2         8.7457   12.8134    3.0212 H         1 HIS2        0.0000
     16 HE1        10.6013   10.2297    0.5641 H         1 HIS2        0.0000
     17 HNCA       12.9126   16.1023    3.1736 H         1 HIS2        0.0000
     18 H          11.6929   17.1479    3.2464 H         1 HIS2        0.0000
     19 H          11.9357   16.1106    4.4511 H         1 HIS2        0.0000
     20 N           8.9980   16.5360    3.0010 N.am      2 LYS3        0.0000
     21 CA          7.5830   16.7290    3.3790 C.3       2 LYS3        0.0000
     22 C           7.3760   18.1240    3.9590 C.2       2 LYS3        0.0000
     23 O           8.1990   18.9950    3.7150 O.2       2 LYS3        0.0000
     24 CB          7.1270   15.6910    4.3920 C.3       2 LYS3        0.0000
     25 CG          5.7480   15.1700    4.1590 C.3       2 LYS3        0.0000
     26 CD          5.0100   16.0760    3.2230 C.3       2 LYS3        0.0000
     27 CE          3.5900   16.3040    3.6640 C.3       2 LYS3        0.0000
     28 NZ          2.6230   15.5410    2.8370 N.4       2 LYS3        0.0000
     29 HNCA        9.4556   17.3580    2.5571 H         2 LYS3        0.0000
     30 HA          6.9518   16.6417    2.4976 H         2 LYS3        0.0000
     31 HB2         7.1892   16.1375    5.4047 H         2 LYS3        0.0000
     32 HB3         7.8486   14.8495    4.3818 H         2 LYS3        0.0000
     33 HG2         5.2112   15.1107    5.1087 H         2 LYS3        0.0000
     34 HG3         5.8008   14.1666    3.7299 H         2 LYS3        0.0000
     35 HD2         5.0097   15.6395    2.2139 H         2 LYS3        0.0000
     36 HD3         5.5297   17.0430    3.1624 H         2 LYS3        0.0000
     37 HE2         3.3647   17.3801    3.6042 H         2 LYS3        0.0000
     38 HE3         3.4913   16.0097    4.7204 H         2 LYS3        0.0000
     39 HZ1         2.6745   15.7992    1.8723 H         2 LYS3        0.0000
     40 HZ2         2.7885   14.5560    2.8860 H         2 LYS3        0.0000
     41 HZ3         1.6799   15.6948    3.1317 H         2 LYS3        0.0000
     42 CAL         3.4420   22.9310   12.5490 C.3       3 FDL4        0.0000
     43 CAD         3.7500   21.5880   12.3500 C.2       3 FDL4        0.0000
     44 CAC         3.5750   20.6790   13.3840 C.2       3 FDL4        0.0000
     45 CAB         3.8820   19.3340   13.1910 C.2       3 FDL4        0.0000
     46 OAK         3.6680   18.5520   14.1170 O.2       3 FDL4        0.0000
     47 OAA         4.3570   18.9010   11.9990 O.3       3 FDL4        0.0000
     48 CAF         4.5310   19.7720   10.9770 C.ar      3 FDL4        0.0000
     49 CAG         5.0520   19.2770    9.8010 C.ar      3 FDL4        0.0000
     50 CAE         4.2290   21.1240   11.1300 C.ar      3 FDL4        0.0000
     51 CAH         4.4310   21.9660   10.0380 C.ar      3 FDL4        0.0000
     52 CAI         4.8990   21.4280    8.8300 C.ar      3 FDL4        0.0000
     53 CAJ         5.0940   20.0460    8.6640 C.ar      3 FDL4        0.0000
     54 NAM         5.6740   19.4970    7.5890 N.am      3 FDL4        0.0000
     55 C           5.6840   20.2610    6.5250 C.2       3 FDL4        0.0000
     56 O           4.8400   21.1520    6.4650 O.2       3 FDL4        0.0000
     57 CA          6.3160   19.7900    5.1870 C.3       3 FDL4        0.0000
     58 N           6.3150   18.3980    4.7350 N.4       3 FDL4        0.0000
     59 CB          5.6400   20.6440    4.1600 C.3       3 FDL4        0.0000
     60 CAS         5.9720   22.0000    4.7090 C.3       3 FDL4        0.0000
     61 CAT         5.2340   23.0270    3.9290 C.3       3 FDL4        0.0000
     62 CAU         5.5020   24.3310    4.6330 C.3       3 FDL4        0.0000
     63 NAV         4.7620   25.3570    3.9180 N.am      3 FDL4        0.0000
     64 CAW         5.1880   26.6100    3.9460 C.2       3 FDL4        0.0000
     65 OAY         6.1840   26.9630    4.5730 O.2       3 FDL4        0.0000
     66 CAX         4.3340   27.5990    3.1600 C.3       3 FDL4        0.0000
     67 H           3.2181   20.9967   14.2953 H         3 FDL4        0.0000
     68 H           5.4194   18.3033    9.7764 H         3 FDL4        0.0000
     69 H           4.2411   22.9672   10.1125 H         3 FDL4        0.0000
     70 H           5.1065   22.0643    8.0396 H         3 FDL4        0.0000
     71 H           6.0697   18.5628    7.6121 H         3 FDL4        0.0000
     72 H           7.3748   20.1836    5.2015 H         3 FDL4        0.0000
     73 H           4.6009   20.4875    4.1797 H         3 FDL4        0.0000
     74 H           6.0901   20.5117    3.2196 H         3 FDL4        0.0000
     75 H           7.0438   22.1707    4.6297 H         3 FDL4        0.0000
     76 H           5.6818   22.0479    5.7567 H         3 FDL4        0.0000
     77 H           4.1804   22.8211    3.9407 H         3 FDL4        0.0000
     78 H           5.6094   23.0761    2.9244 H         3 FDL4        0.0000
     79 H           6.5669   24.5308    4.6110 H         3 FDL4        0.0000
     80 H           5.1665   24.2520    5.6604 H         3 FDL4        0.0000
     81 H           3.9210   25.0528    3.4113 H         3 FDL4        0.0000
     82 H           3.9836   23.3306   13.2886 H         3 FDL4        0.0000
     83 H           3.6163   23.4774   11.7298 H         3 FDL4        0.0000
     84 H           2.4795   23.0599   12.7879 H         3 FDL4        0.0000
     85 H           4.6988   28.5286    3.2128 H         3 FDL4        0.0000
     86 H           4.2842   27.3583    2.1907 H         3 FDL4        0.0000
     87 H           3.3950   27.6327    3.5022 H         3 FDL4        0.0000
@<TRIPOS>BOND
     1    2    1 1
     2   17    1 1
     3   18    1 1
     4   19    1 1
     5    3    2 1
     6    5    2 1
     7   11    2 1
     8    4    3 2
     9    6    5 1
    10   12    5 1
    11   13    5 1
    12    7    6 1
    13    8    6 2
    14    9    7 1
    15   14    7 1
    16   10    8 1
    17   15    8 1
    18   10    9 2
    19   16    9 1
    20   21   20 1
    21   29   20 1
    22   22   21 1
    23   24   21 1
    24   30   21 1
    25   23   22 2
    26   25   24 1
    27   31   24 1
    28   32   24 1
    29   26   25 1
    30   33   25 1
    31   34   25 1
    32   27   26 1
    33   35   26 1
    34   36   26 1
    35   28   27 1
    36   37   27 1
    37   38   27 1
    38   39   28 1
    39   40   28 1
    40   41   28 1
    41   43   42 1
    42   82   42 1
    43   83   42 1
    44   84   42 1
    45   44   43 2
    46   50   43 1
    47   45   44 1
    48   67   44 1
    49   46   45 2
    50   47   45 1
    51   48   47 1
    52   49   48 ar
    53   50   48 ar
    54   53   49 ar
    55   68   49 1
    56   51   50 ar
    57   52   51 ar
    58   69   51 1
    59   53   52 ar
    60   70   52 1
    61   54   53 1
    62   55   54 am
    63   71   54 1
    64   56   55 2
    65   57   55 1
    66   58   57 1
    67   59   57 1
    68   72   57 1
    69   60   59 1
    70   73   59 1
    71   74   59 1
    72   61   60 1
    73   75   60 1
    74   76   60 1
    75   62   61 1
    76   77   61 1
    77   78   61 1
    78   63   62 1
    79   79   62 1
    80   80   62 1
    81   64   63 am
    82   81   63 1
    83   65   64 2
    84   66   64 1
    85   85   66 1
    86   86   66 1
    87   87   66 1
    88   20    3 am
    89   58   22 1 
@<TRIPOS>SUBSTRUCTURE
     1 HIS2        1 RESIDUE
     2 LYS3       20 RESIDUE
     3 FDL4       42 GROUP
@<TRIPOS>SET

