#    Name: 3gcq_1BU_1_INTS_M
#    Modification time : Tue Mar 25 07:29:36 2014

@<TRIPOS>MOLECULE
3gcq_1BU_1_INTS_M
   94     0     9     0     0
SMALL
NO_CHARGES


@<TRIPOS>ATOM
      1 CA         -2.7390    2.0890  -23.5865 C.3       3 GLC5        0.0000 
      2 CA         -4.3180    0.6490  -23.6540 C.3       9 GLL5        0.0000 
      3 CA         -1.1600    3.5290  -23.5190 C.3       6 GLP5        0.0000 
      4 N          -3.8075    3.0715  -23.2220 N.am      2 SEC2        0.0000 
      5 N          -4.1680    1.7500  -22.8780 N.am      8 SEL2        0.0000 
      6 N          -3.4470    4.3930  -23.5660 N.am      5 SEP2        0.0000 
      7 CA         -0.2205   -9.4100  -16.9540 C.3       3 GLC5        0.0000 
      8 CA         -1.3250   -9.1450  -15.2800 C.3       9 GLL5        0.0000 
      9 CA          0.8840   -9.6750  -18.6280 C.3       6 GLP5        0.0000 
     10 CA         -1.9485  -10.8465  -12.7125 C.3       3 GLC5        0.0000 
     11 CA         -0.7960   -9.1210  -12.8080 C.3       9 GLL5        0.0000 
     12 CA         -3.1010  -12.5720  -12.6170 C.3       6 GLP5        0.0000 
     13 CA         -0.2340   -9.0150   -9.5615 C.3       3 GLC5        0.0000 
     14 CA         -0.2610   -8.4870  -11.6840 C.3       9 GLL5        0.0000 
     15 CA         -0.2070   -9.5430   -7.4390 C.3       6 GLP5        0.0000 
     16 CA         -1.4460   -7.0805  -10.9045 C.3       3 GLC5        0.0000 
     17 CA          0.2850   -7.1980  -11.8060 C.3       9 GLL5        0.0000 
     18 CA         -3.1770   -6.9630  -10.0030 C.3       6 GLP5        0.0000 
     19 CA          3.9950   -0.1000  -12.4925 C.3       3 GLC5        0.0000 
     20 CA          4.1820   -2.1630  -13.2290 C.3       9 GLL5        0.0000 
     21 CA          3.8080    1.9630  -11.7560 C.3       6 GLP5        0.0000 
     22 CA          5.6710   -1.0410  -12.2875 C.3       3 GLC5        0.0000 
     23 CA          7.1600    0.0810  -11.3460 C.3       6 GLP5        0.0000 
     24 CA          5.6240   -1.2985  -14.2645 C.3       3 GLC5        0.0000 
     25 CA          7.0660   -0.4340  -15.3000 C.3       6 GLP5        0.0000 
     26 CA          3.6390   -1.7080  -15.0535 C.3       3 GLC5        0.0000 
     27 CA          3.0960   -1.2530  -16.8780 C.3       6 GLP5        0.0000 
     28 CA          3.0930   -4.9570  -10.0950 C.3       3 GLC5        0.0000 
     29 CA          4.5120   -3.9770  -11.4990 C.3       9 GLL5        0.0000 
     30 CA          1.6740   -5.9370   -8.6910 C.3       6 GLP5        0.0000 
     31 CA          5.4920   -4.3715   -9.5535 C.3       3 GLC5        0.0000 
     32 CA          6.4720   -4.7660   -7.6080 C.3       6 GLP5        0.0000 
     33 CA          2.3020   -0.8030   -9.9315 C.3       3 GLC5        0.0000 
     34 CA          2.9340   -2.1760  -11.0100 C.3       9 GLL5        0.0000 
     35 CA          1.6700    0.5700   -8.8530 C.3       6 GLP5        0.0000 
     36 CA          3.3710   -0.1065  -11.3830 C.3       3 GLC5        0.0000 
     37 CA          0.8270   -1.4385  -13.8750 C.3       3 GLC5        0.0000 
     38 CA          1.2560   -3.2410  -13.5170 C.3       9 GLL5        0.0000 
     39 CA          0.3980    0.3640  -14.2330 C.3       6 GLP5        0.0000 
     40 CA          2.1760   -2.2470  -15.1975 C.3       3 GLC5        0.0000 
     41 O          -2.0185   -4.9915  -14.5605 O.2       1 ALC1        0.0000 
     42 O          -0.7620   -4.2580  -14.4600 O.2       7 ALL1        0.0000 
     43 O          -3.2750   -5.7250  -14.6610 O.2       4 ALP1        0.0000 
     44 N           1.1620   -3.1900  -16.5720 N.am      2 SEC2        0.0000 
     45 N          -0.1680   -2.7520  -16.0890 N.am      8 SEL2        0.0000 
     46 N           2.4920   -3.6280  -17.0550 N.am      5 SEP2        0.0000 
     47 O          -2.7455   -4.6900  -15.3930 O.2       1 ALC1        0.0000 
     48 O          -2.2160   -3.6550  -16.1250 O.2       7 ALL1        0.0000 
     49 CA         -0.6895   -4.5950  -19.2660 C.3       3 GLC5        0.0000 
     50 CA         -1.8950   -2.9900  -18.3740 C.3       9 GLL5        0.0000 
     51 CA          0.5160   -6.2000  -20.1580 C.3       6 GLP5        0.0000 
     52 CA         -2.8820   -1.0895  -17.1360 C.3       3 GLC5        0.0000 
     53 CA         -4.0940   -2.9160  -17.4410 C.3       9 GLL5        0.0000 
     54 CA         -1.6700    0.7370  -16.8310 C.3       6 GLP5        0.0000 
     55 O          -5.6740   -2.9725  -27.5585 O.2       1 ALC1        0.0000 
     56 O          -4.7840   -2.6930  -26.0800 O.2       7 ALL1        0.0000 
     57 O          -6.5640   -3.2520  -29.0370 O.2       4 ALP1        0.0000 
     58 CA         -5.7280    1.5430  -21.5710 C.3       3 GLC5        0.0000 
     59 CA         -4.0390    1.6240  -21.5650 C.3       9 GLL5        0.0000 
     60 CA         -7.4170    1.4620  -21.5770 C.3       6 GLP5        0.0000 
     61 CA         -4.7905    3.3905  -22.1030 C.3       3 GLC5        0.0000 
     62 CA         -5.5420    5.1570  -22.6410 C.3       6 GLP5        0.0000 
     63 CA         -2.5995    2.5765  -22.5420 C.3       3 GLC5        0.0000 
     64 CA         -5.6820    2.1058  -24.6418 C.3       3 GLC5        0.0000 
     65 CA         -6.9810    3.4920  -24.9340 C.3       6 GLP5        0.0000 
     66 CA         -6.2435   -1.2757  -22.8315 C.3       3 GLC5        0.0000 
     67 CA         -4.3510   -0.6200  -23.0690 C.3       9 GLL5        0.0000 
     68 CA         -8.2050   -1.8890  -23.3000 C.3       6 GLP5        0.0000 
     69 CA         -5.8454    0.5584  -22.0431 C.3       3 GLC5        0.0000 
     70 CA         -4.2130   -0.7050  -21.6570 C.3       9 GLL5        0.0000 
     71 CA          1.5010   -6.3275  -14.7360 C.3       3 GLC5        0.0000 
     72 CA         -0.1860   -7.1980  -14.1680 C.3       9 GLL5        0.0000 
     73 CA          2.9260   -5.7770  -15.8660 C.3       6 GLP5        0.0000 
     74 CA         -2.0882   -8.0720  -11.8300 C.3       3 GLC5        0.0000 
     75 CA         -3.6480   -7.3400  -11.4140 C.3       6 GLP5        0.0000 
     76 CA          0.8430   -6.8898  -10.2180 C.3       3 GLC5        0.0000 
     77 CA         -1.8188   -6.6610  -12.9579 C.3       3 GLC5        0.0000 
     78 CA          0.3380   -6.5580  -13.0440 C.3       9 GLL5        0.0000 
     79 CA         -3.5720   -6.1250  -12.3410 C.3       6 GLP5        0.0000 
     80 CA         -0.5437   -2.5070  -12.9633 C.3       3 GLC5        0.0000 
     81 CA          0.3850   -4.2690  -13.7420 C.3       9 GLL5        0.0000 
     82 CA         -1.9080   -1.2590  -12.2970 C.3       6 GLP5        0.0000 
     83 CA          1.8733   -4.7660  -14.7477 C.3       3 GLC5        0.0000 
     84 CA         -0.2075   -2.3315  -19.4790 C.3       3 GLC5        0.0000 
     85 CA          1.7290   -1.8880  -19.9650 C.3       6 GLP5        0.0000 
     86 CA         -2.0104   -1.0387  -17.7732 C.3       3 GLC5        0.0000 
     87 CA         -2.3930   -2.5600  -19.6120 C.3       9 GLL5        0.0000 
     88 CA         -5.5708   -4.2037  -18.5617 C.3       3 GLC5        0.0000 
     89 CA         -6.7990   -5.7120  -19.0550 C.3       6 GLP5        0.0000 
     90 CA         -6.3885   -1.7913  -23.9398 C.3       3 GLC5        0.0000 
     91 CA         -4.5070   -1.7670  -23.8810 C.3       9 GLL5        0.0000 
     92 CA         -6.3942   -1.0385  -26.1562 C.3       3 GLC5        0.0000 
     93 CA         -4.6370   -1.6200  -25.2780 C.3       9 GLL5        0.0000 
     94 CA         -8.1680   -1.0940  -26.7510 C.3       6 GLP5        0.0000 
@<TRIPOS>BOND
@<TRIPOS>SUBSTRUCTURE
     1 ALC1       41 GROUP        1 X    ALC  0     ROOT ALC X 1
     2 SEC2        4 GROUP        1 X    SEC  0     **** SEC X 2
     3 GLC5        1 GROUP        1 X    GLC  0     **** GLC X 6
     4 ALP1       43 GROUP        1 Y    ALP  0     ROOT ALP Y 8
     5 SEP2        6 GROUP        1 Y    SEP  0     **** SEP Y 9
     6 GLP5        3 GROUP        1 Y    GLP  0     **** GLP Y 13
     7 ALL1       42 GROUP        1 Z    ALL  0     ROOT ALL Z 15
     8 SEL2        5 GROUP        1 Z    SEL  0     **** SEL Z 16
     9 GLL5        2 GROUP        1 Z    GLL  0     **** GLL Z 20
@<TRIPOS>SET

