#    Name: 3gcq_1BU_1_ligand
#    Modification time : Tue Mar 25 07:29:36 2014

@<TRIPOS>MOLECULE
3gcq_1BU_1_ligand
   68    72     1     0     0
SMALL
NO_CHARGES


@<TRIPOS>ATOM
      1 C4         -4.3180    0.6490  -23.6540 C.ar      1 1BU401      0.0000 
      2 C5         -4.3510   -0.6200  -23.0690 C.ar      1 1BU401      0.0000 
      3 C6         -4.2130   -0.7050  -21.6570 C.ar      1 1BU401      0.0000 
      4 N1         -4.0790    0.4360  -20.9570 N.ar      1 1BU401      0.0000 
      5 N3         -4.1680    1.7500  -22.8780 N.ar      1 1BU401      0.0000 
      6 CAA        -1.3250   -9.1450  -15.2800 C.3       1 1BU401      0.0000 
      7 CBA        -0.7520   -8.4740  -14.0430 C.ar      1 1BU401      0.0000 
      8 CAQ        -0.1860   -7.1980  -14.1680 C.ar      1 1BU401      0.0000 
      9 CAI        -0.7960   -9.1210  -12.8080 C.ar      1 1BU401      0.0000 
     10 CAG        -0.2610   -8.4870  -11.6840 C.ar      1 1BU401      0.0000 
     11 CAJ         0.2850   -7.1980  -11.8060 C.ar      1 1BU401      0.0000 
     12 CBE         0.3380   -6.5580  -13.0440 C.ar      1 1BU401      0.0000 
     13 NBK         0.8780   -5.3450  -13.1050 N.pl3     1 1BU401      0.0000 
     14 NAV         1.9490   -5.0460  -12.5350 N.2       1 1BU401      0.0000 
     15 CBF         2.2370   -3.7650  -12.7480 C.2       1 1BU401      0.0000 
     16 CBL         3.4900   -3.0330  -12.1500 C.3       1 1BU401      0.0000 
     17 CAC         4.1820   -2.1630  -13.2290 C.3       1 1BU401      0.0000 
     18 CAD         4.5120   -3.9770  -11.4990 C.3       1 1BU401      0.0000 
     19 CAB         2.9340   -2.1760  -11.0100 C.3       1 1BU401      0.0000 
     20 CAR         1.2560   -3.2410  -13.5170 C.2       1 1BU401      0.0000 
     21 CBG         0.3850   -4.2690  -13.7420 C.2       1 1BU401      0.0000 
     22 NAX        -0.7620   -4.2580  -14.4600 N.am      1 1BU401      0.0000 
     23 CAZ        -0.9930   -3.5400  -15.6000 C.2       1 1BU401      0.0000 
     24 OAF        -0.1680   -2.7520  -16.0890 O.2       1 1BU401      0.0000 
     25 NAW        -2.2160   -3.6550  -16.1250 N.am      1 1BU401      0.0000 
     26 CBC        -2.7220   -3.1480  -17.2640 C.ar      1 1BU401      0.0000 
     27 CAL        -1.8950   -2.9900  -18.3740 C.ar      1 1BU401      0.0000 
     28 CAN        -2.3930   -2.5600  -19.6120 C.ar      1 1BU401      0.0000 
     29 CAK        -4.0940   -2.9160  -17.4410 C.ar      1 1BU401      0.0000 
     30 CAM        -4.5910   -2.4750  -18.6960 C.ar      1 1BU401      0.0000 
     31 CBD        -3.7550   -2.2800  -19.7950 C.ar      1 1BU401      0.0000 
     32 NAY        -4.2440   -1.9020  -21.0370 N.pl3     1 1BU401      0.0000 
     33 CAS        -4.5070   -1.7670  -23.8810 C.ar      1 1BU401      0.0000 
     34 CBB        -4.6370   -1.6200  -25.2780 C.ar      1 1BU401      0.0000 
     35 NAE        -4.7840   -2.6930  -26.0800 N.pl3     1 1BU401      0.0000 
     36 CAO        -4.6040   -0.3460  -25.8450 C.ar      1 1BU401      0.0000 
     37 CAP        -4.4480    0.7900  -25.0450 C.ar      1 1BU401      0.0000 
     38 C2         -4.0390    1.6240  -21.5650 C.ar      1 1BU401      0.0000 
     39 H          -0.1583   -6.7385  -15.0832 H         1 1BU401      0.0000 
     40 H          -1.2151  -10.0492  -12.7253 H         1 1BU401      0.0000 
     41 H          -0.2649   -8.9556  -10.7751 H         1 1BU401      0.0000 
     42 H           0.6500   -6.7230  -10.9667 H         1 1BU401      0.0000 
     43 H           1.1813   -2.3568  -13.8344 H         1 1BU401      0.0000 
     44 H          -1.5759   -4.8736  -14.1025 H         1 1BU401      0.0000 
     45 H          -2.9324   -4.2664  -15.5282 H         1 1BU401      0.0000 
     46 H          -0.8805   -3.1956  -18.2857 H         1 1BU401      0.0000 
     47 H          -1.7419   -2.4467  -20.4079 H         1 1BU401      0.0000 
     48 H          -4.7467   -3.0631  -16.6661 H         1 1BU401      0.0000 
     49 H          -5.6084   -2.2954  -18.7871 H         1 1BU401      0.0000 
     50 H          -4.7349   -2.7223  -21.5971 H         1 1BU401      0.0000 
     51 H          -4.5252   -2.6933  -23.4584 H         1 1BU401      0.0000 
     52 H          -4.8616   -2.5034  -27.0588 H         1 1BU401      0.0000 
     53 H          -4.8024   -3.5833  -25.6249 H         1 1BU401      0.0000 
     54 H          -4.6957   -0.2391  -26.8673 H         1 1BU401      0.0000 
     55 H          -4.4283    1.7207  -25.4685 H         1 1BU401      0.0000 
     56 H          -3.8988    2.4955  -20.9724 H         1 1BU401      0.0000 
     57 H          -0.6320   -9.2682  -15.9904 H         1 1BU401      0.0000 
     58 H          -1.6967  -10.0500  -15.0731 H         1 1BU401      0.0000 
     59 H          -2.0664   -8.6089  -15.6836 H         1 1BU401      0.0000 
     60 H           4.9828   -1.6873  -12.8651 H         1 1BU401      0.0000 
     61 H           4.4943   -2.7118  -14.0044 H         1 1BU401      0.0000 
     62 H           3.5665   -1.4642  -13.5935 H         1 1BU401      0.0000 
     63 H           4.8695   -4.6446  -12.1521 H         1 1BU401      0.0000 
     64 H           5.2965   -3.4780  -11.1308 H         1 1BU401      0.0000 
     65 H           4.1113   -4.4931  -10.7420 H         1 1BU401      0.0000 
     66 H           3.6546   -1.6574  -10.5498 H         1 1BU401      0.0000 
     67 H           2.2600   -1.5139  -11.3377 H         1 1BU401      0.0000 
     68 H           2.4827   -2.7329  -10.3127 H         1 1BU401      0.0000 
@<TRIPOS>BOND
     1    2    1 ar   
     2    5    1 ar   
     3   37    1 ar   
     4    3    2 ar   
     5   33    2 ar   
     6    4    3 ar   
     7   32    3 1    
     8   38    4 ar   
     9   38    5 ar   
    10    7    6 1    
    11   57    6 1    
    12   58    6 1    
    13   59    6 1    
    14    8    7 ar   
    15    9    7 ar   
    16   12    8 ar   
    17   39    8 1    
    18   10    9 ar   
    19   40    9 1    
    20   11   10 ar   
    21   41   10 1    
    22   12   11 ar   
    23   42   11 1    
    24   13   12 1    
    25   14   13 1    
    26   21   13 1    
    27   15   14 2    
    28   16   15 1    
    29   20   15 1    
    30   17   16 1    
    31   18   16 1    
    32   19   16 1    
    33   60   17 1    
    34   61   17 1    
    35   62   17 1    
    36   63   18 1    
    37   64   18 1    
    38   65   18 1    
    39   66   19 1    
    40   67   19 1    
    41   68   19 1    
    42   21   20 2    
    43   43   20 1    
    44   22   21 1    
    45   23   22 am   
    46   44   22 1    
    47   24   23 2    
    48   25   23 am   
    49   26   25 1    
    50   45   25 1    
    51   27   26 ar   
    52   29   26 ar   
    53   28   27 ar   
    54   46   27 1    
    55   31   28 ar   
    56   47   28 1    
    57   30   29 ar   
    58   48   29 1    
    59   31   30 ar   
    60   49   30 1    
    61   32   31 1    
    62   50   32 1    
    63   34   33 ar   
    64   51   33 1    
    65   35   34 1    
    66   36   34 ar   
    67   52   35 1    
    68   53   35 1    
    69   37   36 ar   
    70   54   36 1    
    71   55   37 1    
    72   56   38 1    
@<TRIPOS>SUBSTRUCTURE
     1 1BU401      1 GROUP   
@<TRIPOS>SET

