#    Name: 4O8E_1_CAVITY_N1_ALL.mol2
#    Modification time : Tue Mar 11 17:21:44 2014

@<TRIPOS>MOLECULE
4O8E_1_CAVITY_N1_ALL.mol2
   91     0     6     0     0
SMALL
NO_CHARGES


@<TRIPOS>ATOM
      1 O         -11.4495  -20.4277   -7.0076 O.2       2 ALA2        0.0000 
      2 NZ        -12.3032  -20.7636   -5.8209 N.2       3 LYS4        0.0000 
      3 CA        -10.2246  -20.8272   -6.2396 C.3       5 GLY6        0.0000 
      4 NZ        -11.0782  -21.1631   -5.0528 N.2       3 LYS4        0.0000 
      5 CA        -10.3687  -22.2335   -6.7413 C.3       5 GLY6        0.0000 
      6 NZ        -11.2223  -22.5694   -5.5545 N.2       3 LYS4        0.0000 
      7 NZ        -12.0760  -22.9053   -4.3677 N.2       3 LYS4        0.0000 
      8 NZ        -12.2201  -24.3115   -4.8694 N.2       3 LYS4        0.0000 
      9 CA         -9.7091  -20.1564   -3.7831 C.3       5 GLY6        0.0000 
     10 CA         -4.7313  -19.5472  -11.4055 C.3       5 GLY6        0.0000 
     11 O          -5.5850  -19.8832  -10.2187 O.2       2 ALA2        0.0000 
     12 O          -6.4386  -20.2191   -9.0319 O.2       2 ALA2        0.0000 
     13 O          -8.9996  -21.2268   -5.4716 O.2       2 ALA2        0.0000 
     14 NZ         -9.8533  -21.5627   -4.2848 N.2       3 LYS4        0.0000 
     15 NZ        -10.7069  -21.8986   -3.0980 N.2       3 LYS4        0.0000 
     16 DU         -5.7291  -21.2894  -10.7204 H         6 CUB7        0.0000 
     17 CA         -6.5828  -21.6253   -9.5336 C.3       5 GLY6        0.0000 
     18 CA         -7.4364  -21.9612   -8.3468 C.3       5 GLY6        0.0000 
     19 CA         -8.2901  -22.2971   -7.1600 C.3       5 GLY6        0.0000 
     20 DU         -9.1437  -22.6330   -5.9733 H         6 CUB7        0.0000 
     21 CZ         -9.9974  -22.9689   -4.7865 C.ar      4 PHE5        0.0000 
     22 CZ        -10.8510  -23.3048   -3.5997 C.ar      4 PHE5        0.0000 
     23 CA        -11.7047  -23.6407   -2.4129 C.3       5 GLY6        0.0000 
     24 DU         -6.7269  -23.0316  -10.0353 H         6 CUB7        0.0000 
     25 CZ        -10.1415  -24.3752   -5.2882 C.ar      4 PHE5        0.0000 
     26 N          -8.4842  -20.5560   -3.0151 N.2       2 ALA2        0.0000 
     27 CZ         -4.3600  -20.2827   -9.4507 C.ar      4 PHE5        0.0000 
     28 O          -5.2137  -20.6186   -8.2639 O.2       2 ALA2        0.0000 
     29 CA         -6.0673  -20.9545   -7.0771 C.3       5 GLY6        0.0000 
     30 CA         -6.9210  -21.2904   -5.8903 C.3       5 GLY6        0.0000 
     31 N          -7.7747  -21.6263   -4.7036 N.2       2 ALA2        0.0000 
     32 CZ         -8.6283  -21.9622   -3.5168 C.ar      4 PHE5        0.0000 
     33 CA         -9.4820  -22.2981   -2.3300 C.3       5 GLY6        0.0000 
     34 N          -2.7968  -21.0171  -12.3259 N.2       2 ALA2        0.0000 
     35 N          -3.6505  -21.3530  -11.1391 N.2       2 ALA2        0.0000 
     36 CZ         -4.5042  -21.6889   -9.9524 C.ar      4 PHE5        0.0000 
     37 CZ         -5.3578  -22.0248   -8.7656 C.ar      4 PHE5        0.0000 
     38 DU         -6.2115  -22.3608   -7.5788 H         6 CUB7        0.0000 
     39 DU         -7.0651  -22.6967   -6.3920 H         6 CUB7        0.0000 
     40 CZ         -7.9188  -23.0326   -5.2052 C.ar      4 PHE5        0.0000 
     41 CZ         -8.7724  -23.3685   -4.0185 C.ar      4 PHE5        0.0000 
     42 N          -3.7946  -22.7593  -11.6408 N.2       2 ALA2        0.0000 
     43 DU         -4.6483  -23.0952  -10.4540 H         6 CUB7        0.0000 
     44 DU         -5.5019  -23.4311   -9.2673 H         6 CUB7        0.0000 
     45 DU         -6.3556  -23.7670   -8.0805 H         6 CUB7        0.0000 
     46 OG         -7.2092  -24.1029   -6.8937 O.2       1 SER1        0.0000 
     47 N          -4.7924  -24.5014  -10.9557 N.2       2 ALA2        0.0000 
     48 DU         -5.6460  -24.8373   -9.7690 H         6 CUB7        0.0000 
     49 OG         -6.4997  -25.1732   -8.5822 O.2       1 SER1        0.0000 
     50 CA         -5.7902  -26.2436  -10.2706 C.3       5 GLY6        0.0000 
     51 OG         -6.6438  -26.5795   -9.0839 O.2       1 SER1        0.0000 
     52 CZ         -4.6983  -19.9478   -5.8074 C.ar      4 PHE5        0.0000 
     53 N          -5.5519  -20.2837   -4.6206 N.2       2 ALA2        0.0000 
     54 N          -6.4056  -20.6196   -3.4338 N.2       2 ALA2        0.0000 
     55 N          -7.2592  -20.9555   -2.2471 N.2       2 ALA2        0.0000 
     56 CZ         -4.8424  -21.3540   -6.3091 C.ar      4 PHE5        0.0000 
     57 N          -5.6961  -21.6899   -5.1223 N.2       2 ALA2        0.0000 
     58 CZ         -6.5497  -22.0258   -3.9355 C.ar      4 PHE5        0.0000 
     59 CZ         -7.4034  -22.3618   -2.7487 C.ar      4 PHE5        0.0000 
     60 CZ         -3.2792  -22.0885   -9.1843 C.ar      4 PHE5        0.0000 
     61 CZ         -4.1329  -22.4244   -7.9975 C.ar      4 PHE5        0.0000 
     62 DU         -4.9865  -22.7603   -6.8108 H         6 CUB7        0.0000 
     63 CZ         -5.8402  -23.0962   -5.6240 C.ar      4 PHE5        0.0000 
     64 CZ         -6.6938  -23.4321   -4.4372 C.ar      4 PHE5        0.0000 
     65 N          -3.4233  -23.4947   -9.6860 N.2       2 ALA2        0.0000 
     66 DU         -4.2770  -23.8306   -8.4992 H         6 CUB7        0.0000 
     67 OG         -5.1306  -24.1665   -7.3125 O.2       1 SER1        0.0000 
     68 OG         -5.9843  -24.5024   -6.1257 O.2       1 SER1        0.0000 
     69 N          -3.5674  -24.9010  -10.1877 N.2       2 ALA2        0.0000 
     70 N          -4.4211  -25.2369   -9.0009 N.2       2 ALA2        0.0000 
     71 OG         -5.2748  -25.5728   -7.8141 O.2       1 SER1        0.0000 
     72 CA         -4.5652  -26.6431   -9.5026 C.3       5 GLY6        0.0000 
     73 OG         -5.4189  -26.9790   -8.3158 O.2       1 SER1        0.0000 
     74 CA         -4.3270  -20.6832   -3.8526 C.3       5 GLY6        0.0000 
     75 CA         -5.1806  -21.0191   -2.6658 C.3       5 GLY6        0.0000 
     76 O          -6.0343  -21.3550   -1.4790 O.2       2 ALA2        0.0000 
     77 CZ         -3.6174  -21.7536   -5.5411 C.ar      4 PHE5        0.0000 
     78 CA         -4.4711  -22.0895   -4.3543 C.3       5 GLY6        0.0000 
     79 CZ         -5.3248  -22.4254   -3.1675 C.ar      4 PHE5        0.0000 
     80 CA         -6.1784  -22.7613   -1.9807 C.3       5 GLY6        0.0000 
     81 CZ         -2.9079  -22.8239   -7.2295 C.ar      4 PHE5        0.0000 
     82 NZ         -3.7616  -23.1598   -6.0427 N.2       3 LYS4        0.0000 
     83 CZ         -4.6152  -23.4957   -4.8560 C.ar      4 PHE5        0.0000 
     84 N          -3.0520  -24.2302   -7.7312 N.2       2 ALA2        0.0000 
     85 O          -3.9057  -24.5661   -6.5444 O.2       2 ALA2        0.0000 
     86 CZ         -4.7593  -24.9020   -5.3577 C.ar      4 PHE5        0.0000 
     87 N          -3.1961  -25.6364   -8.2329 N.2       2 ALA2        0.0000 
     88 OG         -4.0498  -25.9723   -7.0461 O.2       1 SER1        0.0000 
     89 O          -3.3403  -27.0427   -8.7346 O.2       2 ALA2        0.0000 
     90 CA         -3.2461  -22.4890   -3.5862 C.3       5 GLY6        0.0000 
     91 CA         -4.0998  -22.8249   -2.3995 C.3       5 GLY6        0.0000 
@<TRIPOS>BOND
@<TRIPOS>SUBSTRUCTURE
     1 SER1       46 GROUP   
     2 ALA2        1 GROUP   
     3 LYS4        2 GROUP   
     4 PHE5       21 GROUP   
     5 GLY6        3 GROUP   
     6 CUB7       16 GROUP   
@<TRIPOS>SET

