#    Name: 4o8e_UTP_1_INTS_M
#    Modification time : Tue Mar 25 13:33:09 2014

@<TRIPOS>MOLECULE
4o8e_UTP_1_INTS_M
   34     0     6     0     0
SMALL
NO_CHARGES


@<TRIPOS>ATOM
      1 N         -11.3715  -20.0445   -2.0120 N.am      1 SEC2        0.0000 
      2 N         -10.4490  -20.7510   -1.1670 N.am      5 SEL2        0.0000 
      3 N         -12.2940  -19.3380   -2.8570 N.am      3 SEP2        0.0000 
      4 CA         -7.0060  -21.2290    0.6425 C.3       2 GLC5        0.0000 
      5 CA         -6.8650  -20.8220   -1.1690 C.3       6 GLL5        0.0000 
      6 CA         -7.1470  -21.6360    2.4540 C.3       4 GLP5        0.0000 
      7 CA         -7.7590  -19.1505   -0.3440 C.3       2 GLC5        0.0000 
      8 CA         -8.6530  -17.4790    0.4810 C.3       4 GLP5        0.0000 
      9 N          -2.7820  -24.4660   -3.7200 N.am      1 SEC2        0.0000 
     10 N          -3.5510  -23.3770   -3.8050 N.am      5 SEL2        0.0000 
     11 N          -2.0130  -25.5550   -3.6350 N.am      3 SEP2        0.0000 
     12 N          -3.6995  -24.8970   -3.1925 N.am      1 SEC2        0.0000 
     13 N          -3.8480  -26.4170   -2.5800 N.am      3 SEP2        0.0000 
     14 CA         -5.8885  -23.3050   -0.9440 C.3       2 GLC5        0.0000 
     15 CA         -4.6060  -22.0310   -1.9190 C.3       6 GLL5        0.0000 
     16 CA         -7.1710  -24.5790    0.0310 C.3       4 GLP5        0.0000 
     17 N          -5.8110  -19.3050   -8.5165 N.am      1 SEC2        0.0000 
     18 N          -5.8010  -20.7240   -9.1550 N.am      5 SEL2        0.0000 
     19 N          -5.8210  -17.8860   -7.8780 N.am      3 SEP2        0.0000 
     20 CA         -6.8315  -22.9503   -0.7840 C.3       2 GLC5        0.0000 
     21 CA         -6.1190  -21.8210   -2.0290 C.3       6 GLL5        0.0000 
     22 CA         -5.2310  -19.7512   -1.6065 C.3       2 GLC5        0.0000 
     23 CA         -3.9700  -18.1810   -1.6140 C.3       4 GLP5        0.0000 
     24 CA         -5.7290  -23.8800   -3.1800 C.3       2 GLC5        0.0000 
     25 CA         -4.1570  -22.1730   -3.3850 C.3       6 GLL5        0.0000 
     26 CA         -6.6500  -25.5550   -2.6140 C.3       4 GLP5        0.0000 
     27 CA         -3.0623  -21.2430   -2.3270 C.3       2 GLC5        0.0000 
     28 CA         -1.7430  -20.3840   -2.0020 C.3       4 GLP5        0.0000 
     29 CA         -6.3325  -19.5630   -6.6463 C.3       2 GLC5        0.0000 
     30 CA         -4.7090  -20.8050   -5.8220 C.3       6 GLL5        0.0000 
     31 CA         -7.8970  -18.5010   -6.8100 C.3       4 GLP5        0.0000 
     32 CA         -3.4710  -20.2950   -7.2367 C.3       2 GLC5        0.0000 
     33 CA         -4.8270  -20.4450   -7.1430 C.3       6 GLL5        0.0000 
     34 CA         -2.1740  -19.9650   -7.9910 C.3       4 GLP5        0.0000 
@<TRIPOS>BOND
@<TRIPOS>SUBSTRUCTURE
     1 SEC2        1 GROUP        1 X    SEC  0     ROOT SEC X 2
     2 GLC5        4 GROUP        1 X    GLC  0     **** GLC X 6
     3 SEP2        3 GROUP        1 Y    SEP  0     ROOT SEP Y 9
     4 GLP5        6 GROUP        1 Y    GLP  0     **** GLP Y 13
     5 SEL2        2 GROUP        1 Z    SEL  0     ROOT SEL Z 16
     6 GLL5        5 GROUP        1 Z    GLL  0     **** GLL Z 20
@<TRIPOS>SET

