#    Name: 4o8e_UTP_1_ligand
#    Modification time : Tue Mar 25 13:33:09 2014

@<TRIPOS>MOLECULE
4o8e_UTP_1_ligand
   40    41     1     0     0
SMALL
NO_CHARGES


@<TRIPOS>ATOM
      1 PA         -9.4180  -21.0950   -2.1680 P.3       1 UTP304      0.0000 
      2 O1A       -10.4490  -20.7510   -1.1670 O.co2     1 UTP304      0.0000 
      3 O2A        -9.1160  -22.5320   -2.4020 O.co2     1 UTP304      0.0000 
      4 O3A       -10.0030  -20.5990   -3.5600 O.3       1 UTP304      0.0000 
      5 O5'        -8.0370  -20.3100   -1.8430 O.3       1 UTP304      0.0000 
      6 PB        -10.4730  -21.6370   -4.6650 P.3       1 UTP304      0.0000 
      7 O1B        -9.1810  -22.0340   -5.2370 O.co2     1 UTP304      0.0000 
      8 O2B       -11.3520  -22.7140   -4.0970 O.co2     1 UTP304      0.0000 
      9 O3B       -11.2740  -20.7100   -5.7080 O.3       1 UTP304      0.0000 
     10 PG        -11.9980  -21.1950   -7.0610 P.3       1 UTP304      0.0000 
     11 O1G       -10.9960  -21.1610   -8.1680 O.co2     1 UTP304      0.0000 
     12 O2G       -13.1020  -20.2550   -7.3620 O.co2     1 UTP304      0.0000 
     13 O3G       -12.4330  -22.5860   -6.7010 O.co2     1 UTP304      0.0000 
     14 C5'        -6.8650  -20.8220   -1.1690 C.3       1 UTP304      0.0000 
     15 C4'        -6.1190  -21.8210   -2.0290 C.3       1 UTP304      0.0000 
     16 O4'        -6.2990  -21.3900   -3.3650 O.3       1 UTP304      0.0000 
     17 C1'        -5.4590  -22.2370   -4.1070 C.3       1 UTP304      0.0000 
     18 C2'        -4.1570  -22.1730   -3.3850 C.3       1 UTP304      0.0000 
     19 O2'        -3.5510  -23.3770   -3.8050 O.3       1 UTP304      0.0000 
     20 C3'        -4.6060  -22.0310   -1.9190 C.3       1 UTP304      0.0000 
     21 O3'        -4.1380  -23.1440   -1.1170 O.3       1 UTP304      0.0000 
     22 N1         -5.4600  -21.7890   -5.4380 N.am      1 UTP304      0.0000 
     23 C6         -4.7090  -20.8050   -5.8220 C.2       1 UTP304      0.0000 
     24 C2         -6.3660  -22.4080   -6.3100 C.2       1 UTP304      0.0000 
     25 O2         -7.0940  -23.3390   -5.9510 O.2       1 UTP304      0.0000 
     26 N3         -6.4650  -22.0260   -7.5640 N.am      1 UTP304      0.0000 
     27 C4         -5.7170  -21.0530   -7.9850 C.2       1 UTP304      0.0000 
     28 O4         -5.8010  -20.7240   -9.1550 O.2       1 UTP304      0.0000 
     29 C5         -4.8270  -20.4450   -7.1430 C.2       1 UTP304      0.0000 
     30 H          -7.1401  -21.3197   -0.2239 H         1 UTP304      0.0000 
     31 H          -6.1708  -20.0048   -0.9106 H         1 UTP304      0.0000 
     32 H          -6.6041  -22.8044   -1.9390 H         1 UTP304      0.0000 
     33 H          -5.8374  -23.2559   -4.0233 H         1 UTP304      0.0000 
     34 H          -3.6673  -21.3005   -3.7019 H         1 UTP304      0.0000 
     35 H          -4.1765  -21.0779   -1.5807 H         1 UTP304      0.0000 
     36 H          -4.0609  -20.3056   -5.2147 H         1 UTP304      0.0000 
     37 H          -7.1408  -22.5056   -8.2080 H         1 UTP304      0.0000 
     38 H          -4.2137  -19.6791   -7.5148 H         1 UTP304      0.0000 
     39 H          -2.9645  -23.1175   -4.5723 H         1 UTP304      0.0000 
     40 H          -3.8258  -23.8261   -1.7782 H         1 UTP304      0.0000 
@<TRIPOS>BOND
     1    2    1 ar   
     2    3    1 ar   
     3    4    1 1    
     4    5    1 1    
     5    6    4 1    
     6   14    5 1    
     7    7    6 ar   
     8    8    6 ar   
     9    9    6 1    
    10   10    9 1    
    11   11   10 ar   
    12   12   10 ar   
    13   13   10 ar   
    14   15   14 1    
    15   30   14 1    
    16   31   14 1    
    17   16   15 1    
    18   20   15 1    
    19   32   15 1    
    20   17   16 1    
    21   18   17 1    
    22   22   17 1    
    23   33   17 1    
    24   19   18 1    
    25   20   18 1    
    26   34   18 1    
    27   39   19 1    
    28   21   20 1    
    29   35   20 1    
    30   40   21 1    
    31   23   22 1    
    32   24   22 1    
    33   29   23 2    
    34   36   23 1    
    35   25   24 2    
    36   26   24 1    
    37   27   26 1    
    38   37   26 1    
    39   28   27 2    
    40   29   27 1    
    41   38   29 1    
@<TRIPOS>SUBSTRUCTURE
     1 UTP304      1 GROUP   
@<TRIPOS>SET

