#    Name: 3qxy_SAM_2_INTS_M
#    Modification time : Tue Mar 25 10:22:10 2014

@<TRIPOS>MOLECULE
3qxy_SAM_2_INTS_M
   63     0     9     0     0
SMALL
NO_CHARGES


@<TRIPOS>ATOM
      1 O          58.2505    9.8290   63.2240 O.2       1 ALC1        0.0000 
      2 O          59.2150    9.5500   62.2310 O.2       7 ALL1        0.0000 
      3 O          57.2860   10.1080   64.2170 O.2       4 ALP1        0.0000 
      4 O          59.9980    8.8060   63.0750 O.2       1 ALC1        0.0000 
      5 O          60.7810    8.0620   63.9190 O.2       4 ALP1        0.0000 
      6 N          57.1325   11.8040   61.8500 N.am      2 SEC2        0.0000 
      7 N          57.5160   11.0960   60.6400 N.am      8 SEL2        0.0000 
      8 N          56.7490   12.5120   63.0600 N.am      5 SEP2        0.0000 
      9 N          57.7305    9.1305   58.2955 N.am      2 SEC2        0.0000 
     10 N          56.9730    9.5220   59.3560 N.am      8 SEL2        0.0000 
     11 N          58.4880    8.7390   57.2350 N.am      5 SEP2        0.0000 
     12 CA         57.5255    7.1870   59.3060 C.3       3 GLC5        0.0000 
     13 CA         57.8980    7.6280   61.4280 C.3       9 GLL5        0.0000 
     14 CA         57.1530    6.7460   57.1840 C.3       6 GLP5        0.0000 
     15 CA         56.2315    6.7540   62.1330 C.3       3 GLC5        0.0000 
     16 CA         54.5650    5.8800   62.8380 C.3       6 GLP5        0.0000 
     17 CA         59.7690    6.0155   63.4200 C.3       3 GLC5        0.0000 
     18 CA         58.8900    6.4550   61.4420 C.3       9 GLL5        0.0000 
     19 CA         60.6480    5.5760   65.3980 C.3       6 GLP5        0.0000 
     20 CA         58.1990    6.3375   58.4600 C.3       3 GLC5        0.0000 
     21 CA         59.2450    5.9290   59.7360 C.3       9 GLL5        0.0000 
     22 CA         57.8715    4.8165   58.2735 C.3       3 GLC5        0.0000 
     23 CA         58.7710    4.1830   59.8230 C.3       9 GLL5        0.0000 
     24 CA         56.9720    5.4500   56.7240 C.3       6 GLP5        0.0000 
     25 CA         56.9380    3.4805   59.4110 C.3       3 GLC5        0.0000 
     26 CA         55.1050    2.7780   58.9990 C.3       6 GLP5        0.0000 
     27 CA         60.2760    3.4935   61.0440 C.3       3 GLC5        0.0000 
     28 CA         61.7810    2.8040   62.2650 C.3       6 GLP5        0.0000 
     29 CA         61.4200    4.2790   60.9600 C.3       3 GLC5        0.0000 
     30 CA         61.0590    5.7540   59.6550 C.3       9 GLL5        0.0000 
     31 CA         64.7245    5.7865   58.6545 C.3       3 GLC5        0.0000 
     32 CA         63.2420    7.0470   59.2560 C.3       9 GLL5        0.0000 
     33 CA         66.2070    4.5260   58.0530 C.3       6 GLP5        0.0000 
     34 O          64.7385    7.2015   57.6105 O.2       1 ALC1        0.0000 
     35 O          63.4930    7.0520   57.8730 O.2       7 ALL1        0.0000 
     36 O          65.9840    7.3510   57.3480 O.2       4 ALP1        0.0000 
     37 CA         62.8255   10.1885   62.3275 C.3       3 GLC5        0.0000 
     38 CA         62.8860    8.4370   61.1200 C.3       9 GLL5        0.0000 
     39 CA         62.7650   11.9400   63.5350 C.3       6 GLP5        0.0000 
     40 N          63.3425    5.4240   64.8545 N.am      2 SEC2        0.0000 
     41 N          63.9540    6.5070   64.0050 N.am      8 SEL2        0.0000 
     42 N          62.7310    4.3410   65.7040 N.am      5 SEP2        0.0000 
     43 CA         62.9400    7.2570   65.0475 C.3       3 GLC5        0.0000 
     44 CA         64.7610    7.5920   64.1250 C.3       9 GLL5        0.0000 
     45 CA         61.1190    6.9220   65.9700 C.3       6 GLP5        0.0000 
     46 O          65.6360    5.8500   66.5195 O.2       1 ALC1        0.0000 
     47 O          66.0230    7.1620   66.0770 O.2       7 ALL1        0.0000 
     48 O          65.2490    4.5380   66.9620 O.2       4 ALP1        0.0000 
     49 CA         64.7020    9.8005   65.5200 C.3       3 GLC5        0.0000 
     50 CA         66.0780    9.9920   63.8430 C.3       9 GLL5        0.0000 
     51 CA         63.3260    9.6090   67.1970 C.3       6 GLP5        0.0000 
     52 CA         64.4215   10.9660   63.6890 C.3       3 GLC5        0.0000 
     53 CA         67.1110    9.3470   62.4120 C.3       3 GLC5        0.0000 
     54 CA         68.1440    8.7020   60.9810 C.3       6 GLP5        0.0000 
     55 CA         63.6185   10.1940   63.3040 C.3       3 GLC5        0.0000 
     56 CA         64.4720    8.4480   63.0730 C.3       9 GLL5        0.0000 
     57 CA         66.3080    8.5750   62.0270 C.3       3 GLC5        0.0000 
     58 CA         60.3023    6.6635   57.7800 C.3       3 GLC5        0.0000 
     59 CA         61.7580    7.1060   59.5890 C.3       9 GLL5        0.0000 
     60 CA         59.1960    6.8970   55.9380 C.3       6 GLP5        0.0000 
     61 CA         64.9834    7.3232   60.6172 C.3       3 GLC5        0.0000 
     62 CA         66.7680    6.5920   60.8820 C.3       6 GLP5        0.0000 
     63 CA         64.0910    8.8603   65.5140 C.3       3 GLC5        0.0000 
@<TRIPOS>BOND
@<TRIPOS>SUBSTRUCTURE
     1 ALC1        1 GROUP        1 X    ALC  0     ROOT ALC X 1
     2 SEC2        6 GROUP        1 X    SEC  0     **** SEC X 2
     3 GLC5       12 GROUP        1 X    GLC  0     **** GLC X 6
     4 ALP1        3 GROUP        1 Y    ALP  0     ROOT ALP Y 8
     5 SEP2        8 GROUP        1 Y    SEP  0     **** SEP Y 9
     6 GLP5       14 GROUP        1 Y    GLP  0     **** GLP Y 13
     7 ALL1        2 GROUP        1 Z    ALL  0     ROOT ALL Z 15
     8 SEL2        7 GROUP        1 Z    SEL  0     **** SEL Z 16
     9 GLL5       13 GROUP        1 Z    GLL  0     **** GLL Z 20
@<TRIPOS>SET

