#    Name: 3qxy_SAM_2_ligand
#    Modification time : Tue Mar 25 10:22:10 2014

@<TRIPOS>MOLECULE
3qxy_SAM_2_ligand
   50    52     1     0     0
SMALL
NO_CHARGES


@<TRIPOS>ATOM
      1 N          59.2150    9.5500   62.2310 N.4       1 SAM6735     0.0000 
      2 CA         58.5810    8.9500   61.0590 C.3       1 SAM6735     0.0000 
      3 C          57.6370    9.9120   60.3190 C.2       1 SAM6735     0.0000 
      4 O          57.5160   11.0960   60.6400 O.co2     1 SAM6735     0.0000 
      5 OXT        56.9730    9.5220   59.3560 O.co2     1 SAM6735     0.0000 
      6 CB         57.8980    7.6280   61.4280 C.3       1 SAM6735     0.0000 
      7 CG         58.8900    6.4550   61.4420 C.3       1 SAM6735     0.0000 
      8 SD         59.2450    5.9290   59.7360 S.3       1 SAM6735     0.0000 
      9 CE         58.7710    4.1830   59.8230 C.3       1 SAM6735     0.0000 
     10 C5'        61.0590    5.7540   59.6550 C.3       1 SAM6735     0.0000 
     11 C4'        61.7580    7.1060   59.5890 C.3       1 SAM6735     0.0000 
     12 O4'        61.6810    7.7490   60.8570 O.3       1 SAM6735     0.0000 
     13 C3'        63.2420    7.0470   59.2560 C.3       1 SAM6735     0.0000 
     14 O3'        63.4930    7.0520   57.8730 O.3       1 SAM6735     0.0000 
     15 C2'        63.7810    8.2970   59.9140 C.3       1 SAM6735     0.0000 
     16 O2'        63.5300    9.4360   59.1110 O.3       1 SAM6735     0.0000 
     17 C1'        62.8860    8.4370   61.1200 C.3       1 SAM6735     0.0000 
     18 N9         63.4940    7.8590   62.3260 N.pl3     1 SAM6735     0.0000 
     19 C8         63.1920    6.6590   62.9030 C.2       1 SAM6735     0.0000 
     20 N7         63.9540    6.5070   64.0050 N.2       1 SAM6735     0.0000 
     21 C5         64.7610    7.5920   64.1250 C.ar      1 SAM6735     0.0000 
     22 C6         65.7190    7.9580   65.0530 C.ar      1 SAM6735     0.0000 
     23 N6         66.0230    7.1620   66.0770 N.pl3     1 SAM6735     0.0000 
     24 N1         66.3710    9.1590   64.9040 N.ar      1 SAM6735     0.0000 
     25 C2         66.0780    9.9920   63.8430 C.ar      1 SAM6735     0.0000 
     26 N3         65.1180    9.6200   62.9260 N.ar      1 SAM6735     0.0000 
     27 C4         64.4720    8.4480   63.0730 C.ar      1 SAM6735     0.0000 
     28 H          59.3894    8.6804   60.3281 H         1 SAM6735     0.0000 
     29 H          57.1085    7.4181   60.7036 H         1 SAM6735     0.0000 
     30 H          57.4445    7.7226   62.4166 H         1 SAM6735     0.0000 
     31 H          58.4975    5.5726   61.8752 H         1 SAM6735     0.0000 
     32 H          59.8498    6.7155   61.8043 H         1 SAM6735     0.0000 
     33 H          61.1868    5.1580   58.7764 H         1 SAM6735     0.0000 
     34 H          61.2700    5.2014   60.5459 H         1 SAM6735     0.0000 
     35 H          61.2709    7.7208   58.8392 H         1 SAM6735     0.0000 
     36 H          63.6574    6.2059   59.7723 H         1 SAM6735     0.0000 
     37 H          64.7529    8.1666   60.2140 H         1 SAM6735     0.0000 
     38 H          62.6928    9.4890   61.2794 H         1 SAM6735     0.0000 
     39 H          62.5403    6.0312   62.5701 H         1 SAM6735     0.0000 
     40 H          65.5066    6.3079   66.1388 H         1 SAM6735     0.0000 
     41 H          66.7403    7.4902   66.6916 H         1 SAM6735     0.0000 
     42 H          66.5752   10.8881   63.7374 H         1 SAM6735     0.0000 
     43 H          59.8205    8.9047   62.6969 H         1 SAM6735     0.0000 
     44 H          59.7678   10.3469   61.9871 H         1 SAM6735     0.0000 
     45 H          58.5401    9.8558   62.9026 H         1 SAM6735     0.0000 
     46 H          59.0636    3.6778   59.0111 H         1 SAM6735     0.0000 
     47 H          59.1777    3.7267   60.6145 H         1 SAM6735     0.0000 
     48 H          57.7801    4.0704   59.8970 H         1 SAM6735     0.0000 
     49 H          64.4311    6.7186   57.7792 H         1 SAM6735     0.0000 
     50 H          63.5513    9.0988   58.1699 H         1 SAM6735     0.0000 
@<TRIPOS>BOND
     1    2    1 1    
     2   43    1 1    
     3   44    1 1    
     4   45    1 1    
     5    3    2 1    
     6    6    2 1    
     7   28    2 1    
     8    4    3 ar   
     9    5    3 ar   
    10    7    6 1    
    11   29    6 1    
    12   30    6 1    
    13    8    7 1    
    14   31    7 1    
    15   32    7 1    
    16    9    8 1    
    17   10    8 1    
    18   46    9 1    
    19   47    9 1    
    20   48    9 1    
    21   11   10 1    
    22   33   10 1    
    23   34   10 1    
    24   12   11 1    
    25   13   11 1    
    26   35   11 1    
    27   17   12 1    
    28   14   13 1    
    29   15   13 1    
    30   36   13 1    
    31   49   14 1    
    32   16   15 1    
    33   17   15 1    
    34   37   15 1    
    35   50   16 1    
    36   18   17 1    
    37   38   17 1    
    38   19   18 1    
    39   27   18 1    
    40   20   19 2    
    41   39   19 1    
    42   21   20 1    
    43   22   21 ar   
    44   27   21 ar   
    45   23   22 1    
    46   24   22 ar   
    47   40   23 1    
    48   41   23 1    
    49   25   24 ar   
    50   26   25 ar   
    51   42   25 1    
    52   27   26 ar   
@<TRIPOS>SUBSTRUCTURE
     1 SAM6735     1 GROUP   
@<TRIPOS>SET

