#    Name: 4G1F_4_CAVITY_N1_6.mol2
#    Modification time : Mon Mar 10 22:22:52 2014

@<TRIPOS>MOLECULE
4G1F_4_CAVITY_N1_6.mol2
  122     0     7     0     0
SMALL
NO_CHARGES


@<TRIPOS>ATOM
      1 CA        -41.4480  -56.0091   47.0807 C.3       6 GLY6        0.0000 
      2 CZ        -38.1627  -52.8884   37.4907 C.ar      5 PHE5        0.0000 
      3 CZ        -32.2637  -58.9196   49.9838 C.ar      5 PHE5        0.0000 
      4 CZ        -32.8453  -59.5053   51.2364 C.ar      5 PHE5        0.0000 
      5 N         -33.4268  -60.0909   52.4889 N.2       2 ALA2        0.0000 
      6 DU        -33.0490  -59.8982   49.1618 H         7 CUB7        0.0000 
      7 OG        -33.6305  -60.4838   50.4143 O.2       1 SER1        0.0000 
      8 N         -34.2120  -61.0694   51.6669 N.2       2 ALA2        0.0000 
      9 DU        -33.8342  -60.8768   48.3397 H         7 CUB7        0.0000 
     10 N         -34.4157  -61.4624   49.5923 N.2       2 ALA2        0.0000 
     11 O         -40.0813  -54.4449   46.6502 O.2       2 ALA2        0.0000 
     12 CA        -40.6628  -55.0305   47.9028 C.3       6 GLY6        0.0000 
     13 NZ        -37.3775  -51.9098   38.3128 N.2       4 LYS4        0.0000 
     14 O         -37.9590  -52.4955   39.5654 O.2       2 ALA2        0.0000 
     15 CZ        -32.8203  -57.3597   48.6584 C.ar      5 PHE5        0.0000 
     16 CZ        -33.4018  -57.9453   49.9110 C.ar      5 PHE5        0.0000 
     17 CZ        -33.9834  -58.5309   51.1636 C.ar      5 PHE5        0.0000 
     18 NZ        -34.5649  -59.1165   52.4161 N.2       4 LYS4        0.0000 
     19 DU        -33.6056  -58.3382   47.8364 H         7 CUB7        0.0000 
     20 DU        -34.1871  -58.9238   49.0889 H         7 CUB7        0.0000 
     21 NZ        -34.7686  -59.5095   50.3415 N.2       4 LYS4        0.0000 
     22 NZ        -35.3501  -60.0951   51.5941 N.2       4 LYS4        0.0000 
     23 DU        -34.9723  -59.9024   48.2669 H         7 CUB7        0.0000 
     24 N         -35.5538  -60.4880   49.5194 N.2       2 ALA2        0.0000 
     25 NZ        -35.7575  -60.8810   47.4448 N.2       4 LYS4        0.0000 
     26 CZ        -30.3404  -58.9154   50.8787 C.ar      5 PHE5        0.0000 
     27 CA        -30.9219  -59.5011   52.1313 C.3       6 GLY6        0.0000 
     28 CA        -31.5034  -60.0867   53.3838 C.3       6 GLY6        0.0000 
     29 DU        -31.1257  -59.8940   50.0566 H         7 CUB7        0.0000 
     30 OG        -31.7072  -60.4796   51.3092 O.2       1 SER1        0.0000 
     31 OG        -32.2887  -61.0652   52.5618 O.2       1 SER1        0.0000 
     32 OG        -31.9109  -60.8726   49.2346 O.2       1 SER1        0.0000 
     33 OG        -32.4924  -61.4582   50.4871 O.2       1 SER1        0.0000 
     34 OG        -38.1580  -54.4407   47.5451 O.2       1 SER1        0.0000 
     35 CZ        -38.7395  -55.0263   48.7977 C.ar      5 PHE5        0.0000 
     36 CA        -36.0356  -52.4913   40.4602 C.3       6 GLY6        0.0000 
     37 CA        -36.6171  -53.0769   41.7128 C.3       6 GLY6        0.0000 
     38 CZ        -37.1987  -53.6625   42.9654 C.ar      5 PHE5        0.0000 
     39 CZ        -37.7802  -54.2481   44.2179 C.ar      5 PHE5        0.0000 
     40 CA        -38.3617  -54.8337   45.4705 C.3       6 GLY6        0.0000 
     41 CA        -38.9432  -55.4193   46.7231 C.3       6 GLY6        0.0000 
     42 OG        -39.5247  -56.0049   47.9756 O.2       1 SER1        0.0000 
     43 OG        -40.1062  -56.5905   49.2282 O.2       1 SER1        0.0000 
     44 OD1       -36.2394  -52.8842   38.3856 O.3       3 ASP3        0.0000 
     45 CA        -36.8209  -53.4698   39.6382 C.3       6 GLY6        0.0000 
     46 N         -37.4024  -54.0554   40.8907 N.2       2 ALA2        0.0000 
     47 N         -37.9839  -54.6411   42.1433 N.2       2 ALA2        0.0000 
     48 CA        -38.5654  -55.2267   43.3959 C.3       6 GLY6        0.0000 
     49 CA        -39.7284  -56.3979   45.9010 C.3       6 GLY6        0.0000 
     50 OG        -40.3099  -56.9835   47.1536 O.2       1 SER1        0.0000 
     51 CA        -37.0246  -53.8628   37.5636 C.3       6 GLY6        0.0000 
     52 CA        -37.6061  -54.4484   38.8161 C.3       6 GLY6        0.0000 
     53 CA        -38.1876  -55.0340   40.0687 C.3       6 GLY6        0.0000 
     54 OG        -38.7691  -55.6196   41.3212 O.2       1 SER1        0.0000 
     55 CA        -40.5136  -57.3765   45.0789 C.3       6 GLY6        0.0000 
     56 CA        -38.3913  -55.4270   37.9941 C.3       6 GLY6        0.0000 
     57 CA        -39.5543  -56.5982   40.4992 C.3       6 GLY6        0.0000 
     58 OG        -37.0199  -55.4151   47.6179 O.2       1 SER1        0.0000 
     59 CZ        -37.6014  -56.0007   48.8705 C.ar      5 PHE5        0.0000 
     60 OD1       -34.8975  -53.4656   40.5331 O.3       3 ASP3        0.0000 
     61 CZ        -35.4790  -54.0512   41.7856 C.ar      5 PHE5        0.0000 
     62 CZ        -36.0606  -54.6369   43.0382 C.ar      5 PHE5        0.0000 
     63 CZ        -36.6421  -55.2225   44.2907 C.ar      5 PHE5        0.0000 
     64 OG        -37.2236  -55.8081   45.5433 O.2       1 SER1        0.0000 
     65 DU        -37.8051  -56.3937   46.7959 H         7 CUB7        0.0000 
     66 OG        -38.3866  -56.9793   48.0484 O.2       1 SER1        0.0000 
     67 OG        -38.9681  -57.5649   49.3010 O.2       1 SER1        0.0000 
     68 OD1       -35.1013  -53.8586   38.4584 O.3       3 ASP3        0.0000 
     69 DU        -35.6828  -54.4442   39.7110 H         7 CUB7        0.0000 
     70 DU        -36.2643  -55.0298   40.9636 H         7 CUB7        0.0000 
     71 DU        -36.8458  -55.6154   42.2161 H         7 CUB7        0.0000 
     72 OG        -37.4273  -56.2010   43.4687 O.2       1 SER1        0.0000 
     73 OG        -38.0088  -56.7866   44.7213 O.2       1 SER1        0.0000 
     74 DU        -38.5903  -57.3723   45.9738 H         7 CUB7        0.0000 
     75 OG        -39.1718  -57.9579   47.2264 O.2       1 SER1        0.0000 
     76 DU        -35.8865  -54.8372   37.6364 H         7 CUB7        0.0000 
     77 DU        -36.4680  -55.4228   38.8889 H         7 CUB7        0.0000 
     78 DU        -37.0495  -56.0084   40.1415 H         7 CUB7        0.0000 
     79 OG        -37.6310  -56.5940   41.3941 O.2       1 SER1        0.0000 
     80 OG        -38.2125  -57.1796   42.6466 O.2       1 SER1        0.0000 
     81 OG        -38.7940  -57.7652   43.8992 O.2       1 SER1        0.0000 
     82 O         -39.3755  -58.3508   45.1518 O.2       2 ALA2        0.0000 
     83 O         -39.9570  -58.9364   46.4043 O.2       2 ALA2        0.0000 
     84 DU        -37.2532  -56.4014   38.0669 H         7 CUB7        0.0000 
     85 CA        -37.8347  -56.9870   39.3194 C.3       6 GLY6        0.0000 
     86 OG        -38.4162  -57.5726   40.5720 O.2       1 SER1        0.0000 
     87 OG        -38.9977  -58.1582   41.8246 O.2       1 SER1        0.0000 
     88 CA        -39.5793  -58.7438   43.0771 C.3       6 GLY6        0.0000 
     89 CA        -39.2015  -58.5512   39.7499 C.3       6 GLY6        0.0000 
     90 CZ        -35.6780  -55.9965   49.7654 C.ar      5 PHE5        0.0000 
     91 CZ        -32.9742  -53.4614   41.4279 C.ar      5 PHE5        0.0000 
     92 CZ        -33.5557  -54.0470   42.6805 C.ar      5 PHE5        0.0000 
     93 CZ        -34.7187  -55.2183   45.1856 C.ar      5 PHE5        0.0000 
     94 OG        -35.8818  -56.3895   47.6908 O.2       1 SER1        0.0000 
     95 CZ        -36.4633  -56.9751   48.9433 C.ar      5 PHE5        0.0000 
     96 CZ        -37.0448  -57.5607   50.1959 C.ar      5 PHE5        0.0000 
     97 CZ        -34.3410  -55.0256   41.8584 C.ar      5 PHE5        0.0000 
     98 OG        -36.0855  -56.7824   45.6161 O.2       1 SER1        0.0000 
     99 DU        -36.6670  -57.3681   46.8687 H         7 CUB7        0.0000 
    100 DU        -37.2485  -57.9537   48.1213 H         7 CUB7        0.0000 
    101 NZ        -37.8300  -58.5393   49.3738 N.2       4 LYS4        0.0000 
    102 DU        -36.2892  -57.1754   43.5415 H         7 CUB7        0.0000 
    103 DU        -36.8707  -57.7610   44.7941 H         7 CUB7        0.0000 
    104 O         -37.4522  -58.3466   46.0466 O.2       2 ALA2        0.0000 
    105 NZ        -38.0337  -58.9322   47.2992 N.2       4 LYS4        0.0000 
    106 NZ        -38.6152  -59.5179   48.5518 N.2       4 LYS4        0.0000 
    107 DU        -36.4929  -57.5684   41.4669 H         7 CUB7        0.0000 
    108 DU        -37.0744  -58.1540   42.7194 H         7 CUB7        0.0000 
    109 O         -37.6559  -58.7396   43.9720 O.2       2 ALA2        0.0000 
    110 OG        -33.9584  -56.3853   48.5856 O.2       1 SER1        0.0000 
    111 CZ        -34.5399  -56.9709   49.8382 C.ar      5 PHE5        0.0000 
    112 CZ        -35.1215  -57.5565   51.0908 C.ar      5 PHE5        0.0000 
    113 OG        -34.7437  -57.3639   47.7636 O.2       1 SER1        0.0000 
    114 DU        -35.3252  -57.9495   49.0161 H         7 CUB7        0.0000 
    115 NZ        -35.9067  -58.5351   50.2687 N.2       4 LYS4        0.0000 
    116 DU        -34.9474  -57.7568   45.6889 H         7 CUB7        0.0000 
    117 DU        -35.5289  -58.3424   46.9415 H         7 CUB7        0.0000 
    118 DU        -36.1104  -58.9280   48.1941 H         7 CUB7        0.0000 
    119 NZ        -36.6919  -59.5137   49.4466 N.2       4 LYS4        0.0000 
    120 O         -35.7326  -58.7354   44.8669 O.2       2 ALA2        0.0000 
    121 O         -36.3141  -59.3210   46.1194 O.2       2 ALA2        0.0000 
    122 NZ        -36.8956  -59.9066   47.3720 N.2       4 LYS4        0.0000 
@<TRIPOS>BOND
@<TRIPOS>SUBSTRUCTURE
     1 SER1        7 GROUP   
     2 ALA2        5 GROUP   
     3 ASP3       44 GROUP   
     4 LYS4       13 GROUP   
     5 PHE5        2 GROUP   
     6 GLY6        1 GROUP   
     7 CUB7        6 GROUP   
@<TRIPOS>SET

