#    Name: 4g1f_0WG_4_INTS_M
#    Modification time : Mon Mar 24 21:10:40 2014

@<TRIPOS>MOLECULE
4g1f_0WG_4_INTS_M
   47     0    12     0     0
SMALL
NO_CHARGES


@<TRIPOS>ATOM
      1 CA        -33.7535  -54.8275   45.3555 C.3       4 GLC5        0.0000 
      2 CA        -33.6650  -56.9170   45.3770 C.3      12 GLL5        0.0000 
      3 CA        -33.8420  -52.7380   45.3340 C.3       8 GLP5        0.0000 
      4 CA        -40.5655  -57.8775   49.9000 C.3       4 GLC5        0.0000 
      5 CA        -38.4190  -57.7950   49.7130 C.3      12 GLL5        0.0000 
      6 CA        -42.7120  -57.9600   50.0870 C.3       8 GLP5        0.0000 
      7 CA        -38.2715  -56.9725   51.1475 C.3       4 GLC5        0.0000 
      8 CA        -38.1240  -56.1500   52.5820 C.3       8 GLP5        0.0000 
      9 OD1       -38.9430  -60.5745   48.5825 O.co2     3 ASC3        0.0000 
     10 OD1       -38.9190  -59.1470   49.4420 O.co2    11 ASL3        0.0000 
     11 OD1       -38.9670  -62.0020   47.7230 O.co2     7 ASP3        0.0000 
     12 OD1       -38.4635  -59.4415   50.8730 O.co2     3 ASC3        0.0000 
     13 OD1       -38.0080  -59.7360   52.3040 O.co2     7 ASP3        0.0000 
     14 OD1       -39.5285  -59.4820   50.6230 O.co2     3 ASC3        0.0000 
     15 OD1       -40.1380  -59.8170   51.8040 O.co2     7 ASP3        0.0000 
     16 O         -39.5285  -59.4820   50.6230 O.2       1 ALC1        0.0000 
     17 O         -38.9190  -59.1470   49.4420 O.2       9 ALL1        0.0000 
     18 O         -40.1380  -59.8170   51.8040 O.2       5 ALP1        0.0000 
     19 O         -40.3000  -58.8960   49.4670 O.2       1 ALC1        0.0000 
     20 O         -41.6810  -58.6450   49.4920 O.2       5 ALP1        0.0000 
     21 CA        -41.6560  -53.4575   46.7840 C.3       4 GLC5        0.0000 
     22 CA        -42.1330  -55.2390   47.8710 C.3      12 GLL5        0.0000 
     23 CA        -41.1790  -51.6760   45.6970 C.3       8 GLP5        0.0000 
     24 CA        -40.6160  -56.7775   44.8225 C.3       4 GLC5        0.0000 
     25 CA        -40.0690  -58.2520   45.9380 C.3      12 GLL5        0.0000 
     26 CA        -41.1630  -55.3030   43.7070 C.3       8 GLP5        0.0000 
     27 CA        -41.1560  -58.7810   44.4940 C.3       4 GLC5        0.0000 
     28 CA        -42.2430  -59.3100   43.0500 C.3       8 GLP5        0.0000 
     29 N         -39.9935  -53.8465   45.1125 N.am      2 SEC2        0.0000 
     30 N         -38.6920  -54.8010   45.3230 N.am     10 SEL2        0.0000 
     31 N         -41.2950  -52.8920   44.9020 N.am      6 SEP2        0.0000 
     32 CA        -36.6365  -52.7400   44.1500 C.3       4 GLC5        0.0000 
     33 CA        -37.0790  -54.1930   43.2420 C.3      12 GLL5        0.0000 
     34 CA        -36.1940  -51.2870   45.0580 C.3       8 GLP5        0.0000 
     35 CA        -39.1210  -54.7480   43.4745 C.3       4 GLC5        0.0000 
     36 CA        -40.5740  -55.8533   45.5217 C.3       4 GLC5        0.0000 
     37 CA        -40.4940  -56.7500   47.0010 C.3      12 GLL5        0.0000 
     38 CA        -40.1925  -53.2225   47.5260 C.3       4 GLC5        0.0000 
     39 CA        -39.8120  -54.9490   48.4540 C.3      12 GLL5        0.0000 
     40 CA        -39.9110  -51.6960   46.5510 C.3       8 GLP5        0.0000 
     41 CA        -43.4862  -54.2605   48.2328 C.3       4 GLC5        0.0000 
     42 CA        -41.1360  -54.5490   48.5480 C.3      12 GLL5        0.0000 
     43 CA        -45.3380  -53.6270   48.2560 C.3       8 GLP5        0.0000 
     44 CA        -41.5677  -55.5463   45.5955 C.3       4 GLC5        0.0000 
     45 CA        -43.6292  -56.4908   46.8980 C.3       4 GLC5        0.0000 
     46 CA        -41.8120  -56.3400   47.0970 C.3      12 GLL5        0.0000 
     47 CA        -45.2860  -57.1920   46.3120 C.3       8 GLP5        0.0000 
@<TRIPOS>BOND
@<TRIPOS>SUBSTRUCTURE
     1 ALC1       16 GROUP        1 X    ALC  0     ROOT ALC X 1
     2 SEC2       29 GROUP        1 X    SEC  0     **** SEC X 2
     3 ASC3        9 GROUP        1 X    ASC  0     **** ASC X 3
     4 GLC5        1 GROUP        1 X    GLC  0     **** GLC X 6
     5 ALP1       18 GROUP        1 Y    ALP  0     ROOT ALP Y 8
     6 SEP2       31 GROUP        1 Y    SEP  0     **** SEP Y 9
     7 ASP3       11 GROUP        1 Y    ASP  0     **** ASP Y 10
     8 GLP5        3 GROUP        1 Y    GLP  0     **** GLP Y 13
     9 ALL1       17 GROUP        1 Z    ALL  0     ROOT ALL Z 15
    10 SEL2       30 GROUP        1 Z    SEL  0     **** SEL Z 16
    11 ASL3       10 GROUP        1 Z    ASL  0     **** ASL Z 17
    12 GLL5        2 GROUP        1 Z    GLL  0     **** GLL Z 20
@<TRIPOS>SET

