#    Name: 4g1f_0WG_4_ligand
#    Modification time : Mon Mar 24 21:10:41 2014

@<TRIPOS>MOLECULE
4g1f_0WG_4_ligand
   41    43     1     0     0
SMALL
NO_CHARGES


@<TRIPOS>ATOM
      1 C1        -33.6650  -56.9170   45.3770 C.3       1 0WG800      0.0000 
      2 N2        -35.0320  -56.3770   45.4100 N.am      1 0WG800      0.0000 
      3 C3        -35.8790  -56.6990   46.4670 C.ar      1 0WG800      0.0000 
      4 N4        -35.4680  -57.4940   47.4450 N.ar      1 0WG800      0.0000 
      5 C5        -36.2490  -57.8370   48.4580 C.ar      1 0WG800      0.0000 
      6 N6        -35.7400  -58.6740   49.4340 N.pl3     1 0WG800      0.0000 
      7 C7        -37.5590  -57.3730   48.5520 C.ar      1 0WG800      0.0000 
      8 C8        -38.4190  -57.7950   49.7130 C.3       1 0WG800      0.0000 
      9 N9        -38.9190  -59.1470   49.4420 N.4       1 0WG800      0.0000 
     10 C10       -38.0660  -56.5270   47.5580 C.ar      1 0WG800      0.0000 
     11 C11       -39.4760  -56.0570   47.6720 C.ar      1 0WG800      0.0000 
     12 C12       -39.8120  -54.9490   48.4540 C.ar      1 0WG800      0.0000 
     13 C13       -41.1360  -54.5490   48.5480 C.ar      1 0WG800      0.0000 
     14 C14       -42.1330  -55.2390   47.8710 C.ar      1 0WG800      0.0000 
     15 C15       -41.8120  -56.3400   47.0970 C.ar      1 0WG800      0.0000 
     16 C16       -40.4940  -56.7500   47.0010 C.ar      1 0WG800      0.0000 
     17 BR1       -40.0690  -58.2520   45.9380 Br        1 0WG800      0.0000 
     18 C18       -37.1970  -56.1810   46.4820 C.ar      1 0WG800      0.0000 
     19 C19       -37.5880  -55.3050   45.3610 C.2       1 0WG800      0.0000 
     20 O20       -38.6920  -54.8010   45.3230 O.2       1 0WG800      0.0000 
     21 N21       -36.6940  -55.0590   44.3670 N.am      1 0WG800      0.0000 
     22 C22       -37.0790  -54.1930   43.2420 C.3       1 0WG800      0.0000 
     23 C23       -35.4580  -55.5930   44.3990 C.2       1 0WG800      0.0000 
     24 O24       -34.6860  -55.3400   43.4900 O.2       1 0WG800      0.0000 
     25 H         -34.7857  -58.9511   49.3221 H         1 0WG800      0.0000 
     26 H         -36.3704  -58.9296   50.1670 H         1 0WG800      0.0000 
     27 H         -39.2439  -57.0950   49.8174 H         1 0WG800      0.0000 
     28 H         -37.8218  -57.7820   50.6210 H         1 0WG800      0.0000 
     29 H         -39.0777  -54.4363   48.9552 H         1 0WG800      0.0000 
     30 H         -41.3845  -53.7297   49.1271 H         1 0WG800      0.0000 
     31 H         -43.1127  -54.9287   47.9467 H         1 0WG800      0.0000 
     32 H         -42.5499  -56.8515   46.5951 H         1 0WG800      0.0000 
     33 H         -33.1649  -56.6127   44.5663 H         1 0WG800      0.0000 
     34 H         -33.1332  -56.6307   46.1740 H         1 0WG800      0.0000 
     35 H         -33.6609  -57.9169   45.3657 H         1 0WG800      0.0000 
     36 H         -39.8140  -59.3028   49.8601 H         1 0WG800      0.0000 
     37 H         -39.0201  -59.3160   48.4616 H         1 0WG800      0.0000 
     38 H         -38.3027  -59.8493   49.7985 H         1 0WG800      0.0000 
     39 H         -36.3373  -54.0942   42.5786 H         1 0WG800      0.0000 
     40 H         -37.8685  -54.5561   42.7471 H         1 0WG800      0.0000 
     41 H         -37.3229  -53.2728   43.5482 H         1 0WG800      0.0000 
@<TRIPOS>BOND
     1    2    1 1    
     2   33    1 1    
     3   34    1 1    
     4   35    1 1    
     5    3    2 1    
     6   23    2 am   
     7    4    3 ar   
     8   18    3 ar   
     9    5    4 ar   
    10    6    5 1    
    11    7    5 ar   
    12   25    6 1    
    13   26    6 1    
    14    8    7 1    
    15   10    7 ar   
    16    9    8 1    
    17   27    8 1    
    18   28    8 1    
    19   36    9 1    
    20   37    9 1    
    21   38    9 1    
    22   11   10 1    
    23   18   10 ar   
    24   12   11 ar   
    25   16   11 ar   
    26   13   12 ar   
    27   29   12 1    
    28   14   13 ar   
    29   30   13 1    
    30   15   14 ar   
    31   31   14 1    
    32   16   15 ar   
    33   32   15 1    
    34   17   16 1    
    35   19   18 1    
    36   20   19 2    
    37   21   19 am   
    38   22   21 1    
    39   23   21 am   
    40   39   22 1    
    41   40   22 1    
    42   41   22 1    
    43   24   23 2    
@<TRIPOS>SUBSTRUCTURE
     1 0WG800      1 GROUP   
@<TRIPOS>SET

