#    Name: 3ely_SAH_1_INTS_M
#    Modification time : Tue Mar 25 02:07:33 2014

@<TRIPOS>MOLECULE
3ely_SAH_1_INTS_M
   65     0    12     0     0
SMALL
NO_CHARGES


@<TRIPOS>ATOM
      1 OD1       -23.0345   -3.0740   10.4820 O.co2     3 ASC3        0.0000 
      2 OD1       -23.4170   -2.8500    9.0710 O.co2    11 ASL3        0.0000 
      3 OD1       -22.6520   -3.2980   11.8930 O.co2     7 ASP3        0.0000 
      4 O         -23.0345   -3.0740   10.4820 O.2       1 ALC1        0.0000 
      5 O         -23.4170   -2.8500    9.0710 O.2       9 ALL1        0.0000 
      6 O         -22.6520   -3.2980   11.8930 O.2       5 ALP1        0.0000 
      7 CA        -22.6540   -2.9740    8.0300 C.3       4 GLC5        0.0000 
      8 CA        -23.8900   -1.4740    8.7690 C.3      12 GLL5        0.0000 
      9 CA        -21.4180   -4.4740    7.2910 C.3       8 GLP5        0.0000 
     10 CA        -26.6140    0.5205    9.3965 C.3       4 GLC5        0.0000 
     11 CA        -25.3780   -0.7710   10.5970 C.3      12 GLL5        0.0000 
     12 CA        -27.8500    1.8120    8.1960 C.3       8 GLP5        0.0000 
     13 N         -21.2495   -0.1820    6.9465 N.am      2 SEC2        0.0000 
     14 N         -21.9590   -1.2570    7.3760 N.am     10 SEL2        0.0000 
     15 N         -20.5400    0.8930    6.5170 N.am      6 SEP2        0.0000 
     16 N         -21.9585    0.6055    6.8965 N.am      2 SEC2        0.0000 
     17 N         -23.3770    0.3180    7.2760 N.am     10 SEL2        0.0000 
     18 N         -23.3460   -0.0420    5.6775 N.am      2 SEC2        0.0000 
     19 N         -23.3150   -0.4020    4.0790 N.am      6 SEP2        0.0000 
     20 CA        -29.3095   -1.2685   11.4535 C.3       4 GLC5        0.0000 
     21 CA        -28.2250    0.1690   12.3490 C.3      12 GLL5        0.0000 
     22 CA        -30.3940   -2.7060   10.5580 C.3       8 GLP5        0.0000 
     23 CA        -28.0375    0.9905   10.2725 C.3       4 GLC5        0.0000 
     24 O         -27.9445    3.7720   12.0425 O.2       1 ALC1        0.0000 
     25 O         -28.4380    2.4370   11.6340 O.2       9 ALL1        0.0000 
     26 O         -27.4510    5.1070   12.4510 O.2       5 ALP1        0.0000 
     27 N         -30.9610    3.5820   14.0120 N.am      2 SEC2        0.0000 
     28 N         -30.5310    2.7660   13.0050 N.am     10 SEL2        0.0000 
     29 N         -31.3910    4.3980   15.0190 N.am      6 SEP2        0.0000 
     30 CA        -30.4085   -1.1655   11.7800 C.3       4 GLC5        0.0000 
     31 CA        -30.4230    0.3750   13.0020 C.3      12 GLL5        0.0000 
     32 CA        -33.9950    0.4885   14.7665 C.3       4 GLC5        0.0000 
     33 CA        -33.2400   -1.2140   14.6430 C.3      12 GLL5        0.0000 
     34 CA        -34.7500    2.1910   14.8900 C.3       8 GLP5        0.0000 
     35 CA        -34.8750   -0.0345   14.0045 C.3       4 GLC5        0.0000 
     36 CA        -34.4630   -1.8520   14.4840 C.3      12 GLL5        0.0000 
     37 CA        -35.2870    1.7830   13.5250 C.3       8 GLP5        0.0000 
     38 CA        -36.4550   -1.8800   13.5685 C.3       4 GLC5        0.0000 
     39 CA        -38.4470   -1.9080   12.6530 C.3       8 GLP5        0.0000 
     40 CA        -34.4525   -3.6435   13.7555 C.3       4 GLC5        0.0000 
     41 CA        -34.4420   -5.4350   13.0270 C.3       8 GLP5        0.0000 
     42 O         -36.6345   -2.5935   15.4100 O.2       1 ALC1        0.0000 
     43 O         -35.1550   -2.2840   15.5640 O.2       9 ALL1        0.0000 
     44 O         -38.1140   -2.9030   15.2560 O.2       5 ALP1        0.0000 
     45 N         -36.0295   -2.9845   12.8745 N.am      2 SEC2        0.0000 
     46 N         -34.9580   -2.0380   13.2400 N.am     10 SEL2        0.0000 
     47 N         -37.1010   -3.9310   12.5090 N.am      6 SEP2        0.0000 
     48 CA        -32.3375   -2.1600   11.3580 C.3       4 GLC5        0.0000 
     49 CA        -34.2810   -1.6140   12.1580 C.3      12 GLL5        0.0000 
     50 CA        -33.7765   -0.8640   10.4660 C.3       4 GLC5        0.0000 
     51 CA        -33.2720   -0.1140    8.7740 C.3       8 GLP5        0.0000 
     52 CA        -34.7840    0.0845   12.8415 C.3       4 GLC5        0.0000 
     53 CA        -36.3640   -1.7610   12.4055 C.3       4 GLC5        0.0000 
     54 CA        -34.6380   -3.2930   11.3850 C.3       4 GLC5        0.0000 
     55 CA        -34.9950   -4.9720   10.6120 C.3       8 GLP5        0.0000 
     56 N         -33.6130    0.2490   11.3535 N.am      2 SEC2        0.0000 
     57 N         -33.1070   -0.9900   12.2860 N.am     10 SEL2        0.0000 
     58 N         -34.1190    1.4880   10.4210 N.am      6 SEP2        0.0000 
     59 CA        -31.4810   -1.7430   12.0360 C.3       4 GLC5        0.0000 
     60 CA        -32.5680   -0.7800   13.5140 C.3      12 GLL5        0.0000 
     61 CA        -33.9275    0.5015   13.5195 C.3       4 GLC5        0.0000 
     62 CA        -24.5855   -2.7570   11.0670 C.3       4 GLC5        0.0000 
     63 CA        -24.5070   -4.7870   11.8000 C.3       8 GLP5        0.0000 
     64 CA        -32.1929   -2.8028   13.9554 C.3       4 GLC5        0.0000 
     65 CA        -31.1760   -4.4490   13.8720 C.3       8 GLP5        0.0000 
@<TRIPOS>BOND
@<TRIPOS>SUBSTRUCTURE
     1 ALC1        4 GROUP        1 X    ALC  0     ROOT ALC X 1
     2 SEC2       13 GROUP        1 X    SEC  0     **** SEC X 2
     3 ASC3        1 GROUP        1 X    ASC  0     **** ASC X 3
     4 GLC5        7 GROUP        1 X    GLC  0     **** GLC X 6
     5 ALP1        6 GROUP        1 Y    ALP  0     ROOT ALP Y 8
     6 SEP2       15 GROUP        1 Y    SEP  0     **** SEP Y 9
     7 ASP3        3 GROUP        1 Y    ASP  0     **** ASP Y 10
     8 GLP5        9 GROUP        1 Y    GLP  0     **** GLP Y 13
     9 ALL1        5 GROUP        1 Z    ALL  0     ROOT ALL Z 15
    10 SEL2       14 GROUP        1 Z    SEL  0     **** SEL Z 16
    11 ASL3        2 GROUP        1 Z    ASL  0     **** ASL Z 17
    12 GLL5        8 GROUP        1 Z    GLL  0     **** GLL Z 20
@<TRIPOS>SET

