#    Name: 3ely_SAH_1_ligand
#    Modification time : Tue Mar 25 02:07:34 2014

@<TRIPOS>MOLECULE
3ely_SAH_1_ligand
   46    48     1     0     0
SMALL
NO_CHARGES


@<TRIPOS>ATOM
      1 N         -23.4170   -2.8500    9.0710 N.4       1 SAH887      0.0000 
      2 CA        -23.8900   -1.4740    8.7690 C.3       1 SAH887      0.0000 
      3 CB        -23.9500   -0.6830   10.0710 C.3       1 SAH887      0.0000 
      4 CG        -25.3780   -0.7710   10.5970 C.3       1 SAH887      0.0000 
      5 SD        -25.5540    0.2480   12.0110 S.3       1 SAH887      0.0000 
      6 C         -23.0290   -0.7680    7.7550 C.2       1 SAH887      0.0000 
      7 O         -21.9590   -1.2570    7.3760 O.co2     1 SAH887      0.0000 
      8 OXT       -23.3770    0.3180    7.2760 O.co2     1 SAH887      0.0000 
      9 C5'       -26.9350   -0.4720   12.8430 C.3       1 SAH887      0.0000 
     10 C4'       -28.2250    0.1690   12.3490 C.3       1 SAH887      0.0000 
     11 O4'       -29.3480   -0.5510   12.8450 O.3       1 SAH887      0.0000 
     12 C3'       -28.4140    1.6130   12.8030 C.3       1 SAH887      0.0000 
     13 O3'       -28.4380    2.4370   11.6340 O.3       1 SAH887      0.0000 
     14 C2'       -29.7680    1.6610   13.4800 C.3       1 SAH887      0.0000 
     15 O2'       -30.5310    2.7660   13.0050 O.3       1 SAH887      0.0000 
     16 C1'       -30.4230    0.3750   13.0020 C.3       1 SAH887      0.0000 
     17 N9        -31.4350   -0.1990   13.9240 N.pl3     1 SAH887      0.0000 
     18 C8        -31.3770   -0.2590   15.2640 C.2       1 SAH887      0.0000 
     19 N7        -32.4890   -0.8830   15.7160 N.2       1 SAH887      0.0000 
     20 C5        -33.2400   -1.2140   14.6430 C.ar      1 SAH887      0.0000 
     21 C6        -34.4630   -1.8520   14.4840 C.ar      1 SAH887      0.0000 
     22 N6        -35.1550   -2.2840   15.5640 N.pl3     1 SAH887      0.0000 
     23 N1        -34.9580   -2.0380   13.2400 N.ar      1 SAH887      0.0000 
     24 C2        -34.2810   -1.6140   12.1580 C.ar      1 SAH887      0.0000 
     25 N3        -33.1070   -0.9900   12.2860 N.ar      1 SAH887      0.0000 
     26 C4        -32.5680   -0.7800   13.5140 C.ar      1 SAH887      0.0000 
     27 H         -24.9126   -1.5311    8.3819 H         1 SAH887      0.0000 
     28 H         -23.6987    0.3455    9.8800 H         1 SAH887      0.0000 
     29 H         -23.2743   -1.1161   10.7875 H         1 SAH887      0.0000 
     30 H         -25.6304   -1.7435   10.9498 H         1 SAH887      0.0000 
     31 H         -26.0963   -0.3845    9.9125 H         1 SAH887      0.0000 
     32 H         -26.7370   -0.2757   13.8697 H         1 SAH887      0.0000 
     33 H         -26.8614   -1.5050   12.5994 H         1 SAH887      0.0000 
     34 H         -28.2297    0.1590   11.2639 H         1 SAH887      0.0000 
     35 H         -27.6622    1.8651   13.4805 H         1 SAH887      0.0000 
     36 H         -29.6489    1.6198   14.5125 H         1 SAH887      0.0000 
     37 H         -30.8691    0.5701   12.0326 H         1 SAH887      0.0000 
     38 H         -30.6627    0.0845   15.8186 H         1 SAH887      0.0000 
     39 H         -36.0428   -2.7049   15.3782 H         1 SAH887      0.0000 
     40 H         -34.7171   -2.1439   16.4520 H         1 SAH887      0.0000 
     41 H         -34.6842   -1.7777   11.2016 H         1 SAH887      0.0000 
     42 H         -24.1766   -3.4669    9.2771 H         1 SAH887      0.0000 
     43 H         -22.9166   -3.2478    8.3021 H         1 SAH887      0.0000 
     44 H         -22.8033   -2.8669    9.8603 H         1 SAH887      0.0000 
     45 H         -28.0662    3.3169   11.9300 H         1 SAH887      0.0000 
     46 H         -30.1661    2.9599   12.0943 H         1 SAH887      0.0000 
@<TRIPOS>BOND
     1    2    1 1    
     2   42    1 1    
     3   43    1 1    
     4   44    1 1    
     5    3    2 1    
     6    6    2 1    
     7   27    2 1    
     8    4    3 1    
     9   28    3 1    
    10   29    3 1    
    11    5    4 1    
    12   30    4 1    
    13   31    4 1    
    14    9    5 1    
    15    7    6 ar   
    16    8    6 ar   
    17   10    9 1    
    18   32    9 1    
    19   33    9 1    
    20   11   10 1    
    21   12   10 1    
    22   34   10 1    
    23   16   11 1    
    24   13   12 1    
    25   14   12 1    
    26   35   12 1    
    27   45   13 1    
    28   15   14 1    
    29   16   14 1    
    30   36   14 1    
    31   46   15 1    
    32   17   16 1    
    33   37   16 1    
    34   18   17 1    
    35   26   17 1    
    36   19   18 2    
    37   38   18 1    
    38   20   19 1    
    39   21   20 ar   
    40   26   20 ar   
    41   22   21 1    
    42   23   21 ar   
    43   39   22 1    
    44   40   22 1    
    45   24   23 ar   
    46   25   24 ar   
    47   41   24 1    
    48   26   25 ar   
@<TRIPOS>SUBSTRUCTURE
     1 SAH887      1 GROUP   
@<TRIPOS>SET

