#    Name: 1cdo_NAD_1_INTS_M
#    Modification time : Mon Mar 24 20:32:13 2014

@<TRIPOS>MOLECULE
1cdo_NAD_1_INTS_M
   87     0    12     0     0
SMALL
NO_CHARGES


@<TRIPOS>ATOM
      1 CA         20.7435   33.7025   17.2800 C.3       4 GLC5        0.0000 
      2 CA         22.5060   33.9640   16.2570 C.3      12 GLL5        0.0000 
      3 CA         18.9810   33.4410   18.3030 C.3       8 GLP5        0.0000 
      4 CA         21.9690   32.3060   14.8430 C.3       4 GLC5        0.0000 
      5 CA         21.4320   30.6480   13.4290 C.3       8 GLP5        0.0000 
      6 N          21.7145   34.6140   12.8445 N.am      2 SEC2        0.0000 
      7 N          21.7100   35.1350   14.2070 N.am     10 SEL2        0.0000 
      8 N          21.7190   34.0930   11.4820 N.am      6 SEP2        0.0000 
      9 O          20.3865   35.4640   14.5820 O.2       1 ALC1        0.0000 
     10 O          21.7100   35.1350   14.2070 O.2       9 ALL1        0.0000 
     11 O          19.0630   35.7930   14.9570 O.2       5 ALP1        0.0000 
     12 O          20.8965   37.6755   15.2785 O.2       1 ALC1        0.0000 
     13 O          22.3000   37.4610   15.2870 O.2       9 ALL1        0.0000 
     14 O          19.4930   37.8900   15.2700 O.2       5 ALP1        0.0000 
     15 CA         20.4190   34.6915   17.7570 C.3       4 GLC5        0.0000 
     16 CA         21.8570   35.9420   17.2110 C.3      12 GLL5        0.0000 
     17 CA         21.6715   35.0320   19.0900 C.3       4 GLC5        0.0000 
     18 CA         21.4860   34.1220   20.9690 C.3       8 GLP5        0.0000 
     19 CA         21.0480   37.9905   22.6615 C.3       4 GLC5        0.0000 
     20 CA         20.6150   38.7570   20.9170 C.3      12 GLL5        0.0000 
     21 CA         21.4810   37.2240   24.4060 C.3       8 GLP5        0.0000 
     22 CA         17.8480   37.8500   18.3410 C.3       4 GLC5        0.0000 
     23 CA         18.7690   37.7050   19.9080 C.3      12 GLL5        0.0000 
     24 CA         16.9270   37.9950   16.7740 C.3       8 GLP5        0.0000 
     25 CA         19.4350   39.6825   19.2905 C.3       4 GLC5        0.0000 
     26 CA         20.1010   41.6600   18.6730 C.3       8 GLP5        0.0000 
     27 CA         19.9310   35.3590   18.6725 C.3       4 GLC5        0.0000 
     28 CA         20.8810   37.2770   19.0420 C.3      12 GLL5        0.0000 
     29 CA         20.4910   39.4685   18.8575 C.3       4 GLC5        0.0000 
     30 NZ         25.9930   27.4140   13.9440 N.4       3 LYC4        0.0000 
     31 NZ         26.2670   28.2300   15.1770 N.4      11 LYL4        0.0000 
     32 NZ         25.8130   25.2860   12.5380 N.4       7 LYP4        0.0000 
     33 N          27.8580   27.9305   15.1905 N.am      2 SEC2        0.0000 
     34 N          26.2670   28.2300   15.1770 N.am     10 SEL2        0.0000 
     35 N          29.4490   27.6310   15.2040 N.am      6 SEP2        0.0000 
     36 N          25.9930   27.4140   13.9440 N.am      2 SEC2        0.0000 
     37 N          25.7190   26.5980   12.7110 N.am      6 SEP2        0.0000 
     38 N          22.5405   27.5585   15.2800 N.am      2 SEC2        0.0000 
     39 N          23.7300   28.6310   15.6090 N.am     10 SEL2        0.0000 
     40 N          21.3510   26.4860   14.9510 N.am      6 SEP2        0.0000 
     41 CA         24.0240   27.3995   17.7640 C.3       4 GLC5        0.0000 
     42 CA         24.8070   29.3060   18.5110 C.3      12 GLL5        0.0000 
     43 CA         23.2410   25.4930   17.0170 C.3       8 GLP5        0.0000 
     44 N          26.9800   29.0385   22.7220 N.am      2 SEC2        0.0000 
     45 N          27.0830   29.8030   21.3610 N.am     10 SEL2        0.0000 
     46 N          26.8770   28.2740   24.0830 N.am      6 SEP2        0.0000 
     47 O          26.4195   31.0695   21.2175 O.2       1 ALC1        0.0000 
     48 O          27.0830   29.8030   21.3610 O.2       9 ALL1        0.0000 
     49 O          25.7560   32.3360   21.0740 O.2       5 ALP1        0.0000 
     50 N          29.3005   26.6185   20.1215 N.am      2 SEC2        0.0000 
     51 N          28.7200   27.8730   20.6150 N.am     10 SEL2        0.0000 
     52 N          29.8810   25.3640   19.6280 N.am      6 SEP2        0.0000 
     53 CA         25.4535   27.7195   22.2025 C.3       4 GLC5        0.0000 
     54 CA         26.4190   26.9670   20.7220 C.3      12 GLL5        0.0000 
     55 CA         24.4880   28.4720   23.6830 C.3       8 GLP5        0.0000 
     56 CA         27.6215   26.8735   22.4470 C.3       4 GLC5        0.0000 
     57 CA         28.8240   26.7800   24.1720 C.3       8 GLP5        0.0000 
     58 CA         27.4735   25.6920   22.8825 C.3       4 GLC5        0.0000 
     59 CA         26.1230   24.6040   21.5930 C.3      12 GLL5        0.0000 
     60 N          24.8750   19.7900   22.5940 N.am      2 SEC2        0.0000 
     61 N          25.6640   21.0380   22.3920 N.am     10 SEL2        0.0000 
     62 N          24.0860   18.5420   22.7960 N.am      6 SEP2        0.0000 
     63 O          24.5910   24.2480   23.6705 O.2       1 ALC1        0.0000 
     64 O          24.9560   22.7840   23.6330 O.2       9 ALL1        0.0000 
     65 O          24.2260   25.7120   23.7080 O.2       5 ALP1        0.0000 
     66 O          24.1040   22.1995   24.7350 O.2       1 ALC1        0.0000 
     67 O          23.2520   21.6150   25.8370 O.2       5 ALP1        0.0000 
     68 CA         21.2740   40.0817   19.7825 C.3       4 GLC5        0.0000 
     69 CA         21.4090   38.1100   19.9910 C.3      12 GLL5        0.0000 
     70 CA         21.5360   41.7300   19.1110 C.3       8 GLP5        0.0000 
     71 CA         21.3155   35.9078   20.2428 C.3       4 GLC5        0.0000 
     72 CA         24.2078   30.7572   20.1745 C.3       4 GLC5        0.0000 
     73 CA         23.3360   32.3900   21.1510 C.3       8 GLP5        0.0000 
     74 CA         25.2848   28.7713   21.8350 C.3       4 GLC5        0.0000 
     75 CA         25.3520   28.9430   19.8850 C.3      12 GLL5        0.0000 
     76 CA         28.3945   29.7323   19.3562 C.3       4 GLC5        0.0000 
     77 CA         26.8110   29.1980   20.0890 C.3      12 GLL5        0.0000 
     78 CA         29.6670   30.9630   18.6660 C.3       8 GLP5        0.0000 
     79 CA         26.6335   22.1045   18.2653 C.3       4 GLC5        0.0000 
     80 CA         25.9060   22.7620   20.0640 C.3      12 GLL5        0.0000 
     81 CA         27.2630   21.0200   17.0150 C.3       8 GLP5        0.0000 
     82 CA         27.3483   24.5452   17.6333 C.3       4 GLC5        0.0000 
     83 CA         26.1020   23.6160   18.9670 C.3      12 GLL5        0.0000 
     84 CA         28.4940   24.7890   16.1960 C.3       8 GLP5        0.0000 
     85 CA         24.3257   22.6275   20.0490 C.3       4 GLC5        0.0000 
     86 CA         22.6480   21.9480   20.2500 C.3       8 GLP5        0.0000 
     87 CA         24.7218   24.8972   18.0437 C.3       4 GLC5        0.0000 
@<TRIPOS>BOND
@<TRIPOS>SUBSTRUCTURE
     1 ALC1        9 GROUP        1 X    ALC  0     ROOT ALC X 1
     2 SEC2        6 GROUP        1 X    SEC  0     **** SEC X 2
     3 LYC4       30 GROUP        1 X    LYC  0     **** LYC X 4
     4 GLC5        1 GROUP        1 X    GLC  0     **** GLC X 6
     5 ALP1       11 GROUP        1 Y    ALP  0     ROOT ALP Y 8
     6 SEP2        8 GROUP        1 Y    SEP  0     **** SEP Y 9
     7 LYP4       32 GROUP        1 Y    LYP  0     **** LYP Y 11
     8 GLP5        3 GROUP        1 Y    GLP  0     **** GLP Y 13
     9 ALL1       10 GROUP        1 Z    ALL  0     ROOT ALL Z 15
    10 SEL2        7 GROUP        1 Z    SEL  0     **** SEL Z 16
    11 LYL4       31 GROUP        1 Z    LYL  0     **** LYL Z 18
    12 GLL5        2 GROUP        1 Z    GLL  0     **** GLL Z 20
@<TRIPOS>SET

