#    Name: 1cdo_NAD_1_ligand
#    Modification time : Mon Mar 24 20:32:13 2014

@<TRIPOS>MOLECULE
1cdo_NAD_1_ligand
   70    74     1     0     0
SMALL
NO_CHARGES


@<TRIPOS>ATOM
      1 PA         25.2370   31.6440   14.9200 P.3       1 NAD375      0.0000 
      2 O1A        26.3090   32.6030   15.2790 O.co2     1 NAD375      0.0000 
      3 O2A        25.1050   31.0970   13.5520 O.co2     1 NAD375      0.0000 
      4 O5B        23.8140   32.2860   15.3580 O.3       1 NAD375      0.0000 
      5 C5B        23.7480   33.1580   16.4930 C.3       1 NAD375      0.0000 
      6 C4B        22.5060   33.9640   16.2570 C.3       1 NAD375      0.0000 
      7 O4B        22.1990   34.5870   17.5080 O.3       1 NAD375      0.0000 
      8 C3B        22.7300   35.0640   15.2210 C.3       1 NAD375      0.0000 
      9 O3B        21.7100   35.1350   14.2070 O.3       1 NAD375      0.0000 
     10 C2B        22.7610   36.3350   16.0620 C.3       1 NAD375      0.0000 
     11 O2B        22.3000   37.4610   15.2870 O.3       1 NAD375      0.0000 
     12 C1B        21.8570   35.9420   17.2110 C.3       1 NAD375      0.0000 
     13 N9A        21.9430   36.8770   18.3540 N.pl3     1 NAD375      0.0000 
     14 C8A        23.0500   37.4460   18.8730 C.2       1 NAD375      0.0000 
     15 N7A        22.7280   38.2270   19.9100 N.2       1 NAD375      0.0000 
     16 C5A        21.4090   38.1100   19.9910 C.ar      1 NAD375      0.0000 
     17 C6A        20.6150   38.7570   20.9170 C.ar      1 NAD375      0.0000 
     18 N6A        21.1540   39.5620   21.8310 N.pl3     1 NAD375      0.0000 
     19 N1A        19.2910   38.5180   20.8260 N.ar      1 NAD375      0.0000 
     20 C2A        18.7690   37.7050   19.9080 C.ar      1 NAD375      0.0000 
     21 N3A        19.5430   37.0830   19.0160 N.ar      1 NAD375      0.0000 
     22 C4A        20.8810   37.2770   19.0420 C.ar      1 NAD375      0.0000 
     23 O3         25.4320   30.4200   15.9550 O.3       1 NAD375      0.0000 
     24 PN         25.1660   28.8450   15.9600 P.3       1 NAD375      0.0000 
     25 O1N        26.2670   28.2300   15.1770 O.co2     1 NAD375      0.0000 
     26 O2N        23.7300   28.6310   15.6090 O.co2     1 NAD375      0.0000 
     27 O5D        25.3550   28.4540   17.5020 O.3       1 NAD375      0.0000 
     28 C5D        24.8070   29.3060   18.5110 C.3       1 NAD375      0.0000 
     29 C4D        25.3520   28.9430   19.8850 C.3       1 NAD375      0.0000 
     30 O4D        25.2510   27.5190   20.0600 O.3       1 NAD375      0.0000 
     31 C3D        26.8110   29.1980   20.0890 C.3       1 NAD375      0.0000 
     32 O3D        27.0830   29.8030   21.3610 O.3       1 NAD375      0.0000 
     33 C2D        27.4330   27.8050   20.0040 C.3       1 NAD375      0.0000 
     34 O2D        28.7200   27.8730   20.6150 O.3       1 NAD375      0.0000 
     35 C1D        26.4190   26.9670   20.7220 C.3       1 NAD375      0.0000 
     36 N1N        26.3160   25.4980   20.4960 N.pl3     1 NAD375      0.0000 
     37 C2N        26.1230   24.6040   21.5930 C.ar      1 NAD375      0.0000 
     38 C3N        25.9040   23.2340   21.3940 C.ar      1 NAD375      0.0000 
     39 C7N        25.5050   22.2530   22.5280 C.2       1 NAD375      0.0000 
     40 O7N        25.6640   21.0380   22.3920 O.2       1 NAD375      0.0000 
     41 N7N        24.9560   22.7840   23.6330 N.am      1 NAD375      0.0000 
     42 C4N        25.9060   22.7620   20.0640 C.ar      1 NAD375      0.0000 
     43 C5N        26.1020   23.6160   18.9670 C.ar      1 NAD375      0.0000 
     44 C6N        26.3030   24.9870   19.1740 C.ar      1 NAD375      0.0000 
     45 H          24.5935   33.8210   16.5367 H         1 NAD375      0.0000 
     46 H          23.6412   32.6097   17.4119 H         1 NAD375      0.0000 
     47 H          21.7173   33.3305   15.9399 H         1 NAD375      0.0000 
     48 H          23.7175   34.9321   14.8130 H         1 NAD375      0.0000 
     49 H          23.7525   36.4429   16.4315 H         1 NAD375      0.0000 
     50 H          20.8272   35.9647   16.8001 H         1 NAD375      0.0000 
     51 H          23.9587   37.3036   18.5340 H         1 NAD375      0.0000 
     52 H          20.5115   40.0426   22.4278 H         1 NAD375      0.0000 
     53 H          22.1527   39.6133   21.8381 H         1 NAD375      0.0000 
     54 H          17.7257   37.5497   19.8852 H         1 NAD375      0.0000 
     55 H          23.7091   29.2277   18.5529 H         1 NAD375      0.0000 
     56 H          25.0492   30.3637   18.3215 H         1 NAD375      0.0000 
     57 H          24.7919   29.4372   20.6489 H         1 NAD375      0.0000 
     58 H          27.1813   29.7668   19.2660 H         1 NAD375      0.0000 
     59 H          27.4552   27.5412   18.9776 H         1 NAD375      0.0000 
     60 H          26.3670   27.2373   21.7375 H         1 NAD375      0.0000 
     61 H          26.1474   24.9870   22.5506 H         1 NAD375      0.0000 
     62 H          24.7490   22.1437   24.3727 H         1 NAD375      0.0000 
     63 H          24.8034   23.7722   23.6172 H         1 NAD375      0.0000 
     64 H          25.7572   21.7484   19.8942 H         1 NAD375      0.0000 
     65 H          26.0978   23.2356   18.0161 H         1 NAD375      0.0000 
     66 H          26.4393   25.6173   18.3859 H         1 NAD375      0.0000 
     67 H          21.0572   35.8136   14.5438 H         1 NAD375      0.0000 
     68 H          21.3055   37.4575   15.3920 H         1 NAD375      0.0000 
     69 H          26.6340   30.6958   21.3241 H         1 NAD375      0.0000 
     70 H          28.8470   28.8381   20.8439 H         1 NAD375      0.0000 
@<TRIPOS>BOND
     1    2    1 ar   
     2    3    1 ar   
     3    4    1 1    
     4   23    1 1    
     5    5    4 1    
     6    6    5 1    
     7   45    5 1    
     8   46    5 1    
     9    7    6 1    
    10    8    6 1    
    11   47    6 1    
    12   12    7 1    
    13    9    8 1    
    14   10    8 1    
    15   48    8 1    
    16   67    9 1    
    17   11   10 1    
    18   12   10 1    
    19   49   10 1    
    20   68   11 1    
    21   13   12 1    
    22   50   12 1    
    23   14   13 1    
    24   22   13 1    
    25   15   14 2    
    26   51   14 1    
    27   16   15 1    
    28   17   16 ar   
    29   22   16 ar   
    30   18   17 1    
    31   19   17 ar   
    32   52   18 1    
    33   53   18 1    
    34   20   19 ar   
    35   21   20 ar   
    36   54   20 1    
    37   22   21 ar   
    38   24   23 1    
    39   25   24 ar   
    40   26   24 ar   
    41   27   24 1    
    42   28   27 1    
    43   29   28 1    
    44   55   28 1    
    45   56   28 1    
    46   30   29 1    
    47   31   29 1    
    48   57   29 1    
    49   35   30 1    
    50   32   31 1    
    51   33   31 1    
    52   58   31 1    
    53   69   32 1    
    54   34   33 1    
    55   35   33 1    
    56   59   33 1    
    57   70   34 1    
    58   36   35 1    
    59   60   35 1    
    60   37   36 ar   
    61   44   36 ar   
    62   38   37 ar   
    63   61   37 1    
    64   39   38 1    
    65   42   38 ar   
    66   40   39 2    
    67   41   39 am   
    68   62   41 1    
    69   63   41 1    
    70   43   42 ar   
    71   64   42 1    
    72   44   43 ar   
    73   65   43 1    
    74   66   44 1    
@<TRIPOS>SUBSTRUCTURE
     1 NAD375      1 GROUP   
@<TRIPOS>SET

