#    Name: 4gmy_0X5_1_INTS_M
#    Modification time : Mon Mar 24 22:48:20 2014

@<TRIPOS>MOLECULE
4gmy_0X5_1_INTS_M
   49     0     9     0     0
SMALL
NO_CHARGES


@<TRIPOS>ATOM
      1 CA         11.3495  -27.9880    3.9525 C.3       3 GLC5        0.0000 
      2 CA          9.9140  -26.7900    5.1580 C.3       9 GLL5        0.0000 
      3 CA         12.7850  -29.1860    2.7470 C.3       6 GLP5        0.0000 
      4 CA          8.0145  -29.6860    5.1760 C.3       3 GLC5        0.0000 
      5 CA          9.1120  -27.9070    5.2740 C.3       9 GLL5        0.0000 
      6 CA          6.9170  -31.4650    5.0780 C.3       6 GLP5        0.0000 
      7 CA          9.0530  -28.5035    7.4370 C.3       3 GLC5        0.0000 
      8 CA          8.9940  -29.1000    9.6000 C.3       6 GLP5        0.0000 
      9 CA          9.7440  -21.6180    0.9880 C.3       3 GLC5        0.0000 
     10 CA         10.7840  -22.3710    2.4030 C.3       9 GLL5        0.0000 
     11 CA          8.7040  -20.8650   -0.4270 C.3       6 GLP5        0.0000 
     12 N           7.0020  -28.8545    6.0780 N.am      2 SEC2        0.0000 
     13 N           7.7960  -27.7790    5.3270 N.am      8 SEL2        0.0000 
     14 N           6.2080  -29.9300    6.8290 N.am      5 SEP2        0.0000 
     15 CA          6.8860  -27.7365    7.1335 C.3       3 GLC5        0.0000 
     16 CA          7.2090  -26.5890    5.2760 C.3       9 GLL5        0.0000 
     17 CA          6.5630  -28.8840    8.9910 C.3       6 GLP5        0.0000 
     18 O           5.1650  -27.0435    6.3275 O.2       1 ALC1        0.0000 
     19 O           5.8170  -26.4890    5.3460 O.2       7 ALL1        0.0000 
     20 O           4.5130  -27.5980    7.3090 O.2       4 ALP1        0.0000 
     21 CA          2.7410  -27.0580    6.2865 C.3       3 GLC5        0.0000 
     22 CA          3.6150  -25.4250    5.0160 C.3       9 GLL5        0.0000 
     23 CA          1.8670  -28.6910    7.5570 C.3       6 GLP5        0.0000 
     24 CA         13.2110  -22.0590    8.9275 C.3       3 GLC5        0.0000 
     25 CA         12.9570  -23.2980    7.3520 C.3       9 GLL5        0.0000 
     26 CA         13.4650  -20.8200   10.5030 C.3       6 GLP5        0.0000 
     27 CA         11.7980  -24.8020    7.9480 C.3       3 GLC5        0.0000 
     28 CA         10.6390  -26.3060    8.5440 C.3       6 GLP5        0.0000 
     29 CA         14.8415  -22.8400    7.8880 C.3       3 GLC5        0.0000 
     30 CA         16.7260  -22.3820    8.4240 C.3       6 GLP5        0.0000 
     31 CA         11.6337  -23.4513    1.8480 C.3       3 GLC5        0.0000 
     32 CA         11.7070  -21.9000    3.7930 C.3       9 GLL5        0.0000 
     33 CA         12.0220  -24.7670    0.5980 C.3       6 GLP5        0.0000 
     34 CA          9.4595  -28.7297    3.7525 C.3       3 GLC5        0.0000 
     35 CA          9.4060  -30.1110    2.2890 C.3       6 GLP5        0.0000 
     36 CA         10.0760  -26.8272    6.8800 C.3       3 GLC5        0.0000 
     37 CA          6.9437  -26.3678    3.3197 C.3       3 GLC5        0.0000 
     38 CA          7.9720  -25.4420    5.1870 C.3       9 GLL5        0.0000 
     39 CA          6.2970  -26.7200    1.4080 C.3       6 GLP5        0.0000 
     40 CA          6.3087  -25.0048    6.6892 C.3       3 GLC5        0.0000 
     41 CA          5.0270  -23.9940    8.1470 C.3       6 GLP5        0.0000 
     42 CA          8.5563  -25.1794    6.8744 C.3       3 GLC5        0.0000 
     43 CA          9.1780  -24.3250    8.5380 C.3       6 GLP5        0.0000 
     44 CA          3.6965  -25.3635    2.6100 C.3       3 GLC5        0.0000 
     45 CA          4.1370  -25.6590    0.7720 C.3       6 GLP5        0.0000 
     46 CA          3.6025  -26.8200    3.8800 C.3       3 GLC5        0.0000 
     47 CA          2.8970  -24.7110    3.8800 C.3       9 GLL5        0.0000 
     48 CA          3.9490  -28.5720    3.3120 C.3       6 GLP5        0.0000 
     49 CA          4.1570  -24.3697    6.6430 C.3       3 GLC5        0.0000 
@<TRIPOS>BOND
@<TRIPOS>SUBSTRUCTURE
     1 ALC1       18 GROUP        1 X    ALC  0     ROOT ALC X 1
     2 SEC2       12 GROUP        1 X    SEC  0     **** SEC X 2
     3 GLC5        1 GROUP        1 X    GLC  0     **** GLC X 6
     4 ALP1       20 GROUP        1 Y    ALP  0     ROOT ALP Y 8
     5 SEP2       14 GROUP        1 Y    SEP  0     **** SEP Y 9
     6 GLP5        3 GROUP        1 Y    GLP  0     **** GLP Y 13
     7 ALL1       19 GROUP        1 Z    ALL  0     ROOT ALL Z 15
     8 SEL2       13 GROUP        1 Z    SEL  0     **** SEL Z 16
     9 GLL5        2 GROUP        1 Z    GLL  0     **** GLL Z 20
@<TRIPOS>SET

