#    Name: 4gmy_0X5_1_ligand
#    Modification time : Mon Mar 24 22:48:20 2014

@<TRIPOS>MOLECULE
4gmy_0X5_1_ligand
   36    38     1     0     0
SMALL
NO_CHARGES


@<TRIPOS>ATOM
      1 C4         11.9250  -22.7630    4.8800 C.ar      1 0X51201     0.0000 
      2 C5         11.7070  -21.9000    3.7930 C.ar      1 0X51201     0.0000 
      3 C6         12.2370  -20.6260    3.8140 C.ar      1 0X51201     0.0000 
      4 C11         9.3480  -25.5150    5.1040 C.ar      1 0X51201     0.0000 
      5 C8         11.3780  -24.1440    4.9180 C.2       1 0X51201     0.0000 
      6 C12         9.9140  -26.7900    5.1580 C.ar      1 0X51201     0.0000 
      7 C13         9.1120  -27.9070    5.2740 C.ar      1 0X51201     0.0000 
      8 C3         12.6700  -22.2890    5.9710 C.ar      1 0X51201     0.0000 
      9 C1         12.9740  -20.1800    4.8910 C.ar      1 0X51201     0.0000 
     10 C2         13.1910  -21.0120    5.9690 C.ar      1 0X51201     0.0000 
     11 CL1        10.7840  -22.3710    2.4030 Cl        1 0X51201     0.0000 
     12 O9         12.1390  -25.0940    4.8570 O.2       1 0X51201     0.0000 
     13 N10        10.0460  -24.3040    5.0250 N.am      1 0X51201     0.0000 
     14 N14         7.7960  -27.7790    5.3270 N.ar      1 0X51201     0.0000 
     15 C15         7.2090  -26.5890    5.2760 C.ar      1 0X51201     0.0000 
     16 C16         7.9720  -25.4420    5.1870 C.ar      1 0X51201     0.0000 
     17 N17         5.8170  -26.4890    5.3460 N.am      1 0X51201     0.0000 
     18 C18         5.1060  -25.4200    4.8970 C.2       1 0X51201     0.0000 
     19 O19         5.5920  -24.4300    4.3790 O.2       1 0X51201     0.0000 
     20 C20         3.6150  -25.4250    5.0160 C.3       1 0X51201     0.0000 
     21 C21         2.9590  -24.0660    5.2620 C.3       1 0X51201     0.0000 
     22 C22         2.8970  -24.7110    3.8800 C.3       1 0X51201     0.0000 
     23 CL2        12.9570  -23.2980    7.3520 Cl        1 0X51201     0.0000 
     24 H          12.0781  -19.9930    3.0053 H         1 0X51201     0.0000 
     25 H          10.9403  -26.8905    5.1103 H         1 0X51201     0.0000 
     26 H           9.5689  -28.8435    5.3181 H         1 0X51201     0.0000 
     27 H          13.3628  -19.2242    4.8900 H         1 0X51201     0.0000 
     28 H          13.7436  -20.6790    6.7748 H         1 0X51201     0.0000 
     29 H           9.4305  -23.4132    5.0548 H         1 0X51201     0.0000 
     30 H           7.5065  -24.5157    5.1824 H         1 0X51201     0.0000 
     31 H           5.2960  -27.3057    5.7789 H         1 0X51201     0.0000 
     32 H           3.0431  -26.0856    5.3451 H         1 0X51201     0.0000 
     33 H           3.6420  -23.4137    5.2417 H         1 0X51201     0.0000 
     34 H           2.1306  -24.2240    5.6877 H         1 0X51201     0.0000 
     35 H           2.0418  -25.1048    3.7865 H         1 0X51201     0.0000 
     36 H           3.5532  -24.2944    3.3405 H         1 0X51201     0.0000 
@<TRIPOS>BOND
     1    2    1 ar   
     2    5    1 1    
     3    8    1 ar   
     4    3    2 ar   
     5   11    2 1    
     6    9    3 ar   
     7   24    3 1    
     8    6    4 ar   
     9   13    4 1    
    10   16    4 ar   
    11   12    5 2    
    12   13    5 am   
    13    7    6 ar   
    14   25    6 1    
    15   14    7 ar   
    16   26    7 1    
    17   10    8 ar   
    18   23    8 1    
    19   10    9 ar   
    20   27    9 1    
    21   28   10 1    
    22   29   13 1    
    23   15   14 ar   
    24   16   15 ar   
    25   17   15 1    
    26   30   16 1    
    27   18   17 am   
    28   31   17 1    
    29   19   18 2    
    30   20   18 1    
    31   21   20 1    
    32   22   20 1    
    33   32   20 1    
    34   22   21 1    
    35   33   21 1    
    36   34   21 1    
    37   35   22 1    
    38   36   22 1    
@<TRIPOS>SUBSTRUCTURE
     1 0X51201     1 GROUP   
@<TRIPOS>SET

