#    Name: 2be2_R22_1_INTS_M
#    Modification time : Mon Mar 24 20:32:17 2014

@<TRIPOS>MOLECULE
2be2_R22_1_INTS_M
   74     0     6     0     0
SMALL
NO_CHARGES


@<TRIPOS>ATOM
      1 CA         48.7115  -23.4020   26.5665 C.3       2 GLC5        0.0000 
      2 CA         50.8530  -23.6580   26.3950 C.3       6 GLL5        0.0000 
      3 CA         46.5700  -23.1460   26.7380 C.3       4 GLP5        0.0000 
      4 CA         47.2075  -23.7325   22.8705 C.3       2 GLC5        0.0000 
      5 CA         48.7290  -24.6270   22.7140 C.3       6 GLL5        0.0000 
      6 CA         45.6860  -22.8380   23.0270 C.3       4 GLP5        0.0000 
      7 CA         48.8320  -26.4925   21.7935 C.3       2 GLC5        0.0000 
      8 CA         48.9350  -28.3580   20.8730 C.3       4 GLP5        0.0000 
      9 CA         49.5265  -23.5645   21.3085 C.3       2 GLC5        0.0000 
     10 CA         50.3240  -22.5020   19.9030 C.3       4 GLP5        0.0000 
     11 CA         52.2415  -19.7435   25.1810 C.3       2 GLC5        0.0000 
     12 CA         51.7990  -21.5620   25.3650 C.3       6 GLL5        0.0000 
     13 CA         52.6840  -17.9250   24.9970 C.3       4 GLP5        0.0000 
     14 CA         52.9495  -21.7175   26.7810 C.3       2 GLC5        0.0000 
     15 CA         54.1000  -21.8730   28.1970 C.3       4 GLP5        0.0000 
     16 CA         51.1730  -20.3560   26.9480 C.3       2 GLC5        0.0000 
     17 CA         50.5470  -19.1500   28.5310 C.3       4 GLP5        0.0000 
     18 CA         52.1755  -20.5245   23.5780 C.3       2 GLC5        0.0000 
     19 CA         52.5520  -19.4870   21.7910 C.3       4 GLP5        0.0000 
     20 O          53.7400  -26.2720   31.2580 O.2       1 ALC1        0.0000 
     21 O          52.8340  -25.8690   30.3150 O.2       5 ALL1        0.0000 
     22 O          54.6460  -26.6750   32.2010 O.2       3 ALP1        0.0000 
     23 CA         55.4020  -28.3640   28.1885 C.3       2 GLC5        0.0000 
     24 CA         54.3560  -27.2340   28.9890 C.3       6 GLL5        0.0000 
     25 CA         56.4480  -29.4940   27.3880 C.3       4 GLP5        0.0000 
     26 CA         48.9105  -26.4655   29.7630 C.3       2 GLC5        0.0000 
     27 CA         48.8480  -24.2680   30.0000 C.3       6 GLL5        0.0000 
     28 CA         48.9730  -28.6630   29.5260 C.3       4 GLP5        0.0000 
     29 CA         48.8850  -24.0075   32.1100 C.3       2 GLC5        0.0000 
     30 CA         48.9220  -23.7470   34.2200 C.3       4 GLP5        0.0000 
     31 CA         49.1675  -22.4520   30.0385 C.3       2 GLC5        0.0000 
     32 CA         49.4870  -20.6360   30.0770 C.3       4 GLP5        0.0000 
     33 CA         47.7090  -23.7070   28.3690 C.3       2 GLC5        0.0000 
     34 CA         47.8925  -25.5945   31.2240 C.3       2 GLC5        0.0000 
     35 CA         46.9370  -26.9210   32.4480 C.3       4 GLP5        0.0000 
     36 CA         54.3475  -27.8525   26.6380 C.3       2 GLC5        0.0000 
     37 CA         52.3150  -27.2160   26.8530 C.3       6 GLL5        0.0000 
     38 CA         56.3800  -28.4890   26.4230 C.3       4 GLP5        0.0000 
     39 CA         49.2510  -27.9540   26.6975 C.3       2 GLC5        0.0000 
     40 CA         50.9560  -27.8230   25.7860 C.3       6 GLL5        0.0000 
     41 CA         47.5460  -28.0850   27.6090 C.3       4 GLP5        0.0000 
     42 CA         52.3090  -28.7700   24.0465 C.3       2 GLC5        0.0000 
     43 CA         51.3110  -29.5310   25.4540 C.3       6 GLL5        0.0000 
     44 CA         53.3070  -28.0090   22.6390 C.3       4 GLP5        0.0000 
     45 CA         49.5460  -29.7865   27.6255 C.3       2 GLC5        0.0000 
     46 CA         51.1490  -30.3590   26.6820 C.3       6 GLL5        0.0000 
     47 CA         47.9430  -29.2140   28.5690 C.3       4 GLP5        0.0000 
     48 CA         49.2650  -30.7090   28.1095 C.3       2 GLC5        0.0000 
     49 CA         50.5870  -32.2040   27.6500 C.3       6 GLL5        0.0000 
     50 CA         48.6238  -26.5430   26.6655 C.3       2 GLC5        0.0000 
     51 CA         50.0430  -24.8530   26.3340 C.3       6 GLL5        0.0000 
     52 CA         51.0872  -25.3620   24.3600 C.3       2 GLC5        0.0000 
     53 CA         49.3600  -25.1490   25.1100 C.3       6 GLL5        0.0000 
     54 CA         52.4730  -25.7230   22.9980 C.3       4 GLP5        0.0000 
     55 CA         48.0776  -23.8950   25.7957 C.3       2 GLC5        0.0000 
     56 CA         52.5502  -23.6904   26.2714 C.3       2 GLC5        0.0000 
     57 CA         50.9590  -22.7960   25.2790 C.3       6 GLL5        0.0000 
     58 CA         54.3970  -23.8550   26.7210 C.3       4 GLP5        0.0000 
     59 CA         51.6895  -24.4750   24.4175 C.3       2 GLC5        0.0000 
     60 CA         50.8858  -24.9421   23.1844 C.3       2 GLC5        0.0000 
     61 CA         49.4690  -24.2870   23.9850 C.3       6 GLL5        0.0000 
     62 CA         50.1812  -27.3266   29.0476 C.3       2 GLC5        0.0000 
     63 CA         52.0430  -26.4910   28.1310 C.3       6 GLL5        0.0000 
     64 CA         54.5850  -25.3460   28.9833 C.3       2 GLC5        0.0000 
     65 CA         53.0060  -26.5300   29.0760 C.3       6 GLL5        0.0000 
     66 CA         55.4890  -23.8100   28.9340 C.3       4 GLP5        0.0000 
     67 CA         53.1392  -25.2690   27.1404 C.3       2 GLC5        0.0000 
     68 CA         52.0542  -26.6212   24.6588 C.3       2 GLC5        0.0000 
     69 CA         49.9667  -28.8730   24.4540 C.3       2 GLC5        0.0000 
     70 CA         48.8000  -29.0690   23.2880 C.3       4 GLP5        0.0000 
     71 CA         50.0865  -29.7182   28.9282 C.3       2 GLC5        0.0000 
     72 CA         51.0170  -31.3780   28.6480 C.3       6 GLL5        0.0000 
     73 CA         52.2735  -32.1612   27.4446 C.3       2 GLC5        0.0000 
     74 CA         53.5130  -33.2950   27.1410 C.3       4 GLP5        0.0000 
@<TRIPOS>BOND
@<TRIPOS>SUBSTRUCTURE
     1 ALC1       20 GROUP        1 X    ALC  0     ROOT ALC X 1
     2 GLC5        1 GROUP        1 X    GLC  0     **** GLC X 6
     3 ALP1       22 GROUP        1 Y    ALP  0     ROOT ALP Y 8
     4 GLP5        3 GROUP        1 Y    GLP  0     **** GLP Y 13
     5 ALL1       21 GROUP        1 Z    ALL  0     ROOT ALL Z 15
     6 GLL5        2 GROUP        1 Z    GLL  0     **** GLL Z 20
@<TRIPOS>SET

