#    Name: 2be2_R22_1_ligand
#    Modification time : Mon Mar 24 20:32:17 2014

@<TRIPOS>MOLECULE
2be2_R22_1_ligand
   46    48     1     0     0
SMALL
NO_CHARGES


@<TRIPOS>ATOM
      1 C1'        50.0430  -24.8530   26.3340 C.ar      1 R224002     0.0000 
      2 C2'        49.3600  -25.1490   25.1100 C.ar      1 R224002     0.0000 
      3 C3'        49.4690  -24.2870   23.9850 C.ar      1 R224002     0.0000 
      4 C4'        50.2670  -23.1040   24.0700 C.ar      1 R224002     0.0000 
      5 C5'        50.9590  -22.7960   25.2790 C.ar      1 R224002     0.0000 
      6 C6'        50.8530  -23.6580   26.3950 C.ar      1 R224002     0.0000 
      7 O7'        49.8920  -25.7870   27.3890 O.3       1 R224002     0.0000 
      8 C8'        48.7290  -24.6270   22.7140 C.3       1 R224002     0.0000 
      9 C9'        51.7990  -21.5620   25.3650 C.3       1 R224002     0.0000 
     10 N1         52.8340  -25.8690   30.3150 N.am      1 R224002     0.0000 
     11 C2         51.6990  -25.1870   30.6560 C.2       1 R224002     0.0000 
     12 C3         50.6190  -25.1700   29.6130 C.2       1 R224002     0.0000 
     13 C4         50.8530  -25.8090   28.4020 C.2       1 R224002     0.0000 
     14 C5         52.0430  -26.4910   28.1310 C.2       1 R224002     0.0000 
     15 C6         53.0060  -26.5300   29.0760 C.2       1 R224002     0.0000 
     16 C7         54.3560  -27.2340   28.9890 C.3       1 R224002     0.0000 
     17 O8         51.6780  -24.6730   31.7770 O.2       1 R224002     0.0000 
     18 I9         48.8480  -24.2680   30.0000 I         1 R224002     0.0000 
     19 C10        52.3150  -27.2160   26.8530 C.3       1 R224002     0.0000 
     20 S11        50.9560  -27.8230   25.7860 S.3       1 R224002     0.0000 
     21 C12        51.3110  -29.5310   25.4540 C.3       1 R224002     0.0000 
     22 C13        51.1490  -30.3590   26.6820 C.2       1 R224002     0.0000 
     23 O14        50.6650  -31.5950   26.4330 O.3       1 R224002     0.0000 
     24 C15        50.5870  -32.2040   27.6500 C.2       1 R224002     0.0000 
     25 C16        51.0170  -31.3780   28.6480 C.2       1 R224002     0.0000 
     26 C17        51.3830  -30.1690   28.0130 C.2       1 R224002     0.0000 
     27 H          48.7867  -25.9941   25.0495 H         1 R224002     0.0000 
     28 H          50.3405  -22.4837   23.2691 H         1 R224002     0.0000 
     29 H          51.3503  -23.4448   27.2615 H         1 R224002     0.0000 
     30 H          53.6343  -25.9161   30.9981 H         1 R224002     0.0000 
     31 H          52.9067  -28.1552   26.9920 H         1 R224002     0.0000 
     32 H          52.9051  -26.6141   26.1174 H         1 R224002     0.0000 
     33 H          52.3171  -29.4950   25.0817 H         1 R224002     0.0000 
     34 H          50.6150  -29.7692   24.6722 H         1 R224002     0.0000 
     35 H          50.2639  -33.1174   27.7914 H         1 R224002     0.0000 
     36 H          51.0697  -31.5473   29.5637 H         1 R224002     0.0000 
     37 H          51.7153  -29.4096   28.4442 H         1 R224002     0.0000 
     38 H          48.8843  -23.9444   21.9999 H         1 R224002     0.0000 
     39 H          49.0153  -25.5102   22.3425 H         1 R224002     0.0000 
     40 H          47.7412  -24.6774   22.8615 H         1 R224002     0.0000 
     41 H          52.2273  -21.4661   26.2635 H         1 R224002     0.0000 
     42 H          52.5352  -21.5660   24.6883 H         1 R224002     0.0000 
     43 H          51.2604  -20.7343   25.2072 H         1 R224002     0.0000 
     44 H          55.1166  -26.5921   29.0863 H         1 R224002     0.0000 
     45 H          54.4617  -27.9243   29.7048 H         1 R224002     0.0000 
     46 H          54.4761  -27.7000   28.1124 H         1 R224002     0.0000 
@<TRIPOS>BOND
     1    2    1 ar   
     2    6    1 ar   
     3    7    1 1    
     4    3    2 ar   
     5   27    2 1    
     6    4    3 ar   
     7    8    3 1    
     8    5    4 ar   
     9   28    4 1    
    10    6    5 ar   
    11    9    5 1    
    12   29    6 1    
    13   13    7 1    
    14   38    8 1    
    15   39    8 1    
    16   40    8 1    
    17   41    9 1    
    18   42    9 1    
    19   43    9 1    
    20   11   10 am   
    21   15   10 1    
    22   30   10 1    
    23   12   11 1    
    24   17   11 2    
    25   13   12 2    
    26   18   12 1    
    27   14   13 1    
    28   15   14 2    
    29   19   14 1    
    30   16   15 1    
    31   44   16 1    
    32   45   16 1    
    33   46   16 1    
    34   20   19 1    
    35   31   19 1    
    36   32   19 1    
    37   21   20 1    
    38   22   21 1    
    39   33   21 1    
    40   34   21 1    
    41   23   22 1    
    42   26   22 2    
    43   24   23 1    
    44   25   24 2    
    45   35   24 1    
    46   26   25 1    
    47   36   25 1    
    48   37   26 1    
@<TRIPOS>SUBSTRUCTURE
     1 R224002     1 GROUP   
@<TRIPOS>SET

