#    Name: 2z7s_P01_1_INTS_M
#    Modification time : Tue Mar 25 10:23:44 2014

@<TRIPOS>MOLECULE
2z7s_P01_1_INTS_M
   57     0     9     0     0
SMALL
NO_CHARGES


@<TRIPOS>ATOM
      1 CA         -7.1555   -0.4080   25.9715 C.3       3 GLC5        0.0000 
      2 CA         -6.6040   -2.3460   26.0400 C.3       9 GLL5        0.0000 
      3 CA         -7.7070    1.5300   25.9030 C.3       6 GLP5        0.0000 
      4 O          -4.8000   -1.0870   25.3970 O.2       1 ALC1        0.0000 
      5 O          -4.2070   -2.3940   25.7530 O.2       7 ALL1        0.0000 
      6 O          -5.3930    0.2200   25.0410 O.2       4 ALP1        0.0000 
      7 CA         -2.3390   -2.5420   23.6350 C.3       3 GLC5        0.0000 
      8 CA         -2.9140   -2.8580   25.5900 C.3       9 GLL5        0.0000 
      9 CA         -1.7640   -2.2260   21.6800 C.3       6 GLP5        0.0000 
     10 CA         -2.5540   -0.0580   24.9230 C.3       3 GLC5        0.0000 
     11 CA         -1.8460   -1.9660   25.8490 C.3       9 GLL5        0.0000 
     12 CA         -3.2620    1.8500   23.9970 C.3       6 GLP5        0.0000 
     13 N          -2.4945    0.5520   26.3575 N.am      2 SEC2        0.0000 
     14 N          -1.7940   -0.6490   26.2620 N.am      8 SEL2        0.0000 
     15 N          -3.1950    1.7530   26.4530 N.am      5 SEP2        0.0000 
     16 CA          1.6550   -3.7360   28.1100 C.3       3 GLC5        0.0000 
     17 CA          2.3130   -2.5550   26.9740 C.3       9 GLL5        0.0000 
     18 CA          0.9970   -4.9170   29.2460 C.3       6 GLP5        0.0000 
     19 CA          3.9285   -1.3325   27.8045 C.3       3 GLC5        0.0000 
     20 CA          5.5440   -0.1100   28.6350 C.3       6 GLP5        0.0000 
     21 CA          2.9540    1.3110   25.2455 C.3       3 GLC5        0.0000 
     22 CA          2.5920   -0.4270   25.5800 C.3       9 GLL5        0.0000 
     23 CA          3.3160    3.0490   24.9110 C.3       6 GLP5        0.0000 
     24 CA          3.4390    0.7880   27.0445 C.3       3 GLC5        0.0000 
     25 CA          4.2860    2.0030   28.5090 C.3       6 GLP5        0.0000 
     26 CA          3.1005   -0.7820   23.5745 C.3       3 GLC5        0.0000 
     27 CA          3.6090   -1.1370   21.5690 C.3       6 GLP5        0.0000 
     28 CA         -1.5295   -3.3875   23.3485 C.3       3 GLC5        0.0000 
     29 CA         -1.2950   -4.5490   25.0170 C.3       9 GLL5        0.0000 
     30 CA         -2.0675   -7.4315   27.7300 C.3       3 GLC5        0.0000 
     31 CA         -1.1510   -8.2600   26.0930 C.3       9 GLL5        0.0000 
     32 CA         -2.9840   -6.6030   29.3670 C.3       6 GLP5        0.0000 
     33 CA         -1.5385   -9.5625   27.2285 C.3       3 GLC5        0.0000 
     34 CA         -1.9260  -10.8650   28.3640 C.3       6 GLP5        0.0000 
     35 CA         -2.3940  -10.0310   26.4120 C.3       3 GLC5        0.0000 
     36 CA         -2.8620   -9.1970   24.4600 C.3       9 GLL5        0.0000 
     37 CA         -2.9990   -5.6530   20.9950 C.3       3 GLC5        0.0000 
     38 CA         -2.4750   -6.6280   22.7580 C.3       9 GLL5        0.0000 
     39 CA         -3.5230   -4.6780   19.2320 C.3       6 GLP5        0.0000 
     40 O          -0.6805   -6.1820   20.4245 O.2       1 ALC1        0.0000 
     41 O          -1.3740   -6.8150   21.8720 O.2       7 ALL1        0.0000 
     42 O           0.0130   -5.5490   18.9770 O.2       4 ALP1        0.0000 
     43 CA         -5.9930   -3.1627   24.0570 C.3       3 GLC5        0.0000 
     44 CA         -5.4980   -4.5150   25.9400 C.3       9 GLL5        0.0000 
     45 CA         -6.5410   -2.5200   22.1910 C.3       6 GLP5        0.0000 
     46 CA         -4.7948   -4.6435   27.7099 C.3       3 GLC5        0.0000 
     47 CA         -5.3920   -3.0960   25.9060 C.3       9 GLL5        0.0000 
     48 CA         -3.8290   -5.3270   29.4580 C.3       6 GLP5        0.0000 
     49 CA         -6.8910   -2.5903   24.1545 C.3       3 GLC5        0.0000 
     50 CA         -2.6460   -3.2665   27.6177 C.3       3 GLC5        0.0000 
     51 CA         -2.9120   -4.1210   29.5160 C.3       6 GLP5        0.0000 
     52 CA         -0.6535   -1.3850   24.2022 C.3       3 GLC5        0.0000 
     53 CA         -0.1050   -0.5870   22.6420 C.3       6 GLP5        0.0000 
     54 CA          1.2435   -1.4467   28.0790 C.3       3 GLC5        0.0000 
     55 CA          1.7770   -1.7060   25.8240 C.3       9 GLL5        0.0000 
     56 CA          0.4420   -0.7630   29.7590 C.3       6 GLP5        0.0000 
     57 CA          1.0397   -0.8268   24.1720 C.3       3 GLC5        0.0000 
@<TRIPOS>BOND
@<TRIPOS>SUBSTRUCTURE
     1 ALC1        4 GROUP        1 X    ALC  0     ROOT ALC X 1
     2 SEC2       13 GROUP        1 X    SEC  0     **** SEC X 2
     3 GLC5        1 GROUP        1 X    GLC  0     **** GLC X 6
     4 ALP1        6 GROUP        1 Y    ALP  0     ROOT ALP Y 8
     5 SEP2       15 GROUP        1 Y    SEP  0     **** SEP Y 9
     6 GLP5        3 GROUP        1 Y    GLP  0     **** GLP Y 13
     7 ALL1        5 GROUP        1 Z    ALL  0     ROOT ALL Z 15
     8 SEL2       14 GROUP        1 Z    SEL  0     **** SEL Z 16
     9 GLL5        2 GROUP        1 Z    GLL  0     **** GLL Z 20
@<TRIPOS>SET

