#    Name: 2z7s_P01_1_ligand
#    Modification time : Tue Mar 25 10:23:44 2014

@<TRIPOS>MOLECULE
2z7s_P01_1_ligand
   52    54     1     0     0
SMALL
NO_CHARGES


@<TRIPOS>ATOM
      1 CL1        -6.7640   -6.9140   26.1240 Cl        1 P011        0.0000 
      2 C5A        -6.7600   -5.1330   26.0950 C.ar      1 P011        0.0000 
      3 C6A        -5.4980   -4.5150   25.9400 C.ar      1 P011        0.0000 
      4 C1A        -5.3920   -3.0960   25.9060 C.ar      1 P011        0.0000 
      5 C2A        -6.6040   -2.3460   26.0400 C.ar      1 P011        0.0000 
      6 C3A        -7.8780   -2.9750   26.1960 C.ar      1 P011        0.0000 
      7 C4A        -7.9580   -4.3850   26.2270 C.ar      1 P011        0.0000 
      8 N6         -4.2070   -2.3940   25.7530 N.pl3     1 P011        0.0000 
      9 C6         -2.9140   -2.8580   25.5900 C.ar      1 P011        0.0000 
     10 C5         -1.8460   -1.9660   25.8490 C.ar      1 P011        0.0000 
     11 N7         -1.7940   -0.6490   26.2620 N.2       1 P011        0.0000 
     12 C4         -0.5580   -2.4000   25.6760 C.ar      1 P011        0.0000 
     13 N9          0.3050   -1.4190   25.9640 N.pl3     1 P011        0.0000 
     14 C10         1.7770   -1.7060   25.8240 C.3       1 P011        0.0000 
     15 C11         2.3130   -2.5550   26.9740 C.3       1 P011        0.0000 
     16 C12         2.5920   -0.4270   25.5800 C.3       1 P011        0.0000 
     17 C8         -0.4480   -0.3440   26.3210 C.2       1 P011        0.0000 
     18 N3         -0.2470   -3.6790   25.2680 N.ar      1 P011        0.0000 
     19 C2         -1.2950   -4.5490   25.0170 C.ar      1 P011        0.0000 
     20 N1         -2.6020   -4.1300   25.1790 N.ar      1 P011        0.0000 
     21 N21        -1.0130   -5.8210   24.6070 N.pl3     1 P011        0.0000 
     22 C22        -2.0790   -6.7750   24.2440 C.3       1 P011        0.0000 
     23 C25        -1.6960   -8.2160   24.6540 C.3       1 P011        0.0000 
     24 C26        -1.1510   -8.2600   26.0930 C.3       1 P011        0.0000 
     25 C27        -2.8620   -9.1970   24.4600 C.3       1 P011        0.0000 
     26 C23        -2.4750   -6.6280   22.7580 C.3       1 P011        0.0000 
     27 O24        -1.3740   -6.8150   21.8720 O.3       1 P011        0.0000 
     28 H          -4.6557   -5.0858   25.8516 H         1 P011        0.0000 
     29 H          -6.5552   -1.3157   26.0233 H         1 P011        0.0000 
     30 H          -8.7138   -2.4067   26.2832 H         1 P011        0.0000 
     31 H          -8.8453   -4.8517   26.3403 H         1 P011        0.0000 
     32 H          -4.3117   -1.2976   25.7628 H         1 P011        0.0000 
     33 H           1.8935   -2.3292   24.8911 H         1 P011        0.0000 
     34 H          -0.0982    0.5245   26.5834 H         1 P011        0.0000 
     35 H          -0.0441   -6.1689   24.5336 H         1 P011        0.0000 
     36 H          -2.9863   -6.5097   24.8399 H         1 P011        0.0000 
     37 H          -0.8783   -8.5366   23.9855 H         1 P011        0.0000 
     38 H          -2.9289   -5.6243   22.6419 H         1 P011        0.0000 
     39 H          -3.2851   -7.3584   22.5652 H         1 P011        0.0000 
     40 H           3.2897   -2.7439   26.8723 H         1 P011        0.0000 
     41 H           2.1925   -2.1022   27.8575 H         1 P011        0.0000 
     42 H           1.8480   -3.4384   27.0315 H         1 P011        0.0000 
     43 H           3.5685   -0.6211   25.4859 H         1 P011        0.0000 
     44 H           2.3048    0.0428   24.7453 H         1 P011        0.0000 
     45 H           2.4939    0.2250   26.3319 H         1 P011        0.0000 
     46 H          -0.8983   -9.1882   26.3662 H         1 P011        0.0000 
     47 H          -0.3355   -7.6911   26.1988 H         1 P011        0.0000 
     48 H          -1.8247   -7.9326   26.7555 H         1 P011        0.0000 
     49 H          -2.6132  -10.1274   24.7291 H         1 P011        0.0000 
     50 H          -3.6598   -8.9379   25.0043 H         1 P011        0.0000 
     51 H          -3.1587   -9.2372   23.5059 H         1 P011        0.0000 
     52 H          -1.5121   -6.1449   21.1427 H         1 P011        0.0000 
@<TRIPOS>BOND
     1    2    1 1    
     2    3    2 ar   
     3    7    2 ar   
     4    4    3 ar   
     5   28    3 1    
     6    5    4 ar   
     7    8    4 1    
     8    6    5 ar   
     9   29    5 1    
    10    7    6 ar   
    11   30    6 1    
    12   31    7 1    
    13    9    8 1    
    14   32    8 1    
    15   10    9 ar   
    16   20    9 ar   
    17   11   10 1    
    18   12   10 ar   
    19   17   11 2    
    20   13   12 1    
    21   18   12 ar   
    22   14   13 1    
    23   17   13 1    
    24   15   14 1    
    25   16   14 1    
    26   33   14 1    
    27   40   15 1    
    28   41   15 1    
    29   42   15 1    
    30   43   16 1    
    31   44   16 1    
    32   45   16 1    
    33   34   17 1    
    34   19   18 ar   
    35   20   19 ar   
    36   21   19 1    
    37   22   21 1    
    38   35   21 1    
    39   23   22 1    
    40   26   22 1    
    41   36   22 1    
    42   24   23 1    
    43   25   23 1    
    44   37   23 1    
    45   46   24 1    
    46   47   24 1    
    47   48   24 1    
    48   49   25 1    
    49   50   25 1    
    50   51   25 1    
    51   27   26 1    
    52   38   26 1    
    53   39   26 1    
    54   52   27 1    
@<TRIPOS>SUBSTRUCTURE
     1 P011        1 GROUP   
@<TRIPOS>SET

