#    Name: 3U8M_7_CAVITY_N1_6.mol2
#    Modification time : Tue Mar 11 06:39:22 2014

@<TRIPOS>MOLECULE
3U8M_7_CAVITY_N1_6.mol2
    9     0     2     0     0
SMALL
NO_CHARGES


@<TRIPOS>ATOM
      1 CA        -77.5469   66.5028  -23.1762 C.3       2 GLY6        0.0000 
      2 CA        -75.6672   66.0347  -24.0408 C.3       2 GLY6        0.0000 
      3 N         -76.7858   64.5265  -23.0539 N.2       1 ALA2        0.0000 
      4 CA        -77.0591   65.4907  -24.1700 C.3       2 GLY6        0.0000 
      5 CA        -77.3323   66.4549  -25.2861 C.3       2 GLY6        0.0000 
      6 CA        -78.1777   63.9825  -23.1831 C.3       2 GLY6        0.0000 
      7 CA        -78.4510   64.9467  -24.2992 C.3       2 GLY6        0.0000 
      8 CA        -78.7242   65.9110  -25.4153 C.3       2 GLY6        0.0000 
      9 CA        -80.1161   65.3670  -25.5445 C.3       2 GLY6        0.0000 
@<TRIPOS>BOND
@<TRIPOS>SUBSTRUCTURE
     1 ALA2        3 GROUP   
     2 GLY6        1 GROUP   
@<TRIPOS>SET

