#    Name: 3u8m_09R_7_INTS_M
#    Modification time : Mon Mar 24 21:49:05 2014

@<TRIPOS>MOLECULE
3u8m_09R_7_INTS_M
   66     0     3     0     0
SMALL
NO_CHARGES


@<TRIPOS>ATOM
      1 CA        -81.0170   68.8805  -18.4385 C.3       1 GLC5        0.0000 
      2 CA        -82.7110   68.7010  -19.8650 C.3       3 GLL5        0.0000 
      3 CA        -79.3230   69.0600  -17.0120 C.3       2 GLP5        0.0000 
      4 CA        -83.1715   69.7590  -21.2085 C.3       1 GLC5        0.0000 
      5 CA        -83.6320   70.8170  -22.5520 C.3       2 GLP5        0.0000 
      6 CA        -80.5685   66.5780  -18.4525 C.3       1 GLC5        0.0000 
      7 CA        -81.6490   66.5670  -20.3540 C.3       3 GLL5        0.0000 
      8 CA        -79.4880   66.5890  -16.5510 C.3       2 GLP5        0.0000 
      9 CA        -82.5125   65.8160  -22.1895 C.3       1 GLC5        0.0000 
     10 CA        -83.3760   65.0650  -24.0250 C.3       2 GLP5        0.0000 
     11 CA        -82.0410   69.7510  -21.4510 C.3       1 GLC5        0.0000 
     12 CA        -80.4500   68.6850  -20.3500 C.3       3 GLL5        0.0000 
     13 CA        -79.1620   69.3260  -18.7955 C.3       1 GLC5        0.0000 
     14 CA        -79.0010   69.5920  -20.5790 C.3       3 GLL5        0.0000 
     15 CA        -77.6170   71.0650  -20.2265 C.3       1 GLC5        0.0000 
     16 CA        -76.2330   72.5380  -19.8740 C.3       2 GLP5        0.0000 
     17 CA        -77.4670   68.8510  -21.0080 C.3       1 GLC5        0.0000 
     18 CA        -75.9330   68.1100  -21.4370 C.3       2 GLP5        0.0000 
     19 CA        -79.4055   69.3780  -22.5930 C.3       1 GLC5        0.0000 
     20 CA        -79.8100   69.1640  -24.6070 C.3       2 GLP5        0.0000 
     21 CA        -79.3185   71.3325  -21.7440 C.3       1 GLC5        0.0000 
     22 CA        -79.6360   73.0730  -22.9090 C.3       2 GLP5        0.0000 
     23 CA        -85.2100   68.6455  -17.9675 C.3       1 GLC5        0.0000 
     24 CA        -85.0340   67.3350  -18.9720 C.3       3 GLL5        0.0000 
     25 CA        -85.3860   69.9560  -16.9630 C.3       2 GLP5        0.0000 
     26 CA        -86.7890   67.0075  -20.1345 C.3       1 GLC5        0.0000 
     27 CA        -88.5440   66.6800  -21.2970 C.3       2 GLP5        0.0000 
     28 CA        -84.9415   67.5950  -20.8750 C.3       1 GLC5        0.0000 
     29 CA        -84.8490   67.8550  -22.7780 C.3       2 GLP5        0.0000 
     30 CA        -87.3395   65.6605  -17.2155 C.3       1 GLC5        0.0000 
     31 CA        -85.8740   66.2550  -18.3050 C.3       3 GLL5        0.0000 
     32 CA        -88.8050   65.0660  -16.1260 C.3       2 GLP5        0.0000 
     33 CA        -86.6305   67.3910  -17.0185 C.3       1 GLC5        0.0000 
     34 CA        -87.3870   68.5270  -15.7320 C.3       2 GLP5        0.0000 
     35 CA        -87.4885   66.3160  -19.1790 C.3       1 GLC5        0.0000 
     36 CA        -89.1030   66.3770  -20.0530 C.3       2 GLP5        0.0000 
     37 CA        -86.1615   64.5365  -16.3865 C.3       1 GLC5        0.0000 
     38 CA        -84.4470   64.3020  -17.6060 C.3       3 GLL5        0.0000 
     39 CA        -87.8760   64.7710  -15.1670 C.3       2 GLP5        0.0000 
     40 CA        -83.6200   65.7465  -16.1210 C.3       1 GLC5        0.0000 
     41 CA        -82.7930   67.1910  -14.6360 C.3       2 GLP5        0.0000 
     42 CA        -85.7165   62.8215  -18.1655 C.3       1 GLC5        0.0000 
     43 CA        -86.9860   61.3410  -18.7250 C.3       2 GLP5        0.0000 
     44 CA        -83.5315   62.8120  -17.6280 C.3       1 GLC5        0.0000 
     45 CA        -82.6160   61.3220  -17.6500 C.3       2 GLP5        0.0000 
     46 CA        -85.0490   62.8920  -19.4485 C.3       1 GLC5        0.0000 
     47 CA        -83.6130   64.2850  -18.8940 C.3       3 GLL5        0.0000 
     48 CA        -86.4850   61.4990  -20.0030 C.3       2 GLP5        0.0000 
     49 CA        -82.6290   63.2585  -18.0710 C.3       1 GLC5        0.0000 
     50 CA        -81.6450   62.2320  -17.2480 C.3       2 GLP5        0.0000 
     51 CA        -85.6525   63.7365  -20.4725 C.3       1 GLC5        0.0000 
     52 CA        -84.1380   65.2210  -19.9980 C.3       3 GLL5        0.0000 
     53 CA        -87.1670   62.2520  -20.9470 C.3       2 GLP5        0.0000 
     54 CA        -83.7570   65.1430  -22.0115 C.3       1 GLC5        0.0000 
     55 CA        -82.8345   64.7435  -21.7545 C.3       1 GLC5        0.0000 
     56 CA        -81.5310   64.2660  -23.5110 C.3       2 GLP5        0.0000 
     57 CA        -82.4500   63.7765  -19.7350 C.3       1 GLC5        0.0000 
     58 CA        -80.7620   62.3320  -19.4720 C.3       2 GLP5        0.0000 
     59 CA        -84.4935   66.5380  -21.3880 C.3       1 GLC5        0.0000 
     60 CA        -83.5422   67.3922  -21.4800 C.3       1 GLC5        0.0000 
     61 CA        -82.8220   67.2920  -20.0100 C.3       3 GLL5        0.0000 
     62 CA        -81.2897   65.5948  -21.9752 C.3       1 GLC5        0.0000 
     63 CA        -79.8860   68.5213  -18.7248 C.3       1 GLC5        0.0000 
     64 CA        -80.4480   67.2800  -20.5250 C.3       3 GLL5        0.0000 
     65 CA        -80.5346   67.7896  -22.3064 C.3       1 GLC5        0.0000 
     66 CA        -80.3200   67.7750  -24.2180 C.3       2 GLP5        0.0000 
@<TRIPOS>BOND
@<TRIPOS>SUBSTRUCTURE
     1 GLC5        1 GROUP        1 X    GLC  0     ROOT GLC X 6
     2 GLP5        3 GROUP        1 Y    GLP  0     ROOT GLP Y 13
     3 GLL5        2 GROUP        1 Z    GLL  0     ROOT GLL Z 20
@<TRIPOS>SET

