#    Name: 3u8m_09R_7_ligand
#    Modification time : Mon Mar 24 21:49:05 2014

@<TRIPOS>MOLECULE
3u8m_09R_7_ligand
   27    28     1     0     0
SMALL
NO_CHARGES


@<TRIPOS>ATOM
      1 C1        -82.7110   68.7010  -19.8650 C.ar      1 09R211      0.0000 
      2 C2        -82.8220   67.2920  -20.0100 C.ar      1 09R211      0.0000 
      3 C3        -81.6490   66.5670  -20.3540 C.ar      1 09R211      0.0000 
      4 C4        -80.4480   67.2800  -20.5250 C.ar      1 09R211      0.0000 
      5 C5        -80.4500   68.6850  -20.3500 C.ar      1 09R211      0.0000 
      6 N1        -81.5600   69.3880  -20.0330 N.ar      1 09R211      0.0000 
      7 BR1       -79.0010   69.5920  -20.5790 Br        1 09R211      0.0000 
      8 N2        -84.0030   66.6700  -19.7570 N.3       1 09R211      0.0000 
      9 C6        -85.0340   67.3350  -18.9720 C.3       1 09R211      0.0000 
     10 C7        -85.8740   66.2550  -18.3050 C.3       1 09R211      0.0000 
     11 N3        -85.0290   65.6280  -17.2800 N.4       1 09R211      0.0000 
     12 C8        -84.4470   64.3020  -17.6060 C.3       1 09R211      0.0000 
     13 C9        -83.6130   64.2850  -18.8940 C.3       1 09R211      0.0000 
     14 C10       -84.1380   65.2210  -19.9980 C.3       1 09R211      0.0000 
     15 H         -83.5986   69.2173  -19.6099 H         1 09R211      0.0000 
     16 H         -81.6833   65.5655  -20.4713 H         1 09R211      0.0000 
     17 H         -79.5896   66.7972  -20.7705 H         1 09R211      0.0000 
     18 H         -85.6810   67.9354  -19.6021 H         1 09R211      0.0000 
     19 H         -84.5980   67.9591  -18.1997 H         1 09R211      0.0000 
     20 H         -86.1734   65.5352  -19.0526 H         1 09R211      0.0000 
     21 H         -86.7440   66.7154  -17.8603 H         1 09R211      0.0000 
     22 H         -85.2522   63.5496  -17.7090 H         1 09R211      0.0000 
     23 H         -83.8021   63.9565  -16.7754 H         1 09R211      0.0000 
     24 H         -83.5835   63.2565  -19.2869 H         1 09R211      0.0000 
     25 H         -82.5768   64.5695  -18.6524 H         1 09R211      0.0000 
     26 H         -83.6187   64.9419  -20.9494 H         1 09R211      0.0000 
     27 H         -85.2123   64.9616  -20.1748 H         1 09R211      0.0000 
@<TRIPOS>BOND
     1    2    1 ar   
     2    6    1 ar   
     3   15    1 1    
     4    3    2 ar   
     5    8    2 1    
     6    4    3 ar   
     7   16    3 1    
     8    5    4 ar   
     9   17    4 1    
    10    6    5 ar   
    11    7    5 1    
    12    9    8 1    
    13   14    8 1    
    14   10    9 1    
    15   18    9 1    
    16   19    9 1    
    17   11   10 1    
    18   20   10 1    
    19   21   10 1    
    20   12   11 1    
    21   13   12 1    
    22   22   12 1    
    23   23   12 1    
    24   14   13 1    
    25   24   13 1    
    26   25   13 1    
    27   26   14 1    
    28   27   14 1    
@<TRIPOS>SUBSTRUCTURE
     1 09R211      1 GROUP   
@<TRIPOS>SET

