#    Name: 1g17_GNP_2_INTS_M
#    Modification time : Tue Mar 25 02:16:14 2014

@<TRIPOS>MOLECULE
1g17_GNP_2_INTS_M
   83     0    15     0     0
SMALL
NO_CHARGES


@<TRIPOS>ATOM
      1 N          13.4310   25.9755   26.1250 N.am      2 SEC2        0.0000 
      2 N          13.2270   26.7400   27.2730 N.am     12 SEL2        0.0000 
      3 N          13.6350   25.2110   24.9770 N.am      7 SEP2        0.0000 
      4 N          12.5795   27.7740   26.6550 N.am      2 SEC2        0.0000 
      5 N          11.9320   28.8080   26.0370 N.am      7 SEP2        0.0000 
      6 N          14.0455   27.8525   26.9260 N.am      2 SEC2        0.0000 
      7 N          14.8640   28.9650   26.5790 N.am      7 SEP2        0.0000 
      8 Zn         13.0795   27.1850   30.5710 Zn        4 ZIC7        0.0000 
      9 Zn         13.4250   27.3550   29.5790 Zn       14 ZIL7        0.0000 
     10 Zn         12.7340   27.0150   31.5630 Zn        9 ZIP7        0.0000 
     11 N          12.7255   28.5905   29.3115 N.am      2 SEC2        0.0000 
     12 N          13.4250   27.3550   29.5790 N.am     12 SEL2        0.0000 
     13 N          12.0260   29.8260   29.0440 N.am      7 SEP2        0.0000 
     14 NZ         15.8850   25.1595   29.2625 N.4       3 LYC4        0.0000 
     15 NZ         15.1760   26.0700   28.6150 N.4      13 LYL4        0.0000 
     16 NZ         16.5940   24.2490   29.9100 N.4       8 LYP4        0.0000 
     17 N          15.8850   25.1595   29.2625 N.am      2 SEC2        0.0000 
     18 N          15.1760   26.0700   28.6150 N.am     12 SEL2        0.0000 
     19 N          16.5940   24.2490   29.9100 N.am      7 SEP2        0.0000 
     20 N          16.2660   26.6995   28.2365 N.am      2 SEC2        0.0000 
     21 N          17.3560   27.3290   27.8580 N.am      7 SEP2        0.0000 
     22 NZ         15.3175   23.7140   30.1915 N.4       3 LYC4        0.0000 
     23 NZ         14.0410   23.1790   30.4730 N.4      13 LYL4        0.0000 
     24 N          13.4735   21.8065   30.8485 N.am      2 SEC2        0.0000 
     25 N          14.0410   23.1790   30.4730 N.am     12 SEL2        0.0000 
     26 N          12.9060   20.4340   31.2240 N.am      7 SEP2        0.0000 
     27 N          13.9705   22.6690   31.8655 N.am      2 SEC2        0.0000 
     28 N          13.9000   22.1590   33.2580 N.am      7 SEP2        0.0000 
     29 N          15.3175   23.7140   30.1915 N.am      2 SEC2        0.0000 
     30 Zn         12.7455   25.9630   31.5795 Zn        4 ZIC7        0.0000 
     31 Zn         12.7570   24.9110   31.5960 Zn       14 ZIL7        0.0000 
     32 N          12.8035   24.7225   33.0100 N.am      2 SEC2        0.0000 
     33 N          12.7570   24.9110   31.5960 N.am     12 SEL2        0.0000 
     34 N          12.8500   24.5340   34.4240 N.am      7 SEP2        0.0000 
     35 N          12.2400   21.7820   30.7805 N.am      2 SEC2        0.0000 
     36 N          11.5740   23.1300   30.3370 N.am     12 SEL2        0.0000 
     37 N          10.4125   23.3585   34.0320 N.am      2 SEC2        0.0000 
     38 N          10.3960   23.1810   32.6330 N.am     12 SEL2        0.0000 
     39 N          10.4290   23.5360   35.4310 N.am      7 SEP2        0.0000 
     40 CA         10.7695   21.7575   28.1610 C.3       5 GLC5        0.0000 
     41 CA          9.1740   21.8400   29.1990 C.3      15 GLL5        0.0000 
     42 CA         12.3650   21.6750   27.1230 C.3      10 GLP5        0.0000 
     43 CA          6.1815   23.2820   28.8055 C.3       5 GLC5        0.0000 
     44 CA          6.6760   21.5750   29.6320 C.3      15 GLL5        0.0000 
     45 CA          5.6870   24.9890   27.9790 C.3      10 GLP5        0.0000 
     46 O           3.9960   21.3570   29.3005 O.2       1 ALC1        0.0000 
     47 O           5.4980   21.4010   28.7930 O.2      11 ALL1        0.0000 
     48 O           2.4940   21.3130   29.8080 O.2       6 ALP1        0.0000 
     49 CA          7.0685   21.5900   32.5700 C.3       5 GLC5        0.0000 
     50 CA          6.5890   20.7960   30.9420 C.3      15 GLL5        0.0000 
     51 CA          7.5480   22.3840   34.1980 C.3      10 GLP5        0.0000 
     52 O           4.7020   21.5220   32.3475 O.2       1 ALC1        0.0000 
     53 O           5.2630   20.7130   31.4890 O.2      11 ALL1        0.0000 
     54 O           4.1410   22.3310   33.2060 O.2       6 ALP1        0.0000 
     55 CA          8.6580   18.1175   30.2570 C.3       5 GLC5        0.0000 
     56 CA          7.1220   19.4030   30.5830 C.3      15 GLL5        0.0000 
     57 CA         10.1940   16.8320   29.9310 C.3      10 GLP5        0.0000 
     58 N          10.6070   17.7655   33.6905 N.am      2 SEC2        0.0000 
     59 N           9.0850   18.3600   33.5580 N.am     12 SEL2        0.0000 
     60 N          12.1290   17.1710   33.8230 N.am      7 SEP2        0.0000 
     61 CA          9.4215   16.0970   32.4285 C.3       5 GLC5        0.0000 
     62 CA          8.3300   17.2290   33.2920 C.3      15 GLL5        0.0000 
     63 CA         10.5130   14.9650   31.5650 C.3      10 GLP5        0.0000 
     64 CA          8.8085   17.8565   35.3265 C.3       5 GLC5        0.0000 
     65 CA          9.2870   18.4840   37.3610 C.3      10 GLP5        0.0000 
     66 N           9.2055   15.8500   36.3035 N.am      2 SEC2        0.0000 
     67 N           8.9360   15.6120   34.9500 N.am     12 SEL2        0.0000 
     68 N           9.4750   16.0880   37.6570 N.am      7 SEP2        0.0000 
     69 N           7.8970   15.9805   36.1885 N.am      2 SEC2        0.0000 
     70 N           6.8580   16.3490   37.4270 N.am      7 SEP2        0.0000 
     71 O           7.4160   13.8220   33.9005 O.2       1 ALC1        0.0000 
     72 O           7.3680   15.0810   33.3560 O.2      11 ALL1        0.0000 
     73 O           7.4640   12.5630   34.4450 O.2       6 ALP1        0.0000 
     74 O           5.6440   13.2490   32.7025 O.2       1 ALC1        0.0000 
     75 O           5.7750   14.3940   31.8170 O.2      11 ALL1        0.0000 
     76 O           5.5130   12.1040   33.5880 O.2       6 ALP1        0.0000 
     77 CA          8.8540   17.1300   31.0605 C.3       5 GLC5        0.0000 
     78 CA          7.5140   17.4280   32.1900 C.3      15 GLL5        0.0000 
     79 CA          8.3300   22.3087   27.3833 C.3       5 GLC5        0.0000 
     80 CA          7.9360   20.9510   28.9680 C.3      15 GLL5        0.0000 
     81 CA          8.1050   23.2220   25.6830 C.3      10 GLP5        0.0000 
     82 CA          5.7547   19.3672   32.4843 C.3       5 GLC5        0.0000 
     83 CA          4.6540   18.6350   34.2060 C.3      10 GLP5        0.0000 
@<TRIPOS>BOND
@<TRIPOS>SUBSTRUCTURE
     1 ALC1       46 GROUP        1 X    ALC  0     ROOT ALC X 1
     2 SEC2        1 GROUP        1 X    SEC  0     **** SEC X 2
     3 LYC4       14 GROUP        1 X    LYC  0     **** LYC X 4
     4 ZIC7        8 GROUP        1 X    ZIC  0     **** ZIC X 5
     5 GLC5       40 GROUP        1 X    GLC  0     **** GLC X 6
     6 ALP1       48 GROUP        1 Y    ALP  0     ROOT ALP Y 8
     7 SEP2        3 GROUP        1 Y    SEP  0     **** SEP Y 9
     8 LYP4       16 GROUP        1 Y    LYP  0     **** LYP Y 11
     9 ZIP7       10 GROUP        1 Y    ZIP  0     **** ZIP Y 12
    10 GLP5       42 GROUP        1 Y    GLP  0     **** GLP Y 13
    11 ALL1       47 GROUP        1 Z    ALL  0     ROOT ALL Z 15
    12 SEL2        2 GROUP        1 Z    SEL  0     **** SEL Z 16
    13 LYL4       15 GROUP        1 Z    LYL  0     **** LYL Z 18
    14 ZIL7        9 GROUP        1 Z    ZIL  0     **** ZIL Z 19
    15 GLL5       41 GROUP        1 Z    GLL  0     **** GLL Z 20
@<TRIPOS>SET

