#    Name: 1g17_GNP_2_ligand
#    Modification time : Tue Mar 25 02:16:14 2014

@<TRIPOS>MOLECULE
1g17_GNP_2_ligand
   44    46     1     0     0
SMALL
NO_CHARGES


@<TRIPOS>ATOM
      1 PG         13.6080   26.2800   28.6070 P.3       1 GNP202      0.0000 
      2 O1G        13.2270   26.7400   27.2730 O.co2     1 GNP202      0.0000 
      3 O2G        13.4250   27.3550   29.5790 O.co2     1 GNP202      0.0000 
      4 O3G        15.1760   26.0700   28.6150 O.co2     1 GNP202      0.0000 
      5 N3B        12.7920   24.9270   28.9830 N.4       1 GNP202      0.0000 
      6 PB         12.8670   24.0620   30.3850 P.3       1 GNP202      0.0000 
      7 O1B        14.0410   23.1790   30.4730 O.co2     1 GNP202      0.0000 
      8 O2B        12.7570   24.9110   31.5960 O.co2     1 GNP202      0.0000 
      9 O3A        11.5740   23.1300   30.3370 O.3       1 GNP202      0.0000 
     10 PA         10.1480   23.3510   31.1650 P.3       1 GNP202      0.0000 
     11 O1A        10.3960   23.1810   32.6330 O.co2     1 GNP202      0.0000 
     12 O2A         9.4630   24.5920   30.6960 O.co2     1 GNP202      0.0000 
     13 O5'         9.3780   22.0920   30.6210 O.3       1 GNP202      0.0000 
     14 C5'         9.1740   21.8400   29.1990 C.3       1 GNP202      0.0000 
     15 C4'         7.9360   20.9510   28.9680 C.3       1 GNP202      0.0000 
     16 O4'         8.1330   19.6390   29.5740 O.3       1 GNP202      0.0000 
     17 C3'         6.6760   21.5750   29.6320 C.3       1 GNP202      0.0000 
     18 O3'         5.4980   21.4010   28.7930 O.3       1 GNP202      0.0000 
     19 C2'         6.5890   20.7960   30.9420 C.3       1 GNP202      0.0000 
     20 O2'         5.2630   20.7130   31.4890 O.3       1 GNP202      0.0000 
     21 C1'         7.1220   19.4030   30.5830 C.3       1 GNP202      0.0000 
     22 N9          7.7600   18.7050   31.7600 N.pl3     1 GNP202      0.0000 
     23 C8          8.7230   19.1850   32.6500 C.2       1 GNP202      0.0000 
     24 N7          9.0850   18.3600   33.5580 N.2       1 GNP202      0.0000 
     25 C5          8.3300   17.2290   33.2920 C.2       1 GNP202      0.0000 
     26 C6          8.2880   15.9700   33.9600 C.2       1 GNP202      0.0000 
     27 O6          8.9360   15.6120   34.9500 O.2       1 GNP202      0.0000 
     28 N1          7.3680   15.0810   33.3560 N.am      1 GNP202      0.0000 
     29 C2          6.5860   15.3590   32.2490 C.2       1 GNP202      0.0000 
     30 N2          5.7750   14.3940   31.8170 N.pl3     1 GNP202      0.0000 
     31 N3          6.6350   16.5530   31.6250 N.2       1 GNP202      0.0000 
     32 C4          7.5140   17.4280   32.1900 C.2       1 GNP202      0.0000 
     33 H          10.0393   21.3300   28.7601 H         1 GNP202      0.0000 
     34 H           9.0213   22.7762   28.6498 H         1 GNP202      0.0000 
     35 H           7.7509   20.8657   27.9215 H         1 GNP202      0.0000 
     36 H           6.9009   22.5840   29.8517 H         1 GNP202      0.0000 
     37 H           7.2970   21.2309   31.6303 H         1 GNP202      0.0000 
     38 H           6.3271   18.8231   30.1873 H         1 GNP202      0.0000 
     39 H           9.0739   20.1309   32.5345 H         1 GNP202      0.0000 
     40 H           7.2783   14.1167   33.8012 H         1 GNP202      0.0000 
     41 H           5.7791   13.5458   32.3467 H         1 GNP202      0.0000 
     42 H           5.2353   14.6049   31.0020 H         1 GNP202      0.0000 
     43 H           4.8317   20.9360   29.3759 H         1 GNP202      0.0000 
     44 H           5.1832   21.5043   32.0952 H         1 GNP202      0.0000 
@<TRIPOS>BOND
     1    2    1 ar   
     2    3    1 ar   
     3    4    1 ar   
     4    5    1 1    
     5    6    5 1    
     6    7    6 ar   
     7    8    6 ar   
     8    9    6 1    
     9   10    9 1    
    10   11   10 ar   
    11   12   10 ar   
    12   13   10 1    
    13   14   13 1    
    14   15   14 1    
    15   33   14 1    
    16   34   14 1    
    17   16   15 1    
    18   17   15 1    
    19   35   15 1    
    20   21   16 1    
    21   18   17 1    
    22   19   17 1    
    23   36   17 1    
    24   43   18 1    
    25   20   19 1    
    26   21   19 1    
    27   37   19 1    
    28   44   20 1    
    29   22   21 1    
    30   38   21 1    
    31   23   22 1    
    32   32   22 1    
    33   24   23 2    
    34   39   23 1    
    35   25   24 1    
    36   26   25 1    
    37   32   25 2    
    38   27   26 2    
    39   28   26 am   
    40   29   28 1    
    41   40   28 1    
    42   30   29 1    
    43   31   29 2    
    44   41   30 1    
    45   42   30 1    
    46   32   31 1    
@<TRIPOS>SUBSTRUCTURE
     1 GNP202      1 GROUP   
@<TRIPOS>SET

