#    Name: 1tgm_AIN_1_INTS_M
#    Modification time : Tue Mar 25 05:00:35 2014

@<TRIPOS>MOLECULE
1tgm_AIN_1_INTS_M
   15     0     3     0     0
SMALL
NO_CHARGES


@<TRIPOS>ATOM
      1 CA         45.8275   33.6470    6.4480 C.3       1 GLC5        0.0000 
      2 CA         46.3150   31.6360    6.0580 C.3       3 GLL5        0.0000 
      3 CA         45.3400   35.6580    6.8380 C.3       2 GLP5        0.0000 
      4 CA         46.5025   33.4050    7.5860 C.3       1 GLC5        0.0000 
      5 CA         47.5270   31.6660    6.9220 C.3       3 GLL5        0.0000 
      6 CA         45.4780   35.1440    8.2500 C.3       2 GLP5        0.0000 
      7 CA         46.3540   34.4255    8.8555 C.3       1 GLC5        0.0000 
      8 CA         47.2300   33.7070    9.4610 C.3       3 GLL5        0.0000 
      9 CA         46.5485   30.6392    3.2517 C.3       1 GLC5        0.0000 
     10 CA         46.4480   31.8580    4.6930 C.3       3 GLL5        0.0000 
     11 CA         46.0220   29.3050    2.0860 C.3       2 GLP5        0.0000 
     12 CA         49.0048   29.8148    6.6312 C.3       1 GLC5        0.0000 
     13 CA         49.8660   27.8550    6.6430 C.3       2 GLP5        0.0000 
     14 CA         46.0466   30.1462    5.9829 C.3       1 GLC5        0.0000 
     15 CA         45.1390   28.5860    5.8170 C.3       2 GLP5        0.0000 
@<TRIPOS>BOND
@<TRIPOS>SUBSTRUCTURE
     1 GLC5        1 GROUP        1 X    GLC  0     ROOT GLC X 6
     2 GLP5        3 GROUP        1 Y    GLP  0     ROOT GLP Y 13
     3 GLL5        2 GROUP        1 Z    GLL  0     ROOT GLL Z 20
@<TRIPOS>SET

