#    Name: 1tgm_AIN_1_ligand
#    Modification time : Tue Mar 25 05:00:35 2014

@<TRIPOS>MOLECULE
1tgm_AIN_1_ligand
   20    20     1     0     0
SMALL
NO_CHARGES


@<TRIPOS>ATOM
      1 O1         43.9700   31.3830    5.9010 O.co2     1 AIN202      0.0000 
      2 C7         44.9480   31.3900    6.6330 C.2       1 AIN202      0.0000 
      3 O2         44.7990   31.1850    7.8260 O.co2     1 AIN202      0.0000 
      4 C3         46.3150   31.6360    6.0580 C.ar      1 AIN202      0.0000 
      5 C4         46.4480   31.8580    4.6930 C.ar      1 AIN202      0.0000 
      6 C5         47.7020   32.0890    4.1420 C.ar      1 AIN202      0.0000 
      7 C6         48.8410   32.1010    4.9420 C.ar      1 AIN202      0.0000 
      8 C1         48.7600   31.8830    6.3170 C.ar      1 AIN202      0.0000 
      9 C2         47.5270   31.6660    6.9220 C.ar      1 AIN202      0.0000 
     10 O3         47.4210   31.3990    8.2700 O.3       1 AIN202      0.0000 
     11 C8         47.5590   32.2460    9.4480 C.2       1 AIN202      0.0000 
     12 O4         47.9310   31.7220   10.4800 O.2       1 AIN202      0.0000 
     13 C9         47.2300   33.7070    9.4610 C.3       1 AIN202      0.0000 
     14 H          45.6144   31.8513    4.0880 H         1 AIN202      0.0000 
     15 H          47.7918   32.2542    3.1253 H         1 AIN202      0.0000 
     16 H          49.7659   32.2749    4.5094 H         1 AIN202      0.0000 
     17 H          49.6187   31.8831    6.8856 H         1 AIN202      0.0000 
     18 H          47.3900   34.1157   10.3595 H         1 AIN202      0.0000 
     19 H          47.7836   34.2182    8.8036 H         1 AIN202      0.0000 
     20 H          46.2716   33.8739    9.2295 H         1 AIN202      0.0000 
@<TRIPOS>BOND
     1    2    1 ar   
     2    3    2 ar   
     3    4    2 1    
     4    5    4 ar   
     5    9    4 ar   
     6    6    5 ar   
     7   14    5 1    
     8    7    6 ar   
     9   15    6 1    
    10    8    7 ar   
    11   16    7 1    
    12    9    8 ar   
    13   17    8 1    
    14   10    9 1    
    15   11   10 1    
    16   12   11 2    
    17   13   11 1    
    18   18   13 1    
    19   19   13 1    
    20   20   13 1    
@<TRIPOS>SUBSTRUCTURE
     1 AIN202      1 GROUP   
@<TRIPOS>SET

