#    Name: 3qpn_PFK_1_INTS_M
#    Modification time : Mon Apr  7 19:46:55 2014

@<TRIPOS>MOLECULE
3qpn_PFK_1_INTS_M
   64     0     6     0     0
SMALL
NO_CHARGES


@<TRIPOS>ATOM
      1 CA          4.2665   16.9965   33.9790 C.3       2 GLC5        0.0000 
      2 CA          6.1630   17.5600   34.7520 C.3       6 GLL5        0.0000 
      3 CA          2.3700   16.4330   33.2060 C.3       4 GLP5        0.0000 
      4 N           9.9355   15.6630   37.6205 N.am      1 SEC2        0.0000 
      5 N           9.4300   16.9840   37.2490 N.am      5 SEL2        0.0000 
      6 N          10.4410   14.3420   37.9920 N.am      3 SEP2        0.0000 
      7 CA          7.5570   19.4400   37.9790 C.3       2 GLC5        0.0000 
      8 CA          8.6990   19.6020   36.5680 C.3       6 GLL5        0.0000 
      9 CA          6.4150   19.2780   39.3900 C.3       4 GLP5        0.0000 
     10 CA         13.3025   18.3860   38.7670 C.3       2 GLC5        0.0000 
     11 CA         11.3520   17.7640   38.6480 C.3       6 GLL5        0.0000 
     12 CA         15.2530   19.0080   38.8860 C.3       4 GLP5        0.0000 
     13 CA         10.2945   15.4610   39.3965 C.3       2 GLC5        0.0000 
     14 CA         11.0230   17.3420   40.0780 C.3       6 GLL5        0.0000 
     15 CA          9.5660   13.5800   38.7150 C.3       4 GLP5        0.0000 
     16 CA          9.9025   16.8930   41.7245 C.3       2 GLC5        0.0000 
     17 CA          8.7820   16.4440   43.3710 C.3       4 GLP5        0.0000 
     18 CA         10.2635   18.8045   41.9460 C.3       2 GLC5        0.0000 
     19 CA         12.0420   18.0590   42.6950 C.3       6 GLL5        0.0000 
     20 CA          8.4850   19.5500   41.1970 C.3       4 GLP5        0.0000 
     21 CA         13.5885   14.3950   44.3735 C.3       2 GLC5        0.0000 
     22 CA         13.9290   16.3740   43.8550 C.3       6 GLL5        0.0000 
     23 CA         13.2480   12.4160   44.8920 C.3       4 GLP5        0.0000 
     24 CA         12.0430   14.9490   43.4440 C.3       2 GLC5        0.0000 
     25 CA         13.5540   16.2010   42.5190 C.3       6 GLL5        0.0000 
     26 CA         10.5320   13.6970   44.3690 C.3       4 GLP5        0.0000 
     27 N          13.5515   14.6840   40.3495 N.am      1 SEC2        0.0000 
     28 N          14.0990   15.1920   41.7610 N.am      5 SEL2        0.0000 
     29 N          13.0040   14.1760   38.9380 N.am      3 SEP2        0.0000 
     30 CA         16.9625   14.3825   42.1795 C.3       2 GLC5        0.0000 
     31 CA         15.2440   14.4530   42.1920 C.3       6 GLL5        0.0000 
     32 CA         18.6810   14.3120   42.1670 C.3       4 GLP5        0.0000 
     33 CA         14.2460   13.4345   43.5420 C.3       2 GLC5        0.0000 
     34 CA         15.9670   16.3570   42.2825 C.3       2 GLC5        0.0000 
     35 CA         16.6900   18.2610   42.3730 C.3       4 GLP5        0.0000 
     36 CA         13.2630   20.9700   45.9125 C.3       2 GLC5        0.0000 
     37 CA         12.1960   19.4480   46.0230 C.3       6 GLL5        0.0000 
     38 CA         14.3300   22.4920   45.8020 C.3       4 GLP5        0.0000 
     39 CA          5.1755   19.3185   34.8720 C.3       2 GLC5        0.0000 
     40 CA          6.8890   18.6620   35.2180 C.3       6 GLL5        0.0000 
     41 CA          3.8250   20.5260   34.7590 C.3       4 GLP5        0.0000 
     42 CA          5.9065   17.6920   36.7152 C.3       2 GLC5        0.0000 
     43 CA          5.4570   18.4700   38.4990 C.3       4 GLP5        0.0000 
     44 CA          6.4995   16.4545   32.9603 C.3       2 GLC5        0.0000 
     45 CA          6.6430   15.9950   30.9890 C.3       4 GLP5        0.0000 
     46 CA          8.2138   14.7645   34.7907 C.3       2 GLC5        0.0000 
     47 CA          6.5490   16.2680   35.1110 C.3       6 GLL5        0.0000 
     48 CA          9.3350   13.3610   34.0470 C.3       4 GLP5        0.0000 
     49 CA          6.7275   17.5463   37.3487 C.3       2 GLC5        0.0000 
     50 CA          7.6360   16.0680   35.9580 C.3       6 GLL5        0.0000 
     51 CA          9.6825   17.1962   35.2968 C.3       2 GLC5        0.0000 
     52 CA          8.3600   17.1770   36.4390 C.3       6 GLL5        0.0000 
     53 CA         11.3670   17.7700   34.3950 C.3       4 GLP5        0.0000 
     54 CA          6.4443   18.5225   37.0753 C.3       2 GLC5        0.0000 
     55 CA          7.9740   18.4880   36.0850 C.3       6 GLL5        0.0000 
     56 CA          9.8518   18.4075   35.3607 C.3       2 GLC5        0.0000 
     57 CA          8.7073   18.5915   38.8640 C.3       2 GLC5        0.0000 
     58 CA          9.8010   19.3590   37.4030 C.3       6 GLL5        0.0000 
     59 CA          7.4420   18.4840   40.1490 C.3       4 GLP5        0.0000 
     60 CA          9.8362   18.5515   40.2800 C.3       2 GLC5        0.0000 
     61 CA         11.0146   18.0008   36.2542 C.3       2 GLC5        0.0000 
     62 CA         15.2410   18.1100   46.0207 C.3       2 GLC5        0.0000 
     63 CA         13.3370   17.3980   44.5990 C.3       6 GLL5        0.0000 
     64 CA         16.9670   18.7090   46.7740 C.3       4 GLP5        0.0000 
@<TRIPOS>BOND
@<TRIPOS>SUBSTRUCTURE
     1 SEC2        4 GROUP        1 X    SEC  0     ROOT SEC X 2
     2 GLC5        1 GROUP        1 X    GLC  0     **** GLC X 6
     3 SEP2        6 GROUP        1 Y    SEP  0     ROOT SEP Y 9
     4 GLP5        3 GROUP        1 Y    GLP  0     **** GLP Y 13
     5 SEL2        5 GROUP        1 Z    SEL  0     ROOT SEL Z 16
     6 GLL5        2 GROUP        1 Z    GLL  0     **** GLL Z 20
@<TRIPOS>SET

