#    Name: 3qpn_PFK_1_ligand
#    Modification time : Mon Apr  7 19:46:55 2014

@<TRIPOS>MOLECULE
3qpn_PFK_1_ligand
   42    45     1     0     0
SMALL
NO_CHARGES


@<TRIPOS>ATOM
      1 C1          6.1630   17.5600   34.7520 C.ar      1 PFK999      0.0000 
      2 C2          6.5490   16.2680   35.1110 C.ar      1 PFK999      0.0000 
      3 C3          7.6360   16.0680   35.9580 C.ar      1 PFK999      0.0000 
      4 C4          8.3600   17.1770   36.4390 C.ar      1 PFK999      0.0000 
      5 C5          7.9740   18.4880   36.0850 C.ar      1 PFK999      0.0000 
      6 C6          6.8890   18.6620   35.2180 C.ar      1 PFK999      0.0000 
      7 N7          9.4300   16.9840   37.2490 N.ar      1 PFK999      0.0000 
      8 C8         10.1440   18.0390   37.7550 C.ar      1 PFK999      0.0000 
      9 C9          9.8010   19.3590   37.4030 C.ar      1 PFK999      0.0000 
     10 C10         8.6990   19.6020   36.5680 C.ar      1 PFK999      0.0000 
     11 C11        11.3520   17.7640   38.6480 C.3       1 PFK999      0.0000 
     12 C12        11.0230   17.3420   40.0780 C.3       1 PFK999      0.0000 
     13 O13        12.2450   16.8800   40.6300 O.3       1 PFK999      0.0000 
     14 C14        12.5970   17.0390   41.9480 C.ar      1 PFK999      0.0000 
     15 C15        12.0420   18.0590   42.6950 C.ar      1 PFK999      0.0000 
     16 C16        12.4070   18.2410   44.0260 C.ar      1 PFK999      0.0000 
     17 C17        13.3370   17.3980   44.5990 C.ar      1 PFK999      0.0000 
     18 C18        13.9290   16.3740   43.8550 C.ar      1 PFK999      0.0000 
     19 C19        13.5540   16.2010   42.5190 C.ar      1 PFK999      0.0000 
     20 O20        14.0990   15.1920   41.7610 O.3       1 PFK999      0.0000 
     21 C21        15.2440   14.4530   42.1920 C.3       1 PFK999      0.0000 
     22 N22        11.8390   19.2490   44.7480 N.ar      1 PFK999      0.0000 
     23 C23        12.1960   19.4480   46.0230 C.ar      1 PFK999      0.0000 
     24 N24        13.1030   18.6350   46.5990 N.ar      1 PFK999      0.0000 
     25 C25        13.6930   17.6240   45.9360 C.ar      1 PFK999      0.0000 
     26 H           5.3473   17.7040   34.1466 H         1 PFK999      0.0000 
     27 H           6.0264   15.4590   34.7469 H         1 PFK999      0.0000 
     28 H           7.9136   15.1230   36.2342 H         1 PFK999      0.0000 
     29 H           6.6221   19.6113   34.9198 H         1 PFK999      0.0000 
     30 H          10.3579   20.1416   37.7580 H         1 PFK999      0.0000 
     31 H           8.4288   20.5402   36.3175 H         1 PFK999      0.0000 
     32 H          11.9850   18.6733   38.6812 H         1 PFK999      0.0000 
     33 H          11.9712   16.9746   38.1768 H         1 PFK999      0.0000 
     34 H          10.2715   16.5664   40.0327 H         1 PFK999      0.0000 
     35 H          10.6349   18.2053   40.5999 H         1 PFK999      0.0000 
     36 H          11.3492   18.6955   42.2669 H         1 PFK999      0.0000 
     37 H          14.6243   15.7616   44.2796 H         1 PFK999      0.0000 
     38 H          11.7756   20.2286   46.5718 H         1 PFK999      0.0000 
     39 H          14.3916   17.0165   46.3761 H         1 PFK999      0.0000 
     40 H          16.0372   15.0456   42.3324 H         1 PFK999      0.0000 
     41 H          15.0761   13.9784   43.0560 H         1 PFK999      0.0000 
     42 H          15.5113   13.7590   41.5235 H         1 PFK999      0.0000 
@<TRIPOS>BOND
     1    2    1 ar   
     2    6    1 ar   
     3   26    1 1    
     4    3    2 ar   
     5   27    2 1    
     6    4    3 ar   
     7   28    3 1    
     8    5    4 ar   
     9    7    4 ar   
    10    6    5 ar   
    11   10    5 ar   
    12   29    6 1    
    13    8    7 ar   
    14    9    8 ar   
    15   11    8 1    
    16   10    9 ar   
    17   30    9 1    
    18   31   10 1    
    19   12   11 1    
    20   32   11 1    
    21   33   11 1    
    22   13   12 1    
    23   34   12 1    
    24   35   12 1    
    25   14   13 1    
    26   15   14 ar   
    27   19   14 ar   
    28   16   15 ar   
    29   36   15 1    
    30   17   16 ar   
    31   22   16 ar   
    32   18   17 ar   
    33   25   17 ar   
    34   19   18 ar   
    35   37   18 1    
    36   20   19 1    
    37   21   20 1    
    38   40   21 1    
    39   41   21 1    
    40   42   21 1    
    41   23   22 ar   
    42   24   23 ar   
    43   38   23 1    
    44   25   24 ar   
    45   39   25 1    
@<TRIPOS>SUBSTRUCTURE
     1 PFK999      1 GROUP   
@<TRIPOS>SET

