#    Name: 2b4r_AES_2_INTS_M
#    Modification time : Mon Mar 24 19:52:30 2014

@<TRIPOS>MOLECULE
2b4r_AES_2_INTS_M
   32     0    12     0     0
SMALL
NO_CHARGES


@<TRIPOS>ATOM
      1 CA         12.5690  -17.9600   18.1680 C.3       4 GLC5        0.0000 
      2 CA         12.8140  -18.8140   16.3720 C.3      12 GLL5        0.0000 
      3 CA         12.3240  -17.1060   19.9640 C.3       8 GLP5        0.0000 
      4 CA         12.6185  -16.0195   15.4695 C.3       4 GLC5        0.0000 
      5 CA         12.8190  -17.9270   15.2990 C.3      12 GLL5        0.0000 
      6 CA         12.4180  -14.1120   15.6400 C.3       8 GLP5        0.0000 
      7 N          13.8700  -14.8575   14.1225 N.am      2 SEC2        0.0000 
      8 N          14.0600  -15.8740   13.2210 N.am     10 SEL2        0.0000 
      9 N          13.6800  -13.8410   15.0240 N.am      6 SEP2        0.0000 
     10 N          15.1075  -14.5425   12.8645 N.am      2 SEC2        0.0000 
     11 N          16.1550  -13.2110   12.5080 N.am      6 SEP2        0.0000 
     12 CA         13.4255  -18.8315   19.2505 C.3       4 GLC5        0.0000 
     13 CA         14.5270  -20.5570   18.5370 C.3      12 GLL5        0.0000 
     14 CA         15.5290  -18.6630   18.1285 C.3       4 GLC5        0.0000 
     15 CA         16.5310  -16.7690   17.7200 C.3       8 GLP5        0.0000 
     16 OD1        12.6875  -20.5415   20.0895 O.co2     3 ASC3        0.0000 
     17 OD1        13.9750  -20.8750   19.8610 O.co2    11 ASL3        0.0000 
     18 OD1        11.4000  -20.2080   20.3180 O.co2     7 ASP3        0.0000 
     19 O          12.6875  -20.5415   20.0895 O.2       1 ALC1        0.0000 
     20 O          13.9750  -20.8750   19.8610 O.2       9 ALL1        0.0000 
     21 O          11.4000  -20.2080   20.3180 O.2       5 ALP1        0.0000 
     22 CA         14.7492  -17.8042   16.0463 C.3       4 GLC5        0.0000 
     23 CA         16.6820  -17.2380   16.2570 C.3       8 GLP5        0.0000 
     24 CA         11.6028  -19.2957   14.4298 C.3       4 GLC5        0.0000 
     25 CA         10.3890  -20.2210   13.0240 C.3       8 GLP5        0.0000 
     26 CA         15.2915  -18.0305   15.1813 C.3       4 GLC5        0.0000 
     27 CA         13.5430  -18.2240   14.1450 C.3      12 GLL5        0.0000 
     28 CA         12.1450  -19.5220   13.5648 C.3       4 GLC5        0.0000 
     29 CA         15.2867  -18.6967   15.9868 C.3       4 GLC5        0.0000 
     30 CA         14.2540  -20.3090   15.1400 C.3      12 GLL5        0.0000 
     31 CA         12.2747  -20.8513   14.7152 C.3       4 GLC5        0.0000 
     32 CA         10.6580  -21.5470   13.7140 C.3       8 GLP5        0.0000 
@<TRIPOS>BOND
@<TRIPOS>SUBSTRUCTURE
     1 ALC1       19 GROUP        1 X    ALC  0     ROOT ALC X 1
     2 SEC2        7 GROUP        1 X    SEC  0     **** SEC X 2
     3 ASC3       16 GROUP        1 X    ASC  0     **** ASC X 3
     4 GLC5        1 GROUP        1 X    GLC  0     **** GLC X 6
     5 ALP1       21 GROUP        1 Y    ALP  0     ROOT ALP Y 8
     6 SEP2        9 GROUP        1 Y    SEP  0     **** SEP Y 9
     7 ASP3       18 GROUP        1 Y    ASP  0     **** ASP Y 10
     8 GLP5        3 GROUP        1 Y    GLP  0     **** GLP Y 13
     9 ALL1       20 GROUP        1 Z    ALL  0     ROOT ALL Z 15
    10 SEL2        8 GROUP        1 Z    SEL  0     **** SEL Z 16
    11 ASL3       17 GROUP        1 Z    ASL  0     **** ASL Z 17
    12 GLL5        2 GROUP        1 Z    GLL  0     **** GLL Z 20
@<TRIPOS>SET

