#    Name: 2b4r_AES_2_ligand
#    Modification time : Mon Mar 24 19:52:30 2014

@<TRIPOS>MOLECULE
2b4r_AES_2_ligand
   24    24     1     0     0
SMALL
NO_CHARGES


@<TRIPOS>ATOM
      1 C3         12.8140  -18.8140   16.3720 C.ar      1 AES602      0.0000 
      2 C2         12.8190  -17.9270   15.2990 C.ar      1 AES602      0.0000 
      3 C1         13.5430  -18.2240   14.1450 C.ar      1 AES602      0.0000 
      4 S          13.5350  -17.0990   12.7750 S.o2      1 AES602      0.0000 
      5 F          14.5230  -17.6180   11.6970 F         1 AES602      0.0000 
      6 O1S        14.0600  -15.8740   13.2210 O.2       1 AES602      0.0000 
      7 O2S        12.2120  -17.1700   12.2860 O.2       1 AES602      0.0000 
      8 C6         14.2590  -19.4220   14.0660 C.ar      1 AES602      0.0000 
      9 C5         14.2540  -20.3090   15.1400 C.ar      1 AES602      0.0000 
     10 C4         13.5290  -20.0020   16.2930 C.ar      1 AES602      0.0000 
     11 C7         13.5200  -20.9730   17.4690 C.3       1 AES602      0.0000 
     12 C8         14.5270  -20.5570   18.5370 C.3       1 AES602      0.0000 
     13 N8         13.9750  -20.8750   19.8610 N.4       1 AES602      0.0000 
     14 H          12.2810  -18.5884   17.2216 H         1 AES602      0.0000 
     15 H          12.2864  -17.0481   15.3569 H         1 AES602      0.0000 
     16 H          14.7881  -19.6462   13.2150 H         1 AES602      0.0000 
     17 H          14.7820  -21.1873   15.0853 H         1 AES602      0.0000 
     18 H          13.7682  -21.9734   17.1114 H         1 AES602      0.0000 
     19 H          12.5212  -20.9980   17.9073 H         1 AES602      0.0000 
     20 H          14.7121  -19.4895   18.4412 H         1 AES602      0.0000 
     21 H          15.4560  -21.0960   18.3655 H         1 AES602      0.0000 
     22 H          14.2246  -21.7974   20.1556 H         1 AES602      0.0000 
     23 H          14.3056  -20.2438   20.5626 H         1 AES602      0.0000 
     24 H          12.9763  -20.8250   19.8688 H         1 AES602      0.0000 
@<TRIPOS>BOND
     1    2    1 ar   
     2   10    1 ar   
     3   14    1 1    
     4    3    2 ar   
     5   15    2 1    
     6    4    3 1    
     7    8    3 ar   
     8    5    4 1    
     9    6    4 2    
    10    7    4 2    
    11    9    8 ar   
    12   16    8 1    
    13   10    9 ar   
    14   17    9 1    
    15   11   10 1    
    16   12   11 1    
    17   18   11 1    
    18   19   11 1    
    19   13   12 1    
    20   20   12 1    
    21   21   12 1    
    22   22   13 1    
    23   23   13 1    
    24   24   13 1    
@<TRIPOS>SUBSTRUCTURE
     1 AES602      1 GROUP   
@<TRIPOS>SET

