#    Name: 2igy_A2T_2_INTS_M
#    Modification time : Tue Mar 25 18:02:07 2014

@<TRIPOS>MOLECULE
2igy_A2T_2_INTS_M
   89     0     9     0     0
SMALL
NO_CHARGES


@<TRIPOS>ATOM
      1 CA         56.3680   10.4395  -23.0275 C.3       3 GLC5        0.0000 
      2 CA         58.3730   10.9440  -23.4600 C.3       9 GLL5        0.0000 
      3 CA         54.3630    9.9350  -22.5950 C.3       6 GLP5        0.0000 
      4 CA         56.4555   11.8200  -22.2420 C.3       3 GLC5        0.0000 
      5 CA         58.4880   12.2190  -22.9020 C.3       9 GLL5        0.0000 
      6 CA         54.4230   11.4210  -21.5820 C.3       6 GLP5        0.0000 
      7 CA         58.1790   14.6215  -22.8125 C.3       3 GLC5        0.0000 
      8 CA         59.3330   13.7730  -21.1160 C.3       9 GLL5        0.0000 
      9 CA         57.0250   15.4700  -24.5090 C.3       6 GLP5        0.0000 
     10 CA         57.9670   14.5380  -19.8380 C.3       3 GLC5        0.0000 
     11 CA         56.6010   15.3030  -18.5600 C.3       6 GLP5        0.0000 
     12 CA         60.8790   13.4530  -19.7775 C.3       3 GLC5        0.0000 
     13 CA         62.4250   13.1330  -18.4390 C.3       6 GLP5        0.0000 
     14 CA         61.8230   13.7080  -20.6650 C.3       3 GLC5        0.0000 
     15 CA         60.4140   14.5870  -21.8030 C.3       9 GLL5        0.0000 
     16 CA         63.2320   12.8290  -19.5270 C.3       6 GLP5        0.0000 
     17 CA         58.9900   17.7005  -21.3600 C.3       3 GLC5        0.0000 
     18 CA         60.3260   16.0240  -21.3230 C.3       9 GLL5        0.0000 
     19 CA         57.6540   19.3770  -21.3970 C.3       6 GLP5        0.0000 
     20 CA         62.3035   19.8760  -21.7875 C.3       3 GLC5        0.0000 
     21 CA         61.6320   18.1300  -21.0300 C.3       9 GLL5        0.0000 
     22 CA         62.9750   21.6220  -22.5450 C.3       6 GLP5        0.0000 
     23 CA         59.6430   18.7535  -21.2135 C.3       3 GLC5        0.0000 
     24 O          61.0745    4.5970  -27.0190 O.2       1 ALC1        0.0000 
     25 O          60.0470    4.1510  -26.1060 O.2       7 ALL1        0.0000 
     26 O          62.1020    5.0430  -27.9320 O.2       4 ALP1        0.0000 
     27 CA         59.6525    4.1015  -29.2730 C.3       3 GLC5        0.0000 
     28 CA         59.4260    2.5080  -27.7360 C.3       9 GLL5        0.0000 
     29 CA         59.8790    5.6950  -30.8100 C.3       6 GLP5        0.0000 
     30 CA         58.1115    1.8675  -30.5915 C.3       3 GLC5        0.0000 
     31 CA         59.5540    0.8140  -29.6020 C.3       9 GLL5        0.0000 
     32 CA         56.6690    2.9210  -31.5810 C.3       6 GLP5        0.0000 
     33 CA         59.7675    0.3415  -31.3035 C.3       3 GLC5        0.0000 
     34 CA         59.9810   -0.1310  -33.0050 C.3       6 GLP5        0.0000 
     35 CA         61.3300    1.5035  -30.5565 C.3       3 GLC5        0.0000 
     36 CA         63.1060    2.1930  -31.5110 C.3       6 GLP5        0.0000 
     37 CA         57.7575   -1.5325  -27.2100 C.3       3 GLC5        0.0000 
     38 CA         58.0510    0.4210  -27.5900 C.3       9 GLL5        0.0000 
     39 CA         57.4640   -3.4860  -26.8300 C.3       6 GLP5        0.0000 
     40 CA         59.3625    5.3110  -28.6545 C.3       3 GLC5        0.0000 
     41 CA         58.8460    4.9270  -26.4990 C.3       9 GLL5        0.0000 
     42 CA         58.5620    7.9180  -27.4240 C.3       3 GLC5        0.0000 
     43 CA         59.0480    6.4150  -26.1920 C.3       9 GLL5        0.0000 
     44 CA         58.0760    9.4210  -28.6560 C.3       6 GLP5        0.0000 
     45 CA         66.8080   10.2610  -23.0785 C.3       3 GLC5        0.0000 
     46 CA         66.2850    9.1300  -21.7890 C.3       9 GLL5        0.0000 
     47 CA         67.3310   11.3920  -24.3680 C.3       6 GLP5        0.0000 
     48 CA         64.8270   10.3185  -20.8635 C.3       3 GLC5        0.0000 
     49 CA         63.3690   11.5070  -19.9380 C.3       6 GLP5        0.0000 
     50 CA         66.3000    9.0765  -19.7600 C.3       3 GLC5        0.0000 
     51 CA         66.3150    9.0230  -17.7310 C.3       6 GLP5        0.0000 
     52 CA         66.3405   11.1180  -21.5970 C.3       3 GLC5        0.0000 
     53 CA         66.3960   13.1060  -21.4050 C.3       6 GLP5        0.0000 
     54 CA         67.4725    6.8065  -25.4010 C.3       3 GLC5        0.0000 
     55 CA         66.6930    5.9880  -23.5860 C.3       9 GLL5        0.0000 
     56 CA         68.2520    7.6250  -27.2160 C.3       6 GLP5        0.0000 
     57 CA         69.0390    6.3220  -24.6155 C.3       3 GLC5        0.0000 
     58 CA         67.6250    4.9530  -23.7320 C.3       9 GLL5        0.0000 
     59 CA         70.4530    7.6910  -25.4990 C.3       6 GLP5        0.0000 
     60 CA         69.0360    3.3455  -24.1595 C.3       3 GLC5        0.0000 
     61 CA         70.4470    1.7380  -24.5870 C.3       6 GLP5        0.0000 
     62 N          69.3835    3.8995  -23.4780 N.am      2 SEC2        0.0000 
     63 N          68.5670    4.7460  -22.7890 N.am      8 SEL2        0.0000 
     64 N          70.2000    3.0530  -24.1670 N.am      5 SEP2        0.0000 
     65 CA         60.4468   11.3998  -23.5300 C.3       3 GLC5        0.0000 
     66 CA         59.0020    9.8510  -22.8460 C.3       9 GLL5        0.0000 
     67 CA         62.2060   12.4020  -23.9070 C.3       6 GLP5        0.0000 
     68 CA         60.5315   12.3550  -23.1105 C.3       3 GLC5        0.0000 
     69 CA         61.0397   13.2910  -22.6833 C.3       3 GLC5        0.0000 
     70 CA         60.0885   16.4631  -23.1615 C.3       3 GLC5        0.0000 
     71 CA         59.1490   16.9350  -24.8130 C.3       6 GLP5        0.0000 
     72 CA         63.3015   17.1852  -20.2698 C.3       3 GLC5        0.0000 
     73 CA         61.6860   16.6770  -21.4570 C.3       9 GLL5        0.0000 
     74 CA         64.9440   16.9670  -19.2960 C.3       6 GLP5        0.0000 
     75 CA         62.9460   17.5348  -22.8158 C.3       3 GLC5        0.0000 
     76 CA         64.2330   17.6660  -24.3880 C.3       6 GLP5        0.0000 
     77 CA         60.9935   11.5358  -22.6445 C.3       3 GLC5        0.0000 
     78 CA         59.8400   11.3070  -21.1040 C.3       9 GLL5        0.0000 
     79 CA         59.3065    6.0680  -22.6015 C.3       3 GLC5        0.0000 
     80 CA         59.4820    6.5610  -24.7270 C.3       9 GLL5        0.0000 
     81 CA         58.5010    5.9850  -20.5950 C.3       6 GLP5        0.0000 
     82 CA         57.4665    2.1284  -29.0225 C.3       3 GLC5        0.0000 
     83 CA         56.2110    3.1620  -30.2930 C.3       6 GLP5        0.0000 
     84 CA         60.1025   -0.6779  -28.0232 C.3       3 GLC5        0.0000 
     85 CA         61.4510   -2.0270  -27.8280 C.3       6 GLP5        0.0000 
     86 CA         64.9023    9.6662  -25.9610 C.3       3 GLC5        0.0000 
     87 CA         63.3540    8.5180  -24.9960 C.3       9 GLL5        0.0000 
     88 CA         65.8400   10.9080  -27.2490 C.3       6 GLP5        0.0000 
     89 CA         62.2602   10.3634  -23.8826 C.3       3 GLC5        0.0000 
@<TRIPOS>BOND
@<TRIPOS>SUBSTRUCTURE
     1 ALC1       24 GROUP        1 X    ALC  0     ROOT ALC X 1
     2 SEC2       62 GROUP        1 X    SEC  0     **** SEC X 2
     3 GLC5        1 GROUP        1 X    GLC  0     **** GLC X 6
     4 ALP1       26 GROUP        1 Y    ALP  0     ROOT ALP Y 8
     5 SEP2       64 GROUP        1 Y    SEP  0     **** SEP Y 9
     6 GLP5        3 GROUP        1 Y    GLP  0     **** GLP Y 13
     7 ALL1       25 GROUP        1 Z    ALL  0     ROOT ALL Z 15
     8 SEL2       63 GROUP        1 Z    SEL  0     **** SEL Z 16
     9 GLL5        2 GROUP        1 Z    GLL  0     **** GLL Z 20
@<TRIPOS>SET

