#    Name: 2igy_A2T_2_ligand
#    Modification time : Tue Mar 25 18:02:07 2014

@<TRIPOS>MOLECULE
2igy_A2T_2_ligand
   89    92     1     0     0
SMALL
NO_CHARGES


@<TRIPOS>ATOM
      1 O22        57.8490    7.8710  -23.1600 O.2       1 A2T330      0.0000 
      2 C20        58.8520    8.4900  -23.4660 C.2       1 A2T330      0.0000 
      3 C23        59.0020    9.8510  -22.8460 C.ar      1 A2T330      0.0000 
      4 C27        58.3730   10.9440  -23.4600 C.ar      1 A2T330      0.0000 
      5 C31        58.4880   12.2190  -22.9020 C.ar      1 A2T330      0.0000 
      6 C33        59.2260   12.3970  -21.7260 C.ar      1 A2T330      0.0000 
      7 C35        59.3330   13.7730  -21.1160 C.3       1 A2T330      0.0000 
      8 C37        60.4140   14.5870  -21.8030 C.3       1 A2T330      0.0000 
      9 C39        60.3260   16.0240  -21.3230 C.3       1 A2T330      0.0000 
     10 C42        61.6860   16.6770  -21.4570 C.3       1 A2T330      0.0000 
     11 C43        61.6320   18.1300  -21.0300 C.3       1 A2T330      0.0000 
     12 C30        59.8400   11.3070  -21.1040 C.ar      1 A2T330      0.0000 
     13 C26        59.7220   10.0320  -21.6600 C.ar      1 A2T330      0.0000 
     14 N19        59.7200    7.9630  -24.3390 N.am      1 A2T330      0.0000 
     15 C21        59.4820    6.5610  -24.7270 C.3       1 A2T330      0.0000 
     16 C25        60.7420    5.7410  -24.4890 C.3       1 A2T330      0.0000 
     17 C29        60.3620    4.2930  -24.6920 C.3       1 A2T330      0.0000 
     18 N32        60.0470    4.1510  -26.1060 N.4       1 A2T330      0.0000 
     19 C34        59.8460    2.7170  -26.2860 C.3       1 A2T330      0.0000 
     20 C36        59.4260    2.5080  -27.7360 C.3       1 A2T330      0.0000 
     21 C38        59.3600    1.0290  -28.0920 C.3       1 A2T330      0.0000 
     22 C41        59.5540    0.8140  -29.6020 C.3       1 A2T330      0.0000 
     23 C40        58.0510    0.4210  -27.5900 C.3       1 A2T330      0.0000 
     24 C28        58.8460    4.9270  -26.4990 C.3       1 A2T330      0.0000 
     25 C24        59.0480    6.4150  -26.1920 C.3       1 A2T330      0.0000 
     26 C18        60.8470    8.6330  -24.9810 C.3       1 A2T330      0.0000 
     27 C17        62.1640    8.4220  -24.2690 C.ar      1 A2T330      0.0000 
     28 C15        63.3540    8.5180  -24.9960 C.ar      1 A2T330      0.0000 
     29 C13        64.5750    8.3310  -24.3500 C.ar      1 A2T330      0.0000 
     30 C16        62.1990    8.1270  -22.9060 C.ar      1 A2T330      0.0000 
     31 C14        63.4110    7.9300  -22.2560 C.ar      1 A2T330      0.0000 
     32 C12        64.5990    8.0400  -22.9760 C.ar      1 A2T330      0.0000 
     33 N44        65.8130    7.8440  -22.3040 N.pl3     1 A2T330      0.0000 
     34 C45        66.2850    9.1300  -21.7890 C.3       1 A2T330      0.0000 
     35 C4         66.7380    6.8020  -22.4540 C.ar      1 A2T330      0.0000 
     36 C2         67.7230    6.5720  -21.4810 C.ar      1 A2T330      0.0000 
     37 C8         66.6930    5.9880  -23.5860 C.ar      1 A2T330      0.0000 
     38 C9         67.6250    4.9530  -23.7320 C.ar      1 A2T330      0.0000 
     39 N6         68.5670    4.7460  -22.7890 N.ar      1 A2T330      0.0000 
     40 C3         68.6330    5.5250  -21.6790 C.ar      1 A2T330      0.0000 
     41 H          57.8297   10.8042  -24.3180 H         1 A2T330      0.0000 
     42 H          58.0354   13.0204  -23.3497 H         1 A2T330      0.0000 
     43 H          59.5708   13.6843  -20.0537 H         1 A2T330      0.0000 
     44 H          58.3765   14.2913  -21.2135 H         1 A2T330      0.0000 
     45 H          60.2660   14.5537  -22.8751 H         1 A2T330      0.0000 
     46 H          61.3864   14.1810  -21.5538 H         1 A2T330      0.0000 
     47 H          60.0163   16.0395  -20.2840 H         1 A2T330      0.0000 
     48 H          59.6033   16.5626  -21.9258 H         1 A2T330      0.0000 
     49 H          62.0156   16.6175  -22.4962 H         1 A2T330      0.0000 
     50 H          62.4068   16.1436  -20.8342 H         1 A2T330      0.0000 
     51 H          60.3762   11.4438  -20.2407 H         1 A2T330      0.0000 
     52 H          60.1622    9.2276  -21.2006 H         1 A2T330      0.0000 
     53 H          58.6943    6.1347  -24.1029 H         1 A2T330      0.0000 
     54 H          61.0836    5.8927  -23.4819 H         1 A2T330      0.0000 
     55 H          61.4948    6.0257  -25.2004 H         1 A2T330      0.0000 
     56 H          59.5044    4.0659  -24.0762 H         1 A2T330      0.0000 
     57 H          61.1981    3.6687  -24.4136 H         1 A2T330      0.0000 
     58 H          60.9007    4.4599  -26.6918 H         1 A2T330      0.0000 
     59 H          59.0600    2.3477  -25.6425 H         1 A2T330      0.0000 
     60 H          60.7600    2.1679  -26.1090 H         1 A2T330      0.0000 
     61 H          60.1439    3.0051  -28.3933 H         1 A2T330      0.0000 
     62 H          58.4441    2.9609  -27.8945 H         1 A2T330      0.0000 
     63 H          60.1845    0.5242  -27.5740 H         1 A2T330      0.0000 
     64 H          57.9693    4.5769  -25.9512 H         1 A2T330      0.0000 
     65 H          58.6538    4.8175  -27.5678 H         1 A2T330      0.0000 
     66 H          59.8176    6.8130  -26.8344 H         1 A2T330      0.0000 
     67 H          58.1196    6.9424  -26.3442 H         1 A2T330      0.0000 
     68 H          60.6589    9.7254  -25.0464 H         1 A2T330      0.0000 
     69 H          60.9583    8.2810  -26.0282 H         1 A2T330      0.0000 
     70 H          63.3271    8.7249  -25.9989 H         1 A2T330      0.0000 
     71 H          65.4532    8.4044  -24.8705 H         1 A2T330      0.0000 
     72 H          61.3153    8.0550  -22.3779 H         1 A2T330      0.0000 
     73 H          63.4331    7.7060  -21.2573 H         1 A2T330      0.0000 
     74 H          67.7743    7.1534  -20.6503 H         1 A2T330      0.0000 
     75 H          65.9839    6.1443  -24.3070 H         1 A2T330      0.0000 
     76 H          67.5716    4.3557  -24.5771 H         1 A2T330      0.0000 
     77 H          69.3597    5.3583  -20.9567 H         1 A2T330      0.0000 
     78 H          62.5244   18.5740  -21.1100 H         1 A2T330      0.0000 
     79 H          60.9912   18.6575  -21.5878 H         1 A2T330      0.0000 
     80 H          61.3407   18.2268  -20.0783 H         1 A2T330      0.0000 
     81 H          60.4378    1.1609  -29.9160 H         1 A2T330      0.0000 
     82 H          59.5155   -0.1547  -29.8472 H         1 A2T330      0.0000 
     83 H          58.8493    1.2800  -30.1370 H         1 A2T330      0.0000 
     84 H          57.9833   -0.5513  -27.8137 H         1 A2T330      0.0000 
     85 H          57.9614    0.5003  -26.5972 H         1 A2T330      0.0000 
     86 H          57.2540    0.8707  -27.9931 H         1 A2T330      0.0000 
     87 H          67.1537    9.0388  -21.3021 H         1 A2T330      0.0000 
     88 H          66.4287    9.7938  -22.5229 H         1 A2T330      0.0000 
     89 H          65.6320    9.5364  -21.1499 H         1 A2T330      0.0000 
@<TRIPOS>BOND
     1    2    1 2    
     2    3    2 1    
     3   14    2 am   
     4    4    3 ar   
     5   13    3 ar   
     6    5    4 ar   
     7   41    4 1    
     8    6    5 ar   
     9   42    5 1    
    10    7    6 1    
    11   12    6 ar   
    12    8    7 1    
    13   43    7 1    
    14   44    7 1    
    15    9    8 1    
    16   45    8 1    
    17   46    8 1    
    18   10    9 1    
    19   47    9 1    
    20   48    9 1    
    21   11   10 1    
    22   49   10 1    
    23   50   10 1    
    24   78   11 1    
    25   79   11 1    
    26   80   11 1    
    27   13   12 ar   
    28   51   12 1    
    29   52   13 1    
    30   15   14 1    
    31   26   14 1    
    32   16   15 1    
    33   25   15 1    
    34   53   15 1    
    35   17   16 1    
    36   54   16 1    
    37   55   16 1    
    38   18   17 1    
    39   56   17 1    
    40   57   17 1    
    41   19   18 1    
    42   24   18 1    
    43   58   18 1    
    44   20   19 1    
    45   59   19 1    
    46   60   19 1    
    47   21   20 1    
    48   61   20 1    
    49   62   20 1    
    50   22   21 1    
    51   23   21 1    
    52   63   21 1    
    53   81   22 1    
    54   82   22 1    
    55   83   22 1    
    56   84   23 1    
    57   85   23 1    
    58   86   23 1    
    59   25   24 1    
    60   64   24 1    
    61   65   24 1    
    62   66   25 1    
    63   67   25 1    
    64   27   26 1    
    65   68   26 1    
    66   69   26 1    
    67   28   27 ar   
    68   30   27 ar   
    69   29   28 ar   
    70   70   28 1    
    71   32   29 ar   
    72   71   29 1    
    73   31   30 ar   
    74   72   30 1    
    75   32   31 ar   
    76   73   31 1    
    77   33   32 1    
    78   34   33 1    
    79   35   33 1    
    80   87   34 1    
    81   88   34 1    
    82   89   34 1    
    83   36   35 ar   
    84   37   35 ar   
    85   40   36 ar   
    86   74   36 1    
    87   38   37 ar   
    88   75   37 1    
    89   39   38 ar   
    90   76   38 1    
    91   40   39 ar   
    92   77   40 1    
@<TRIPOS>SUBSTRUCTURE
     1 A2T330      1 GROUP   
@<TRIPOS>SET

