#    Name: 1g4a_DAT_1_INTS_M
#    Modification time : Tue Mar 25 02:32:37 2014

@<TRIPOS>MOLECULE
1g4a_DAT_1_INTS_M
   46     0    12     0     0
SMALL
NO_CHARGES


@<TRIPOS>ATOM
      1 N          15.8935   68.8365   35.6605 N.am      2 SEC2        0.0000 
      2 N          16.6460   69.4180   36.6350 N.am     10 SEL2        0.0000 
      3 N          15.1410   68.2550   34.6860 N.am      6 SEP2        0.0000 
      4 N          15.8310   70.1355   35.8710 N.am      2 SEC2        0.0000 
      5 N          15.0160   70.8530   35.1070 N.am      6 SEP2        0.0000 
      6 NZ         16.4845   68.6335   39.7925 N.4       3 LYC4        0.0000 
      7 NZ         17.6920   69.1520   38.9620 N.4      11 LYL4        0.0000 
      8 NZ         15.2770   68.1150   40.6230 N.4       7 LYP4        0.0000 
      9 N          18.5565   69.4450   40.0710 N.am      2 SEC2        0.0000 
     10 N          17.6920   69.1520   38.9620 N.am     10 SEL2        0.0000 
     11 N          19.4210   69.7380   41.1800 N.am      6 SEP2        0.0000 
     12 N          17.9435   68.4030   33.8960 N.am      2 SEC2        0.0000 
     13 N          18.6740   68.9000   34.9720 N.am     10 SEL2        0.0000 
     14 N          17.2130   67.9060   32.8200 N.am      6 SEP2        0.0000 
     15 N          19.6030   71.5820   37.4955 N.am      2 SEC2        0.0000 
     16 N          18.8900   70.2690   37.0450 N.am     10 SEL2        0.0000 
     17 N          20.3160   72.8950   37.9460 N.am      6 SEP2        0.0000 
     18 CA         23.9475   65.9530   37.5965 C.3       4 GLC5        0.0000 
     19 CA         22.8210   64.8710   36.0340 C.3      12 GLL5        0.0000 
     20 CA         25.0740   67.0350   39.1590 C.3       8 GLP5        0.0000 
     21 CA         21.6185   62.4795   35.0270 C.3       4 GLC5        0.0000 
     22 CA         22.8360   63.4350   35.9130 C.3      12 GLL5        0.0000 
     23 CA         20.4010   61.5240   34.1410 C.3       8 GLP5        0.0000 
     24 O          22.0160   61.0745   36.5370 O.2       1 ALC1        0.0000 
     25 O          22.2130   62.6230   36.7610 O.2       9 ALL1        0.0000 
     26 O          21.8190   59.5260   36.3130 O.2       5 ALP1        0.0000 
     27 O          21.3120   63.7735   37.4180 O.2       1 ALC1        0.0000 
     28 O          20.4110   64.9240   38.0750 O.2       5 ALP1        0.0000 
     29 N          23.3480   61.4100   34.5010 N.am      2 SEC2        0.0000 
     30 N          23.5400   62.8650   34.8540 N.am     10 SEL2        0.0000 
     31 N          23.1560   59.9550   34.1480 N.am      6 SEP2        0.0000 
     32 CA         23.1245   62.4170   33.1300 C.3       4 GLC5        0.0000 
     33 CA         24.1890   63.6990   33.9660 C.3      12 GLL5        0.0000 
     34 CA         22.0600   61.1350   32.2940 C.3       8 GLP5        0.0000 
     35 CA         25.3850   63.1960   35.4570 C.3       4 GLC5        0.0000 
     36 CA         26.5810   62.6930   36.9480 C.3       8 GLP5        0.0000 
     37 CA         23.1862   71.6637   36.7228 C.3       4 GLC5        0.0000 
     38 CA         23.1150   70.3240   34.8870 C.3      12 GLL5        0.0000 
     39 CA         23.8360   72.7940   38.1090 C.3       8 GLP5        0.0000 
     40 CA         21.7703   67.8815   32.5243 C.3       4 GLC5        0.0000 
     41 CA         22.6990   69.8310   33.4830 C.3      12 GLL5        0.0000 
     42 CA         20.5810   66.6410   31.6430 C.3       8 GLP5        0.0000 
     43 CA         23.2587   64.1920   38.0823 C.3       4 GLC5        0.0000 
     44 CA         23.6890   64.2310   40.1910 C.3       8 GLP5        0.0000 
     45 CA         24.4556   64.1977   36.6769 C.3       4 GLC5        0.0000 
     46 CA         25.7300   63.5280   37.8460 C.3       8 GLP5        0.0000 
@<TRIPOS>BOND
@<TRIPOS>SUBSTRUCTURE
     1 ALC1       24 GROUP        1 X    ALC  0     ROOT ALC X 1
     2 SEC2        1 GROUP        1 X    SEC  0     **** SEC X 2
     3 LYC4        6 GROUP        1 X    LYC  0     **** LYC X 4
     4 GLC5       18 GROUP        1 X    GLC  0     **** GLC X 6
     5 ALP1       26 GROUP        1 Y    ALP  0     ROOT ALP Y 8
     6 SEP2        3 GROUP        1 Y    SEP  0     **** SEP Y 9
     7 LYP4        8 GROUP        1 Y    LYP  0     **** LYP Y 11
     8 GLP5       20 GROUP        1 Y    GLP  0     **** GLP Y 13
     9 ALL1       25 GROUP        1 Z    ALL  0     ROOT ALL Z 15
    10 SEL2        2 GROUP        1 Z    SEL  0     **** SEL Z 16
    11 LYL4        7 GROUP        1 Z    LYL  0     **** LYL Z 18
    12 GLL5       19 GROUP        1 Z    GLL  0     **** GLL Z 20
@<TRIPOS>SET

