#    Name: 1g4a_DAT_1_ligand
#    Modification time : Tue Mar 25 02:32:37 2014

@<TRIPOS>MOLECULE
1g4a_DAT_1_ligand
   38    40     1     0     0
SMALL
NO_CHARGES


@<TRIPOS>ATOM
      1 PB         17.5000   69.9570   37.7100 P.3       1 DAT905      0.0000 
      2 O1B        16.6460   69.4180   36.6350 O.co2     1 DAT905      0.0000 
      3 O2B        17.6920   69.1520   38.9620 O.co2     1 DAT905      0.0000 
      4 O3B        16.9660   71.4050   38.0780 O.co2     1 DAT905      0.0000 
      5 PA         19.3790   70.0860   35.5600 P.3       1 DAT905      0.0000 
      6 O1A        18.6740   68.9000   34.9720 O.co2     1 DAT905      0.0000 
      7 O2A        19.2780   71.4290   34.8600 O.co2     1 DAT905      0.0000 
      8 O3A        18.8900   70.2690   37.0450 O.3       1 DAT905      0.0000 
      9 O5'        20.9320   69.7520   35.7950 O.3       1 DAT905      0.0000 
     10 C5'        21.9580   70.7430   35.7860 C.3       1 DAT905      0.0000 
     11 C4'        23.1150   70.3240   34.8870 C.3       1 DAT905      0.0000 
     12 O4'        23.8410   69.2430   35.5020 O.3       1 DAT905      0.0000 
     13 C3'        22.6990   69.8310   33.4830 C.3       1 DAT905      0.0000 
     14 O3'        23.2360   70.6990   32.4950 O.3       1 DAT905      0.0000 
     15 C2'        23.2200   68.4130   33.3280 C.3       1 DAT905      0.0000 
     16 C1'        23.9330   68.1050   34.6350 C.3       1 DAT905      0.0000 
     17 N9         23.3770   66.9160   35.3600 N.pl3     1 DAT905      0.0000 
     18 C8         22.5940   66.9230   36.5000 C.2       1 DAT905      0.0000 
     19 N7         22.2430   65.7340   36.9330 N.2       1 DAT905      0.0000 
     20 C5         22.8210   64.8710   36.0340 C.ar      1 DAT905      0.0000 
     21 C6         22.8360   63.4350   35.9130 C.ar      1 DAT905      0.0000 
     22 N6         22.2130   62.6230   36.7610 N.pl3     1 DAT905      0.0000 
     23 N1         23.5400   62.8650   34.8540 N.ar      1 DAT905      0.0000 
     24 C2         24.1890   63.6990   33.9660 C.ar      1 DAT905      0.0000 
     25 N3         24.2400   65.0530   33.9820 N.ar      1 DAT905      0.0000 
     26 C4         23.5340   65.5820   35.0420 C.ar      1 DAT905      0.0000 
     27 H          22.3641   70.9157   36.7958 H         1 DAT905      0.0000 
     28 H          21.5828   71.7121   35.4191 H         1 DAT905      0.0000 
     29 H          23.7817   71.1726   34.7504 H         1 DAT905      0.0000 
     30 H          21.6237   69.8032   33.4630 H         1 DAT905      0.0000 
     31 H          23.9147   68.3686   32.5185 H         1 DAT905      0.0000 
     32 H          22.4027   67.7391   33.1950 H         1 DAT905      0.0000 
     33 H          24.9841   67.9099   34.4081 H         1 DAT905      0.0000 
     34 H          22.3322   67.7921   36.9379 H         1 DAT905      0.0000 
     35 H          22.2850   61.6447   36.5668 H         1 DAT905      0.0000 
     36 H          21.7285   63.0637   37.5167 H         1 DAT905      0.0000 
     37 H          24.7229   63.1985   33.1566 H         1 DAT905      0.0000 
     38 H          24.1955   70.8190   32.7500 H         1 DAT905      0.0000 
@<TRIPOS>BOND
     1    2    1 ar   
     2    3    1 ar   
     3    4    1 ar   
     4    8    1 1    
     5    6    5 ar   
     6    7    5 ar   
     7    8    5 1    
     8    9    5 1    
     9   10    9 1    
    10   11   10 1    
    11   27   10 1    
    12   28   10 1    
    13   12   11 1    
    14   13   11 1    
    15   29   11 1    
    16   16   12 1    
    17   14   13 1    
    18   15   13 1    
    19   30   13 1    
    20   38   14 1    
    21   16   15 1    
    22   31   15 1    
    23   32   15 1    
    24   17   16 1    
    25   33   16 1    
    26   18   17 1    
    27   26   17 1    
    28   19   18 2    
    29   34   18 1    
    30   20   19 1    
    31   21   20 ar   
    32   26   20 ar   
    33   22   21 1    
    34   23   21 ar   
    35   35   22 1    
    36   36   22 1    
    37   24   23 ar   
    38   25   24 ar   
    39   37   24 1    
    40   26   25 ar   
@<TRIPOS>SUBSTRUCTURE
     1 DAT905      1 GROUP   
@<TRIPOS>SET

