#    Name: 4IJN_1_CAVITY_N1_6.mol2
#    Modification time : Tue Mar 11 05:35:34 2014

@<TRIPOS>MOLECULE
4IJN_1_CAVITY_N1_6.mol2
   83     0     5     0     0
SMALL
NO_CHARGES


@<TRIPOS>ATOM
      1 CA         63.8066    4.1164    6.9316 C.3       4 GLY6        0.0000 
      2 CA         62.8789    3.1320    6.2833 C.3       4 GLY6        0.0000 
      3 CA         63.5504    4.2724    3.5910 C.3       4 GLY6        0.0000 
      4 OD1        61.9512    2.1476    5.6350 O.3       2 ASP3        0.0000 
      5 CA         62.2869    2.7178    4.2888 C.3       4 GLY6        0.0000 
      6 CA         62.6227    3.2880    2.9426 C.3       4 GLY6        0.0000 
      7 OD1        61.3592    1.7334    3.6405 O.3       2 ASP3        0.0000 
      8 N          61.6950    2.3036    2.2943 N.2       1 ALA2        0.0000 
      9 OD1        60.0958    0.1788    4.3383 O.3       2 ASP3        0.0000 
     10 DU         60.4315    0.7490    2.9921 H         5 CUB7        0.0000 
     11 N          60.7673    1.3192    1.6460 N.2       1 ALA2        0.0000 
     12 CA         61.1031    1.8893    0.2998 C.3       4 GLY6        0.0000 
     13 OD1        58.4966   -1.9459    6.3823 O.3       2 ASP3        0.0000 
     14 OD1        58.8323   -1.3757    5.0362 O.3       2 ASP3        0.0000 
     15 O          59.1681   -0.8056    3.6900 O.2       1 ALA2        0.0000 
     16 CA         59.5038   -0.2354    2.3438 C.3       4 GLY6        0.0000 
     17 O          59.8396    0.3348    0.9976 O.2       1 ALA2        0.0000 
     18 O          57.9046   -2.3601    4.3878 O.2       1 ALA2        0.0000 
     19 CA         58.2404   -1.7900    3.0417 C.3       4 GLY6        0.0000 
     20 O          56.9769   -3.3445    3.7395 O.2       1 ALA2        0.0000 
     21 CA         57.3127   -2.7744    2.3933 C.3       4 GLY6        0.0000 
     22 CA         56.7207   -3.1886    0.3988 C.3       4 GLY6        0.0000 
     23 CA         60.8213    3.1253    5.7673 C.3       4 GLY6        0.0000 
     24 CA         61.1571    3.6955    4.4211 C.3       4 GLY6        0.0000 
     25 NZ         61.4928    4.2656    3.0749 N.2       3 LYS4        0.0000 
     26 OD1        59.5578    1.5707    6.4651 O.3       2 ASP3        0.0000 
     27 OD1        59.8936    2.1409    5.1189 O.3       2 ASP3        0.0000 
     28 CA         60.2294    2.7111    3.7728 C.3       4 GLY6        0.0000 
     29 N          60.5651    3.2812    2.4266 N.2       1 ALA2        0.0000 
     30 OD1        58.6301    0.5863    5.8168 O.3       2 ASP3        0.0000 
     31 OD1        58.9659    1.1565    4.4706 O.3       2 ASP3        0.0000 
     32 DU         59.3017    1.7267    3.1244 H         5 CUB7        0.0000 
     33 N          59.6374    2.2968    1.7783 N.2       1 ALA2        0.0000 
     34 O          57.7024   -0.3981    5.1684 O.2       1 ALA2        0.0000 
     35 O          58.0382    0.1721    3.8223 O.2       1 ALA2        0.0000 
     36 O          58.3740    0.7423    2.4761 O.2       1 ALA2        0.0000 
     37 O          58.7097    1.3124    1.1299 O.2       1 ALA2        0.0000 
     38 N          56.7747   -1.3825    4.5201 N.2       1 ALA2        0.0000 
     39 N          57.1105   -0.8123    3.1739 N.2       1 ALA2        0.0000 
     40 O          57.4463   -0.2421    1.8278 O.2       1 ALA2        0.0000 
     41 N          56.1828   -1.7967    2.5256 N.2       1 ALA2        0.0000 
     42 O          56.5186   -1.2265    1.1794 O.2       1 ALA2        0.0000 
     43 O          58.7637    3.1186    5.2512 O.2       1 ALA2        0.0000 
     44 O          59.0995    3.6888    3.9050 O.2       1 ALA2        0.0000 
     45 N          59.4352    4.2589    2.5589 N.2       1 ALA2        0.0000 
     46 O          58.1718    2.7044    3.2567 O.2       1 ALA2        0.0000 
     47 N          58.5075    3.2745    1.9105 N.2       1 ALA2        0.0000 
     48 O          57.2441    1.7200    2.6084 O.2       1 ALA2        0.0000 
     49 N          56.3164    0.7356    1.9601 N.2       1 ALA2        0.0000 
     50 DU         67.5320    1.7535    5.1886 H         5 CUB7        0.0000 
     51 NZ         67.8678    2.3237    3.8424 N.2       3 LYS4        0.0000 
     52 N          67.6656    4.2858    4.6231 N.2       1 ALA2        0.0000 
     53 DU         66.0663    2.1610    6.6671 H         5 CUB7        0.0000 
     54 DU         66.4021    2.7312    5.3209 H         5 CUB7        0.0000 
     55 N          66.7379    3.3014    3.9747 N.2       1 ALA2        0.0000 
     56 DU         65.1386    1.1766    6.0187 H         5 CUB7        0.0000 
     57 DU         65.4744    1.7468    4.6726 H         5 CUB7        0.0000 
     58 O          65.8102    2.3170    3.3264 O.2       1 ALA2        0.0000 
     59 DU         64.5467    0.7624    4.0242 H         5 CUB7        0.0000 
     60 O          64.8825    1.3326    2.6781 O.2       1 ALA2        0.0000 
     61 DU         63.6190   -0.2220    3.3759 H         5 CUB7        0.0000 
     62 O          63.9548    0.3482    2.0297 O.2       1 ALA2        0.0000 
     63 O          63.0271   -0.6362    1.3814 O.2       1 ALA2        0.0000 
     64 NZ         64.9365    3.1387    6.7993 N.2       3 LYS4        0.0000 
     65 N          65.2722    3.7089    5.4532 N.2       1 ALA2        0.0000 
     66 N          65.6080    4.2791    4.1070 N.2       1 ALA2        0.0000 
     67 OD1        63.6730    1.5842    7.4972 O.3       2 ASP3        0.0000 
     68 OD1        64.0088    2.1543    6.1510 O.3       2 ASP3        0.0000 
     69 CA         64.3445    2.7245    4.8048 C.3       4 GLY6        0.0000 
     70 CA         64.6803    3.2947    3.4587 C.3       4 GLY6        0.0000 
     71 OD1        63.0811    1.1699    5.5027 O.3       2 ASP3        0.0000 
     72 OD1        63.4168    1.7401    4.1565 O.3       2 ASP3        0.0000 
     73 O          63.7526    2.3103    2.8104 O.2       1 ALA2        0.0000 
     74 OD1        62.4891    0.7557    3.5082 O.3       2 ASP3        0.0000 
     75 O          62.8249    1.3259    2.1620 O.2       1 ALA2        0.0000 
     76 CA         63.1606    1.8960    0.8159 C.3       4 GLY6        0.0000 
     77 OD1        61.2257   -0.7989    4.2060 O.3       2 ASP3        0.0000 
     78 O          61.5614   -0.2287    2.8599 O.2       1 ALA2        0.0000 
     79 O          61.8972    0.3415    1.5137 O.2       1 ALA2        0.0000 
     80 OD1        59.6264   -2.9236    6.2500 O.3       2 ASP3        0.0000 
     81 O          59.9622   -2.3534    4.9039 O.2       1 ALA2        0.0000 
     82 O          59.0345   -3.3378    4.2555 O.2       1 ALA2        0.0000 
     83 O          58.1068   -4.3222    3.6072 O.2       1 ALA2        0.0000 
@<TRIPOS>BOND
@<TRIPOS>SUBSTRUCTURE
     1 ALA2        8 GROUP   
     2 ASP3        4 GROUP   
     3 LYS4       25 GROUP   
     4 GLY6        1 GROUP   
     5 CUB7       10 GROUP   
@<TRIPOS>SET

