#    Name: 4ijn_AMP_1_INTS_M
#    Modification time : Tue Mar 25 04:07:09 2014

@<TRIPOS>MOLECULE
4ijn_AMP_1_INTS_M
   39     0     6     0     0
SMALL
NO_CHARGES


@<TRIPOS>ATOM
      1 N          61.1770   -0.8090    0.4750 N.am      1 SEC2        0.0000 
      2 N          61.7060   -0.3880    1.7670 N.am      5 SEL2        0.0000 
      3 N          60.6480   -1.2300   -0.8170 N.am      3 SEP2        0.0000 
      4 N          64.6165    1.5775    0.7775 N.am      1 SEC2        0.0000 
      5 N          63.5380    1.3300    1.6650 N.am      5 SEL2        0.0000 
      6 N          65.6950    1.8250   -0.1100 N.am      3 SEP2        0.0000 
      7 CA         61.6480   -2.3015   -0.1280 C.3       2 GLC5        0.0000 
      8 CA         63.6640   -2.3130    0.6270 C.3       6 GLL5        0.0000 
      9 CA         59.6320   -2.2900   -0.8830 C.3       4 GLP5        0.0000 
     10 CA         64.7565   -2.3415   -2.4320 C.3       2 GLC5        0.0000 
     11 CA         64.2290   -2.9270   -0.6440 C.3       6 GLL5        0.0000 
     12 CA         65.2840   -1.7560   -4.2200 C.3       4 GLP5        0.0000 
     13 N          64.3645   -6.1900   -2.7180 N.am      1 SEC2        0.0000 
     14 N          63.9760   -5.0930   -1.7840 N.am      5 SEL2        0.0000 
     15 N          64.7530   -7.2870   -3.6520 N.am      3 SEP2        0.0000 
     16 CA         66.0535   -4.4630   -2.9950 C.3       2 GLC5        0.0000 
     17 CA         66.4000   -3.5590   -1.1450 C.3       6 GLL5        0.0000 
     18 CA         65.7070   -5.3670   -4.8450 C.3       4 GLP5        0.0000 
     19 CA         66.5035   -1.4335   -0.6370 C.3       2 GLC5        0.0000 
     20 CA         66.6070    0.6920   -0.1290 C.3       4 GLP5        0.0000 
     21 CA         65.8420   -2.6575   -2.6825 C.3       2 GLC5        0.0000 
     22 CA         70.3830   -6.1880   -2.3985 C.3       2 GLC5        0.0000 
     23 CA         70.2340   -4.7030   -3.1000 C.3       6 GLL5        0.0000 
     24 CA         70.5320   -7.6730   -1.6970 C.3       4 GLP5        0.0000 
     25 CA         70.1100   -3.4945   -4.2105 C.3       2 GLC5        0.0000 
     26 CA         69.9860   -2.2860   -5.3210 C.3       4 GLP5        0.0000 
     27 CA         69.4110   -3.0290   -3.3915 C.3       2 GLC5        0.0000 
     28 CA         68.8360   -3.7720   -1.4620 C.3       6 GLL5        0.0000 
     29 CA         62.9733   -1.0330   -0.8622 C.3       2 GLC5        0.0000 
     30 CA         62.0000    0.5540   -1.7160 C.3       4 GLP5        0.0000 
     31 CA         65.2768   -0.9640   -0.0688 C.3       2 GLC5        0.0000 
     32 CA         64.4942   -6.5663   -0.7585 C.3       2 GLC5        0.0000 
     33 CA         64.3590   -4.4590   -0.5560 C.3       6 GLL5        0.0000 
     34 CA         63.8910   -8.5450   -1.0730 C.3       4 GLP5        0.0000 
     35 CA         71.1762   -1.9163   -1.2985 C.3       2 GLC5        0.0000 
     36 CA         71.3360   -3.7170   -1.2490 C.3       6 GLL5        0.0000 
     37 CA         71.6790   -0.2860   -1.6290 C.3       4 GLP5        0.0000 
     38 CA         70.1434   -5.6661   -1.4560 C.3       2 GLC5        0.0000 
     39 CA         70.0110   -3.3760   -0.6870 C.3       6 GLL5        0.0000 
@<TRIPOS>BOND
@<TRIPOS>SUBSTRUCTURE
     1 SEC2        1 GROUP        1 X    SEC  0     ROOT SEC X 2
     2 GLC5        7 GROUP        1 X    GLC  0     **** GLC X 6
     3 SEP2        3 GROUP        1 Y    SEP  0     ROOT SEP Y 9
     4 GLP5        9 GROUP        1 Y    GLP  0     **** GLP Y 13
     5 SEL2        2 GROUP        1 Z    SEL  0     ROOT SEL Z 16
     6 GLL5        8 GROUP        1 Z    GLL  0     **** GLL Z 20
@<TRIPOS>SET

