#    Name: 4ijn_AMP_1_ligand
#    Modification time : Tue Mar 25 04:07:09 2014

@<TRIPOS>MOLECULE
4ijn_AMP_1_ligand
   35    37     1     0     0
SMALL
NO_CHARGES


@<TRIPOS>ATOM
      1 P          63.1900   -0.1040    1.9000 P.3       1 AMP402      0.0000 
      2 O1P        61.7060   -0.3880    1.7670 O.co2     1 AMP402      0.0000 
      3 O2P        63.7860   -0.7430    3.1410 O.co2     1 AMP402      0.0000 
      4 O3P        63.5380    1.3300    1.6650 O.co2     1 AMP402      0.0000 
      5 O5'        63.9290   -0.9140    0.7310 O.3       1 AMP402      0.0000 
      6 C5'        63.6640   -2.3130    0.6270 C.3       1 AMP402      0.0000 
      7 C4'        64.2290   -2.9270   -0.6440 C.3       1 AMP402      0.0000 
      8 O4'        65.5620   -2.4330   -0.8480 O.3       1 AMP402      0.0000 
      9 C3'        64.3590   -4.4590   -0.5560 C.3       1 AMP402      0.0000 
     10 O3'        63.9760   -5.0930   -1.7840 O.3       1 AMP402      0.0000 
     11 C2'        65.8360   -4.7160   -0.3320 C.3       1 AMP402      0.0000 
     12 O2'        66.3080   -6.0240   -0.7470 O.3       1 AMP402      0.0000 
     13 C1'        66.4000   -3.5590   -1.1450 C.3       1 AMP402      0.0000 
     14 N9         67.7980   -3.3490   -0.7570 N.pl3     1 AMP402      0.0000 
     15 C8         68.2120   -2.7620    0.3860 C.2       1 AMP402      0.0000 
     16 N7         69.5620   -2.7710    0.4300 N.2       1 AMP402      0.0000 
     17 C5         70.0110   -3.3760   -0.6870 C.ar      1 AMP402      0.0000 
     18 C6         71.3360   -3.7170   -1.2490 C.ar      1 AMP402      0.0000 
     19 N6         72.4740   -3.3900   -0.5830 N.pl3     1 AMP402      0.0000 
     20 N1         71.3660   -4.3720   -2.4330 N.ar      1 AMP402      0.0000 
     21 C2         70.2340   -4.7030   -3.1000 C.ar      1 AMP402      0.0000 
     22 N3         68.9950   -4.4240   -2.6370 N.ar      1 AMP402      0.0000 
     23 C4         68.8360   -3.7720   -1.4620 C.ar      1 AMP402      0.0000 
     24 H          62.5736   -2.5187    0.6428 H         1 AMP402      0.0000 
     25 H          64.0917   -2.8690    1.4869 H         1 AMP402      0.0000 
     26 H          63.6046   -2.6873   -1.4741 H         1 AMP402      0.0000 
     27 H          63.8222   -4.8017    0.2819 H         1 AMP402      0.0000 
     28 H          66.0404   -4.4915    0.7028 H         1 AMP402      0.0000 
     29 H          66.3264   -3.8330   -2.1795 H         1 AMP402      0.0000 
     30 H          67.6306   -2.3912    1.0699 H         1 AMP402      0.0000 
     31 H          73.3318   -3.6718   -1.0128 H         1 AMP402      0.0000 
     32 H          72.3534   -2.8964    0.2783 H         1 AMP402      0.0000 
     33 H          70.3259   -5.2058   -4.0312 H         1 AMP402      0.0000 
     34 H          63.0099   -5.3229   -1.6661 H         1 AMP402      0.0000 
     35 H          65.5426   -6.4283   -1.2478 H         1 AMP402      0.0000 
@<TRIPOS>BOND
     1    2    1 ar   
     2    3    1 ar   
     3    4    1 ar   
     4    5    1 1    
     5    6    5 1    
     6    7    6 1    
     7   24    6 1    
     8   25    6 1    
     9    8    7 1    
    10    9    7 1    
    11   26    7 1    
    12   13    8 1    
    13   10    9 1    
    14   11    9 1    
    15   27    9 1    
    16   34   10 1    
    17   12   11 1    
    18   13   11 1    
    19   28   11 1    
    20   35   12 1    
    21   14   13 1    
    22   29   13 1    
    23   15   14 1    
    24   23   14 1    
    25   16   15 2    
    26   30   15 1    
    27   17   16 1    
    28   18   17 ar   
    29   23   17 ar   
    30   19   18 1    
    31   20   18 ar   
    32   31   19 1    
    33   32   19 1    
    34   21   20 ar   
    35   22   21 ar   
    36   33   21 1    
    37   23   22 ar   
@<TRIPOS>SUBSTRUCTURE
     1 AMP402      1 GROUP   
@<TRIPOS>SET

