#    Name: 3e7c_866_2_INTS_M
#    Modification time : Tue Mar 25 01:02:13 2014

@<TRIPOS>MOLECULE
3e7c_866_2_INTS_M
   86     0     6     0     0
SMALL
NO_CHARGES


@<TRIPOS>ATOM
      1 CA        100.5605    5.0875  -27.0040 C.3       2 GLC5        0.0000 
      2 CA         99.6100    5.7260  -25.3630 C.3       6 GLL5        0.0000 
      3 CA        101.5110    4.4490  -28.6450 C.3       4 GLP5        0.0000 
      4 CA         99.5690    3.6425  -25.6280 C.3       2 GLC5        0.0000 
      5 CA         99.5280    1.5590  -25.8930 C.3       4 GLP5        0.0000 
      6 CA         96.2510    4.5425  -24.8450 C.3       2 GLC5        0.0000 
      7 CA         97.2650    5.6550  -23.4890 C.3       6 GLL5        0.0000 
      8 CA         95.2370    3.4300  -26.2010 C.3       4 GLP5        0.0000 
      9 N          98.8715    4.5525  -21.7990 N.am      1 SEC2        0.0000 
     10 N          98.1540    5.4060  -21.3060 N.am      5 SEL2        0.0000 
     11 N          99.5890    3.6990  -22.2920 N.am      3 SEP2        0.0000 
     12 CA         98.1825    7.2780  -20.3705 C.3       2 GLC5        0.0000 
     13 CA         96.3590    6.9100  -21.5280 C.3       6 GLL5        0.0000 
     14 CA        100.0060    7.6460  -19.2130 C.3       4 GLP5        0.0000 
     15 N          94.8520    7.1900  -14.3880 N.am      1 SEC2        0.0000 
     16 N          95.2470    7.4040  -16.0370 N.am      5 SEL2        0.0000 
     17 N          94.4570    6.9760  -12.7390 N.am      3 SEP2        0.0000 
     18 CA         97.7830    3.6925  -20.0505 C.3       2 GLC5        0.0000 
     19 CA         95.6700    4.3530  -20.4440 C.3       6 GLL5        0.0000 
     20 CA         99.8960    3.0320  -19.6570 C.3       4 GLP5        0.0000 
     21 CA         95.8085    3.8480  -18.5940 C.3       2 GLC5        0.0000 
     22 CA         95.9470    3.3430  -16.7440 C.3       4 GLP5        0.0000 
     23 CA         93.4735    5.3165  -23.0390 C.3       2 GLC5        0.0000 
     24 CA         94.8820    4.5630  -22.4500 C.3       6 GLL5        0.0000 
     25 CA         92.0650    6.0700  -23.6280 C.3       4 GLP5        0.0000 
     26 CA         95.0595    3.9965  -24.3255 C.3       2 GLC5        0.0000 
     27 CA         98.2450    3.1705  -20.8810 C.3       2 GLC5        0.0000 
     28 CA         96.5940    3.3090  -22.1050 C.3       6 GLL5        0.0000 
     29 CA         95.9155    3.3695  -24.1530 C.3       2 GLC5        0.0000 
     30 CA         97.6475    2.3725  -23.4475 C.3       2 GLC5        0.0000 
     31 CA         98.7010    1.4360  -24.7900 C.3       4 GLP5        0.0000 
     32 CA         95.8750    1.3795  -21.3120 C.3       2 GLC5        0.0000 
     33 CA         95.1560   -0.5500  -20.5190 C.3       4 GLP5        0.0000 
     34 N          95.3925    8.4910  -25.7005 N.am      1 SEC2        0.0000 
     35 N          96.1780    7.7930  -24.8720 N.am      5 SEL2        0.0000 
     36 N          94.6070    9.1890  -26.5290 N.am      3 SEP2        0.0000 
     37 CA         99.2085    9.9820  -21.4205 C.3       2 GLC5        0.0000 
     38 CA         98.6470    9.8350  -23.0690 C.3       6 GLL5        0.0000 
     39 CA         99.7700   10.1290  -19.7720 C.3       4 GLP5        0.0000 
     40 CA        101.3745    9.5005  -25.1170 C.3       2 GLC5        0.0000 
     41 CA         99.5900   10.6000  -25.4140 C.3       6 GLL5        0.0000 
     42 CA        103.1590    8.4010  -24.8200 C.3       4 GLP5        0.0000 
     43 CA        101.5345    9.2205  -26.6610 C.3       2 GLC5        0.0000 
     44 CA         99.7540   10.5070  -26.7700 C.3       6 GLL5        0.0000 
     45 CA        103.3150    7.9340  -26.5520 C.3       4 GLP5        0.0000 
     46 CA         97.3850    8.5900  -29.1140 C.3       2 GLC5        0.0000 
     47 CA         97.6610    7.3450  -27.7880 C.3       6 GLL5        0.0000 
     48 CA         97.1090    9.8350  -30.4400 C.3       4 GLP5        0.0000 
     49 CA         96.7675    6.1875  -28.0965 C.3       2 GLC5        0.0000 
     50 CA         95.8740    5.0300  -28.4050 C.3       4 GLP5        0.0000 
     51 CA         98.9590    5.9895  -28.6275 C.3       2 GLC5        0.0000 
     52 CA        100.2570    4.6340  -29.4670 C.3       4 GLP5        0.0000 
     53 CA        101.4625    6.6788  -24.3325 C.3       2 GLC5        0.0000 
     54 CA        103.4090    7.2110  -23.9190 C.3       4 GLP5        0.0000 
     55 CA         93.0530    6.3605  -17.6313 C.3       2 GLC5        0.0000 
     56 CA         94.8920    7.6480  -18.2690 C.3       6 GLL5        0.0000 
     57 CA         91.7280    4.7740  -17.3270 C.3       4 GLP5        0.0000 
     58 CA         93.4150    6.5270  -14.4432 C.3       2 GLC5        0.0000 
     59 CA         92.1440    7.9350  -14.9880 C.3       6 GLL5        0.0000 
     60 CA         94.0880    4.8120  -13.7700 C.3       4 GLP5        0.0000 
     61 CA         92.5078   10.6455  -15.7297 C.3       2 GLC5        0.0000 
     62 CA         93.3400    8.5490  -15.2450 C.3       6 GLL5        0.0000 
     63 CA         91.4530   12.2120  -16.5850 C.3       4 GLP5        0.0000 
     64 CA         95.0230   11.0455  -14.1940 C.3       2 GLC5        0.0000 
     65 CA         93.7850    9.6090  -14.5040 C.3       6 GLL5        0.0000 
     66 CA         96.6510   12.2530  -14.3990 C.3       4 GLP5        0.0000 
     67 CA         91.1218   11.2286  -14.1032 C.3       2 GLC5        0.0000 
     68 CA         91.0460    9.9050  -12.2060 C.3       6 GLL5        0.0000 
     69 CA         90.5180   12.6230  -15.4330 C.3       4 GLP5        0.0000 
     70 CA         91.4033   11.5041  -11.9073 C.3       2 GLC5        0.0000 
     71 CA         93.0050   10.0670  -13.4740 C.3       6 GLL5        0.0000 
     72 CA         91.0810   13.1740  -11.0410 C.3       4 GLP5        0.0000 
     73 CA         91.1633    6.4055  -15.2190 C.3       2 GLC5        0.0000 
     74 CA         91.3710    8.3990  -13.9560 C.3       6 GLL5        0.0000 
     75 CA         90.5690    4.6440  -15.9660 C.3       4 GLP5        0.0000 
     76 CA         89.5736    9.2359  -13.5077 C.3       2 GLC5        0.0000 
     77 CA         87.7490    9.4310  -13.6840 C.3       4 GLP5        0.0000 
     78 CA         93.6550    3.5192  -21.8034 C.3       2 GLC5        0.0000 
     79 CA         91.9470    2.5530  -21.8360 C.3       4 GLP5        0.0000 
     80 CA        100.0482   11.5390  -23.7500 C.3       2 GLC5        0.0000 
     81 CA        100.9350   12.9000  -22.8350 C.3       4 GLP5        0.0000 
     82 CA         97.7930   11.2324  -26.9352 C.3       2 GLC5        0.0000 
     83 CA         96.1750   12.4400  -27.0890 C.3       4 GLP5        0.0000 
     84 CA         96.8654   10.1820  -26.1318 C.3       2 GLC5        0.0000 
     85 CA         98.3760    8.5710  -26.8220 C.3       6 GLL5        0.0000 
     86 CA         95.2840   11.4940  -26.2970 C.3       4 GLP5        0.0000 
@<TRIPOS>BOND
@<TRIPOS>SUBSTRUCTURE
     1 SEC2        9 GROUP        1 X    SEC  0     ROOT SEC X 2
     2 GLC5        1 GROUP        1 X    GLC  0     **** GLC X 6
     3 SEP2       11 GROUP        1 Y    SEP  0     ROOT SEP Y 9
     4 GLP5        3 GROUP        1 Y    GLP  0     **** GLP Y 13
     5 SEL2       10 GROUP        1 Z    SEL  0     ROOT SEL Z 16
     6 GLL5        2 GROUP        1 Z    GLL  0     **** GLL Z 20
@<TRIPOS>SET

