#    Name: 3e7c_866_2_ligand
#    Modification time : Tue Mar 25 01:02:13 2014

@<TRIPOS>MOLECULE
3e7c_866_2_ligand
   57    59     1     0     0
SMALL
NO_CHARGES


@<TRIPOS>ATOM
      1 C1         99.6100    5.7260  -25.3630 C.3       1 8662        0.0000 
      2 C2         99.4220    6.5670  -24.1290 C.3       1 8662        0.0000 
      3 N1         98.0240    6.7990  -23.9210 N.am      1 8662        0.0000 
      4 C3         97.2650    5.6550  -23.4890 C.3       1 8662        0.0000 
      5 C4         96.9540    5.6170  -22.0120 C.3       1 8662        0.0000 
      6 O1         98.1540    5.4060  -21.3060 O.3       1 8662        0.0000 
      7 C5         96.3590    6.9100  -21.5280 C.3       1 8662        0.0000 
      8 N2         96.0580    6.8530  -20.1250 N.am      1 8662        0.0000 
      9 C6         95.0080    7.5930  -19.6780 C.2       1 8662        0.0000 
     10 O2         94.2150    8.1750  -20.3900 O.2       1 8662        0.0000 
     11 C7         94.8920    7.6480  -18.2690 C.2       1 8662        0.0000 
     12 C8         95.7260    7.1440  -17.2540 C.2       1 8662        0.0000 
     13 N3         95.2470    7.4040  -16.0370 N.2       1 8662        0.0000 
     14 N4         94.1200    8.0810  -16.2790 N.pl3     1 8662        0.0000 
     15 C9         93.8640    8.2460  -17.6020 C.2       1 8662        0.0000 
     16 N5         92.7700    8.8900  -18.0230 N.pl3     1 8662        0.0000 
     17 C10        93.3400    8.5490  -15.2450 C.ar      1 8662        0.0000 
     18 C11        93.7850    9.6090  -14.5040 C.ar      1 8662        0.0000 
     19 C12        93.0050   10.0670  -13.4740 C.ar      1 8662        0.0000 
     20 C13        91.8050    9.4600  -13.2080 C.ar      1 8662        0.0000 
     21 F1         91.0460    9.9050  -12.2060 F         1 8662        0.0000 
     22 C14        91.3710    8.3990  -13.9560 C.ar      1 8662        0.0000 
     23 C15        92.1440    7.9350  -14.9880 C.ar      1 8662        0.0000 
     24 C16        96.0180    4.4630  -21.7390 C.3       1 8662        0.0000 
     25 F2         95.6700    4.3530  -20.4440 F         1 8662        0.0000 
     26 F3         94.8820    4.5630  -22.4500 F         1 8662        0.0000 
     27 F4         96.5940    3.3090  -22.1050 F         1 8662        0.0000 
     28 C17        97.3850    7.7060  -24.7300 C.2       1 8662        0.0000 
     29 O3         96.1780    7.7930  -24.8720 O.2       1 8662        0.0000 
     30 C18        98.2160    8.6610  -25.4590 C.ar      1 8662        0.0000 
     31 C19        98.8190    9.6770  -24.7630 C.ar      1 8662        0.0000 
     32 CL1        98.6470    9.8350  -23.0690 Cl        1 8662        0.0000 
     33 C20        99.5900   10.6000  -25.4140 C.ar      1 8662        0.0000 
     34 C21        99.7540   10.5070  -26.7700 C.ar      1 8662        0.0000 
     35 C22        99.1500    9.4960  -27.4710 C.ar      1 8662        0.0000 
     36 C23        98.3760    8.5710  -26.8220 C.ar      1 8662        0.0000 
     37 CL2        97.6610    7.3450  -27.7880 Cl        1 8662        0.0000 
     38 H          99.9670    7.5084  -24.2652 H         1 8662        0.0000 
     39 H          99.8700    6.0395  -23.2788 H         1 8662        0.0000 
     40 H          97.8003    4.7077  -23.7494 H         1 8662        0.0000 
     41 H          96.2951    5.5953  -24.0435 H         1 8662        0.0000 
     42 H          95.4501    7.1164  -22.1197 H         1 8662        0.0000 
     43 H          97.0725    7.7235  -21.7469 H         1 8662        0.0000 
     44 H          96.6252    6.2753  -19.5234 H         1 8662        0.0000 
     45 H          96.5566    6.6619  -17.4588 H         1 8662        0.0000 
     46 H          94.6860   10.0542  -14.7141 H         1 8662        0.0000 
     47 H          93.3202   10.8663  -12.9005 H         1 8662        0.0000 
     48 H          90.4652    7.9497  -13.7441 H         1 8662        0.0000 
     49 H          91.8306    7.1401  -15.5584 H         1 8662        0.0000 
     50 H         100.0457   11.3622  -24.8870 H         1 8662        0.0000 
     51 H         100.3374   11.2039  -27.2693 H         1 8662        0.0000 
     52 H          99.2799    9.4314  -28.4981 H         1 8662        0.0000 
     53 H         100.5760    5.5383  -25.5409 H         1 8662        0.0000 
     54 H          99.1494    4.8420  -25.2837 H         1 8662        0.0000 
     55 H          99.2438    6.1752  -26.1779 H         1 8662        0.0000 
     56 H          98.8798    5.5811  -21.9713 H         1 8662        0.0000 
     57 H          92.9548    9.1161  -18.9794 H         1 8662        0.0000 
@<TRIPOS>BOND
     1    2    1 1    
     2   53    1 1    
     3   54    1 1    
     4   55    1 1    
     5    3    2 1    
     6   38    2 1    
     7   39    2 1    
     8    4    3 1    
     9   28    3 am   
    10    5    4 1    
    11   40    4 1    
    12   41    4 1    
    13    6    5 1    
    14    7    5 1    
    15   24    5 1    
    16   56    6 1    
    17    8    7 1    
    18   42    7 1    
    19   43    7 1    
    20    9    8 am   
    21   44    8 1    
    22   10    9 2    
    23   11    9 1    
    24   12   11 1    
    25   15   11 2    
    26   13   12 2    
    27   45   12 1    
    28   14   13 1    
    29   15   14 1    
    30   17   14 1    
    31   16   15 1    
    32   57   16 1    
    33   18   17 ar   
    34   23   17 ar   
    35   19   18 ar   
    36   46   18 1    
    37   20   19 ar   
    38   47   19 1    
    39   21   20 1    
    40   22   20 ar   
    41   23   22 ar   
    42   48   22 1    
    43   49   23 1    
    44   25   24 1    
    45   26   24 1    
    46   27   24 1    
    47   29   28 2    
    48   30   28 1    
    49   31   30 ar   
    50   36   30 ar   
    51   32   31 1    
    52   33   31 ar   
    53   34   33 ar   
    54   50   33 1    
    55   35   34 ar   
    56   51   34 1    
    57   36   35 ar   
    58   52   35 1    
    59   37   36 1    
@<TRIPOS>SUBSTRUCTURE
     1 8662        1 GROUP   
@<TRIPOS>SET

