#    Name: 3w5q_3KL_1_INTS_M
#    Modification time : Tue Mar 25 02:19:41 2014

@<TRIPOS>MOLECULE
3w5q_3KL_1_INTS_M
   89     0     6     0     0
SMALL
NO_CHARGES


@<TRIPOS>ATOM
      1 CA          8.2425    3.6185   26.7990 C.3       2 GLC5        0.0000 
      2 CA          8.9830    1.8210   27.1440 C.3       6 GLL5        0.0000 
      3 CA          7.5020    5.4160   26.4540 C.3       4 GLP5        0.0000 
      4 CA          9.4085    1.8290   25.2650 C.3       2 GLC5        0.0000 
      5 CA          9.8340    1.8370   23.3860 C.3       4 GLP5        0.0000 
      6 N           8.8140   -0.9740   28.3655 N.am      1 SEC2        0.0000 
      7 N           8.2500   -0.5440   26.8150 N.am      5 SEL2        0.0000 
      8 N           9.3780   -1.4040   29.9160 N.am      3 SEP2        0.0000 
      9 CA         10.3110    0.8760   24.9675 C.3       2 GLC5        0.0000 
     10 CA         10.7880   -0.0850   26.5490 C.3       6 GLL5        0.0000 
     11 CA         12.3820   -1.0690   25.3065 C.3       2 GLC5        0.0000 
     12 CA         13.9760   -2.0530   24.0640 C.3       4 GLP5        0.0000 
     13 CA         13.0285   -1.6970   27.5210 C.3       2 GLC5        0.0000 
     14 CA         13.4140    0.1810   27.4460 C.3       6 GLL5        0.0000 
     15 CA         12.6430   -3.5750   27.5960 C.3       4 GLP5        0.0000 
     16 CA          9.2875    4.3360   28.3870 C.3       2 GLC5        0.0000 
     17 CA          9.9190    2.2560   28.3430 C.3       6 GLL5        0.0000 
     18 CA          8.6560    6.4160   28.4310 C.3       4 GLP5        0.0000 
     19 CA         10.9380    2.3640   25.1285 C.3       2 GLC5        0.0000 
     20 CA         12.0420    2.8910   26.8710 C.3       6 GLL5        0.0000 
     21 CA         10.2070    5.4190   27.6955 C.3       2 GLC5        0.0000 
     22 CA         11.7580    4.4220   26.9600 C.3       6 GLL5        0.0000 
     23 CA         12.6330    5.0020   28.7260 C.3       2 GLC5        0.0000 
     24 CA         13.5080    5.5820   30.4920 C.3       4 GLP5        0.0000 
     25 CA         10.3895    6.4325   25.9430 C.3       2 GLC5        0.0000 
     26 CA         12.0800    5.2450   25.6640 C.3       6 GLL5        0.0000 
     27 CA          8.6990    7.6200   26.2220 C.3       4 GLP5        0.0000 
     28 CA         11.2590    5.4770   23.6170 C.3       2 GLC5        0.0000 
     29 CA         10.4380    5.7090   21.5700 C.3       4 GLP5        0.0000 
     30 CA         12.6020    6.4695   27.4565 C.3       2 GLC5        0.0000 
     31 CA         13.1240    7.6940   29.2490 C.3       4 GLP5        0.0000 
     32 CA         16.7180    1.7980   24.5010 C.3       2 GLC5        0.0000 
     33 CA         15.3920    3.4890   24.5350 C.3       6 GLL5        0.0000 
     34 CA         18.0440    0.1070   24.4670 C.3       4 GLP5        0.0000 
     35 CA         16.3315    3.2180   26.4410 C.3       2 GLC5        0.0000 
     36 CA         17.2710    2.9470   28.3470 C.3       4 GLP5        0.0000 
     37 CA         12.1920    5.5510   22.6160 C.3       2 GLC5        0.0000 
     38 CA         13.9460    5.3930   23.6620 C.3       6 GLL5        0.0000 
     39 CA         16.1055    6.3535   27.1900 C.3       2 GLC5        0.0000 
     40 CA         14.5560    5.8020   26.2750 C.3       6 GLL5        0.0000 
     41 CA         17.6550    6.9050   28.1050 C.3       4 GLP5        0.0000 
     42 CA         13.8400    6.7480   27.7620 C.3       2 GLC5        0.0000 
     43 CA         15.9135    4.3745   27.3110 C.3       2 GLC5        0.0000 
     44 CA         12.8100    3.9885   29.9550 C.3       2 GLC5        0.0000 
     45 CA         12.1120    2.3950   29.4180 C.3       6 GLL5        0.0000 
     46 CA         13.2650    2.6445   30.8900 C.3       2 GLC5        0.0000 
     47 CA         14.4180    2.8940   32.3620 C.3       4 GLP5        0.0000 
     48 CA         11.8135    6.8275   22.6040 C.3       2 GLC5        0.0000 
     49 CA         13.1890    7.9460   23.6380 C.3       6 GLL5        0.0000 
     50 CA         14.6355    9.3635   24.1905 C.3       2 GLC5        0.0000 
     51 CA         16.0820   10.7810   24.7430 C.3       4 GLP5        0.0000 
     52 CA         12.5730    9.5920   24.2505 C.3       2 GLC5        0.0000 
     53 CA         11.9570   11.2380   24.8630 C.3       4 GLP5        0.0000 
     54 CA         16.5715    7.1415   21.4730 C.3       2 GLC5        0.0000 
     55 CA         15.2390    8.2910   21.2060 C.3       6 GLL5        0.0000 
     56 CA         17.9040    5.9920   21.7400 C.3       4 GLP5        0.0000 
     57 CA         16.4080   10.0110   20.7690 C.3       2 GLC5        0.0000 
     58 CA         17.5770   11.7310   20.3320 C.3       4 GLP5        0.0000 
     59 CA         16.4555    8.5990   22.6135 C.3       2 GLC5        0.0000 
     60 CA         17.6720    8.9070   24.0210 C.3       4 GLP5        0.0000 
     61 CA         14.4650   10.0170   21.0670 C.3       2 GLC5        0.0000 
     62 CA         13.6910   11.7430   20.9280 C.3       4 GLP5        0.0000 
     63 N          16.8935    9.4205   18.2595 N.am      1 SEC2        0.0000 
     64 N          16.3670    9.0100   19.2820 N.am      5 SEL2        0.0000 
     65 N          17.4200    9.8310   17.2370 N.am      3 SEP2        0.0000 
     66 N          16.7825    9.8895   20.2945 N.am      1 SEC2        0.0000 
     67 N          17.1980   10.7690   21.3070 N.am      3 SEP2        0.0000 
     68 CA          8.3205    2.8913   29.2228 C.3       2 GLC5        0.0000 
     69 CA          7.1900    3.7440   30.7020 C.3       4 GLP5        0.0000 
     70 CA          9.5380    0.8507   29.2443 C.3       2 GLC5        0.0000 
     71 CA          9.6250   -0.3370   30.7450 C.3       4 GLP5        0.0000 
     72 CA         10.4642   -0.0928   28.9550 C.3       2 GLC5        0.0000 
     73 CA         11.8190    0.3880   27.7810 C.3       6 GLL5        0.0000 
     74 CA         11.9733   -1.7118   27.3805 C.3       2 GLC5        0.0000 
     75 CA         13.5608   -0.5258   29.2082 C.3       2 GLC5        0.0000 
     76 CA         14.5050   -1.3360   30.8030 C.3       4 GLP5        0.0000 
     77 CA         13.8063   -0.7122   25.4353 C.3       2 GLC5        0.0000 
     78 CA         15.3943   -0.2587   26.8053 C.3       2 GLC5        0.0000 
     79 CA         13.8590    1.0760   26.1670 C.3       6 GLL5        0.0000 
     80 CA         17.1520   -1.1460   26.8040 C.3       4 GLP5        0.0000 
     81 CA         15.5023    2.4028   27.3190 C.3       2 GLC5        0.0000 
     82 CA         10.7183    0.9240   29.7600 C.3       2 GLC5        0.0000 
     83 CA         14.8730    2.9155   22.3167 C.3       2 GLC5        0.0000 
     84 CA         14.4770    1.9100   20.6930 C.3       4 GLP5        0.0000 
     85 CA         16.2250    5.4325   22.6220 C.3       2 GLC5        0.0000 
     86 CA         15.1460    4.3530   23.3460 C.3       6 GLL5        0.0000 
     87 CA         16.2392    6.4705   22.1605 C.3       2 GLC5        0.0000 
     88 CA         14.7490    6.9710   21.8400 C.3       6 GLL5        0.0000 
     89 CA         16.1232    7.9280   23.3010 C.3       2 GLC5        0.0000 
@<TRIPOS>BOND
@<TRIPOS>SUBSTRUCTURE
     1 SEC2        6 GROUP        1 X    SEC  0     ROOT SEC X 2
     2 GLC5        1 GROUP        1 X    GLC  0     **** GLC X 6
     3 SEP2        8 GROUP        1 Y    SEP  0     ROOT SEP Y 9
     4 GLP5        3 GROUP        1 Y    GLP  0     **** GLP Y 13
     5 SEL2        7 GROUP        1 Z    SEL  0     ROOT SEL Z 16
     6 GLL5        2 GROUP        1 Z    GLL  0     **** GLL Z 20
@<TRIPOS>SET

