#    Name: 3w5q_3KL_1_ligand
#    Modification time : Tue Mar 25 02:19:41 2014

@<TRIPOS>MOLECULE
3w5q_3KL_1_ligand
   64    67     1     0     0
SMALL
NO_CHARGES


@<TRIPOS>ATOM
      1 C2          8.9830    1.8210   27.1440 C.3       1 3KL500      0.0000 
      2 C3          9.1930    0.2670   26.8370 C.2       1 3KL500      0.0000 
      3 O3          8.2500   -0.5440   26.8150 O.2       1 3KL500      0.0000 
      4 C4         10.7880   -0.0850   26.5490 C.3       1 3KL500      0.0000 
      5 C5         11.8190    0.3880   27.7810 C.3       1 3KL500      0.0000 
      6 C6         13.4140    0.1810   27.4460 C.3       1 3KL500      0.0000 
      7 C1          9.9190    2.2560   28.3430 C.3       1 3KL500      0.0000 
      8 C7         13.8590    1.0760   26.1670 C.3       1 3KL500      0.0000 
      9 C8         13.6080    2.6410   26.4150 C.3       1 3KL500      0.0000 
     10 C9         12.0420    2.8910   26.8710 C.3       1 3KL500      0.0000 
     11 C10        11.5110    1.9750   28.1320 C.3       1 3KL500      0.0000 
     12 C11        11.7580    4.4220   26.9600 C.3       1 3KL500      0.0000 
     13 C12        12.0800    5.2450   25.6640 C.3       1 3KL500      0.0000 
     14 C13        13.5710    5.0440   25.1600 C.3       1 3KL500      0.0000 
     15 C14        13.8790    3.4800   25.0820 C.3       1 3KL500      0.0000 
     16 C15        15.3920    3.4890   24.5350 C.3       1 3KL500      0.0000 
     17 C16        15.1460    4.3530   23.3460 C.3       1 3KL500      0.0000 
     18 C17        13.9460    5.3930   23.6620 C.3       1 3KL500      0.0000 
     19 C18        14.5560    5.8020   26.2750 C.3       1 3KL500      0.0000 
     20 C19        12.1120    2.3950   29.4180 C.3       1 3KL500      0.0000 
     21 C20        14.4000    6.9270   23.3220 C.3       1 3KL500      0.0000 
     22 C21        13.1890    7.9460   23.6380 C.3       1 3KL500      0.0000 
     23 C22        14.7490    6.9710   21.8400 C.3       1 3KL500      0.0000 
     24 C23        15.2390    8.2910   21.2060 C.3       1 3KL500      0.0000 
     25 C24        15.6020    8.1560   19.7490 C.2       1 3KL500      0.0000 
     26 OT1        16.3670    9.0100   19.2820 O.co2     1 3KL500      0.0000 
     27 OT2        15.1660    7.1830   19.0590 O.co2     1 3KL500      0.0000 
     28 H           7.9615    1.9781   27.4208 H         1 3KL500      0.0000 
     29 H           9.2484    2.3792   26.2706 H         1 3KL500      0.0000 
     30 H          11.0897    0.4302   25.6579 H         1 3KL500      0.0000 
     31 H          10.8822   -1.1476   26.4373 H         1 3KL500      0.0000 
     32 H          11.5667   -0.1758   28.6462 H         1 3KL500      0.0000 
     33 H          13.5718   -0.8486   27.2163 H         1 3KL500      0.0000 
     34 H          13.9734    0.4967   28.2975 H         1 3KL500      0.0000 
     35 H           9.6130    1.7237   29.2477 H         1 3KL500      0.0000 
     36 H           9.7998    3.3284   28.5197 H         1 3KL500      0.0000 
     37 H          13.2771    0.7608   25.3200 H         1 3KL500      0.0000 
     38 H          14.9079    0.9153   25.9955 H         1 3KL500      0.0000 
     39 H          14.2255    2.9877   27.1842 H         1 3KL500      0.0000 
     40 H          11.4478    2.5214   25.9683 H         1 3KL500      0.0000 
     41 H          12.3460    4.8418   27.7915 H         1 3KL500      0.0000 
     42 H          10.6950    4.5694   27.2083 H         1 3KL500      0.0000 
     43 H          11.9280    6.3017   25.8683 H         1 3KL500      0.0000 
     44 H          11.4062    4.9338   24.8700 H         1 3KL500      0.0000 
     45 H          13.2743    3.0982   24.2636 H         1 3KL500      0.0000 
     46 H          15.6288    2.5205   24.2709 H         1 3KL500      0.0000 
     47 H          15.9726    3.9598   25.2457 H         1 3KL500      0.0000 
     48 H          14.8338    3.7742   22.4894 H         1 3KL500      0.0000 
     49 H          16.0123    4.9487   23.0991 H         1 3KL500      0.0000 
     50 H          13.1376    5.1055   23.0272 H         1 3KL500      0.0000 
     51 H          15.2209    7.1612   23.9192 H         1 3KL500      0.0000 
     52 H          13.8533    6.6198   21.2510 H         1 3KL500      0.0000 
     53 H          15.5274    6.1815   21.6323 H         1 3KL500      0.0000 
     54 H          16.1121    8.6439   21.7750 H         1 3KL500      0.0000 
     55 H          14.4463    9.0451   21.3229 H         1 3KL500      0.0000 
     56 H          15.5225    5.7244   26.0302 H         1 3KL500      0.0000 
     57 H          14.3500    6.7777   26.3498 H         1 3KL500      0.0000 
     58 H          14.4528    5.4097   27.1890 H         1 3KL500      0.0000 
     59 H          13.1061    2.2865   29.4164 H         1 3KL500      0.0000 
     60 H          11.9224    3.3558   29.6203 H         1 3KL500      0.0000 
     61 H          11.7599    1.8589   30.1852 H         1 3KL500      0.0000 
     62 H          12.9165    7.9121   24.5996 H         1 3KL500      0.0000 
     63 H          13.4388    8.8933   23.4373 H         1 3KL500      0.0000 
     64 H          12.3758    7.7360   23.0953 H         1 3KL500      0.0000 
@<TRIPOS>BOND
     1    2    1 1    
     2    7    1 1    
     3   28    1 1    
     4   29    1 1    
     5    3    2 2    
     6    4    2 1    
     7    5    4 1    
     8   30    4 1    
     9   31    4 1    
    10    6    5 1    
    11   11    5 1    
    12   32    5 1    
    13    8    6 1    
    14   33    6 1    
    15   34    6 1    
    16   11    7 1    
    17   35    7 1    
    18   36    7 1    
    19    9    8 1    
    20   37    8 1    
    21   38    8 1    
    22   10    9 1    
    23   15    9 1    
    24   39    9 1    
    25   11   10 1    
    26   12   10 1    
    27   40   10 1    
    28   20   11 1    
    29   13   12 1    
    30   41   12 1    
    31   42   12 1    
    32   14   13 1    
    33   43   13 1    
    34   44   13 1    
    35   15   14 1    
    36   18   14 1    
    37   19   14 1    
    38   16   15 1    
    39   45   15 1    
    40   17   16 1    
    41   46   16 1    
    42   47   16 1    
    43   18   17 1    
    44   48   17 1    
    45   49   17 1    
    46   21   18 1    
    47   50   18 1    
    48   56   19 1    
    49   57   19 1    
    50   58   19 1    
    51   59   20 1    
    52   60   20 1    
    53   61   20 1    
    54   22   21 1    
    55   23   21 1    
    56   51   21 1    
    57   62   22 1    
    58   63   22 1    
    59   64   22 1    
    60   24   23 1    
    61   52   23 1    
    62   53   23 1    
    63   25   24 1    
    64   54   24 1    
    65   55   24 1    
    66   26   25 ar   
    67   27   25 ar   
@<TRIPOS>SUBSTRUCTURE
     1 3KL500      1 GROUP   
@<TRIPOS>SET

