#    Name: 3R0Q_2_CAVITY_N1_6.mol2
#    Modification time : Mon Mar 10 19:06:44 2014

@<TRIPOS>MOLECULE
3R0Q_2_CAVITY_N1_6.mol2
   51     0     6     0     0
SMALL
NO_CHARGES


@<TRIPOS>ATOM
      1 N         -28.3203   -0.9851   13.8695 N.2       2 ALA2        0.0000 
      2 CZ        -29.7977   -1.0477   12.3485 C.ar      4 PHE5        0.0000 
      3 CA        -29.4854   -1.8772   13.5586 C.3       5 GLY6        0.0000 
      4 CZ        -30.6505   -2.7694   13.2476 C.ar      4 PHE5        0.0000 
      5 OG        -29.3349    6.6972   10.1009 O.2       1 SER1        0.0000 
      6 OG        -29.0226    5.8677   11.3110 O.2       1 SER1        0.0000 
      7 CA        -28.7104    5.0382   12.5211 C.3       5 GLY6        0.0000 
      8 CA        -28.3981    4.2086   13.7312 C.3       5 GLY6        0.0000 
      9 CZ        -30.1877    4.9756   11.0001 C.ar      4 PHE5        0.0000 
     10 CA        -29.8754    4.1460   12.2102 C.3       5 GLY6        0.0000 
     11 CA        -29.5632    3.3165   13.4203 C.3       5 GLY6        0.0000 
     12 CZ        -31.0405    3.2539   11.8992 C.ar      4 PHE5        0.0000 
     13 CA        -30.7282    2.4243   13.1094 C.3       5 GLY6        0.0000 
     14 CA        -30.4160    1.5948   14.3195 C.3       5 GLY6        0.0000 
     15 CA        -29.3287    7.6807   14.4921 C.3       5 GLY6        0.0000 
     16 OG        -28.1310    4.9925   10.4809 O.2       1 SER1        0.0000 
     17 O         -30.8060    7.6181   12.9711 O.2       2 ALA2        0.0000 
     18 O         -30.4937    6.7885   14.1812 O.2       2 ALA2        0.0000 
     19 O         -31.6588    5.8964   13.8702 O.2       2 ALA2        0.0000 
     20 CA        -31.3465    5.0669   15.0804 C.3       5 GLY6        0.0000 
     21 CZ        -31.0794    5.8507   11.8301 C.ar      4 PHE5        0.0000 
     22 CA        -30.7671    5.0212   13.0402 C.3       5 GLY6        0.0000 
     23 CA        -30.4548    4.1917   14.2503 C.3       5 GLY6        0.0000 
     24 CZ        -32.2445    4.9586   11.5192 C.ar      4 PHE5        0.0000 
     25 CA        -31.9322    4.1291   12.7293 C.3       5 GLY6        0.0000 
     26 NZ        -31.6199    3.2995   13.9394 N.2       3 LYS4        0.0000 
     27 OG        -29.2960    4.1004   10.1700 O.2       1 SER1        0.0000 
     28 CA        -28.9838    3.2708   11.3801 C.3       5 GLY6        0.0000 
     29 CZ        -30.4611    3.2082    9.8591 C.ar      4 PHE5        0.0000 
     30 OG        -30.1488    2.3787   11.0692 O.2       1 SER1        0.0000 
     31 CA        -29.8366    1.5492   12.2793 C.3       5 GLY6        0.0000 
     32 CA        -29.5243    0.7196   13.4894 C.3       5 GLY6        0.0000 
     33 N         -29.2120   -0.1099   14.6995 N.2       2 ALA2        0.0000 
     34 OG        -31.3139    1.4865   10.7583 O.2       1 SER1        0.0000 
     35 CZ        -31.0016    0.6570   11.9684 C.ar      4 PHE5        0.0000 
     36 CZ        -30.6894   -0.1725   13.1785 C.ar      4 PHE5        0.0000 
     37 N         -30.3771   -1.0021   14.3886 N.2       2 ALA2        0.0000 
     38 CZ        -31.8544   -1.0647   12.8676 C.ar      4 PHE5        0.0000 
     39 NZ        -31.8933    1.5322   12.7984 N.2       3 LYS4        0.0000 
     40 NZ        -31.5810    0.7027   14.0085 N.2       3 LYS4        0.0000 
     41 CA        -33.0584    0.6400   12.4875 C.3       5 GLY6        0.0000 
     42 CZ        -32.7461   -0.1895   13.6976 C.ar      4 PHE5        0.0000 
     43 NZ        -33.0973    3.2369   12.4184 N.2       3 LYS4        0.0000 
     44 NZ        -32.7850    2.4074   13.6285 N.2       3 LYS4        0.0000 
     45 CA        -27.5453    5.9303   12.8320 C.3       5 GLY6        0.0000 
     46 CA        -28.7492    7.6350   12.4519 C.3       5 GLY6        0.0000 
     47 CA        -28.4370    6.8055   13.6621 C.3       5 GLY6        0.0000 
     48 CA        -28.1247    5.9760   14.8722 C.3       5 GLY6        0.0000 
     49 DU        -29.9143    6.7429   12.1410 H         6 CUB7        0.0000 
     50 DU        -29.6020    5.9134   13.3511 H         6 CUB7        0.0000 
     51 CA        -29.2898    5.0838   14.5612 C.3       5 GLY6        0.0000 
@<TRIPOS>BOND
@<TRIPOS>SUBSTRUCTURE
     1 SER1        5 GROUP   
     2 ALA2        1 GROUP   
     3 LYS4       26 GROUP   
     4 PHE5        2 GROUP   
     5 GLY6        3 GROUP   
     6 CUB7       49 GROUP   
@<TRIPOS>SET

