#    Name: 3r0q_SAH_2_INTS_M
#    Modification time : Tue Mar 25 10:25:44 2014

@<TRIPOS>MOLECULE
3r0q_SAH_2_INTS_M
   86     0    12     0     0
SMALL
NO_CHARGES


@<TRIPOS>ATOM
      1 O         -29.3605   -0.1480   17.7645 O.2       1 ALC1        0.0000 
      2 O         -29.1360   -1.3800   18.2890 O.2       9 ALL1        0.0000 
      3 O         -29.5850    1.0840   17.2400 O.2       5 ALP1        0.0000 
      4 CA        -30.9610   -4.1895   15.4130 C.3       4 GLC5        0.0000 
      5 CA        -30.5090   -2.6230   16.6850 C.3      12 GLL5        0.0000 
      6 CA        -31.4130   -5.7560   14.1410 C.3       8 GLP5        0.0000 
      7 CA        -27.2735   -2.7810   16.2290 C.3       4 GLC5        0.0000 
      8 CA        -29.4000   -2.3550   15.6760 C.3      12 GLL5        0.0000 
      9 CA        -25.1470   -3.2070   16.7820 C.3       8 GLP5        0.0000 
     10 NZ        -28.4740   -5.4280   18.4660 N.4       3 LYC4        0.0000 
     11 NZ        -28.1440   -3.9430   18.4100 N.4      11 LYL4        0.0000 
     12 NZ        -27.9710   -7.2210   17.5400 N.4       7 LYP4        0.0000 
     13 N         -27.8410   -5.1110   17.5625 N.am      2 SEC2        0.0000 
     14 N         -28.1440   -3.9430   18.4100 N.am     10 SEL2        0.0000 
     15 N         -27.5380   -6.2790   16.7150 N.am      6 SEP2        0.0000 
     16 N         -28.4740   -5.4280   18.4660 N.am      2 SEC2        0.0000 
     17 N         -28.8040   -6.9130   18.5220 N.am      6 SEP2        0.0000 
     18 NZ        -29.4310   -5.8505   18.6600 N.4       3 LYC4        0.0000 
     19 NZ        -30.0580   -4.7880   18.7980 N.4      11 LYL4        0.0000 
     20 N         -29.4310   -5.8505   18.6600 N.am      2 SEC2        0.0000 
     21 N         -30.0580   -4.7880   18.7980 N.am     10 SEL2        0.0000 
     22 CA        -28.3205    0.3110   12.8780 C.3       4 GLC5        0.0000 
     23 CA        -29.6780   -0.5980   13.8030 C.3      12 GLL5        0.0000 
     24 CA        -26.9630    1.2200   11.9530 C.3       8 GLP5        0.0000 
     25 CA        -30.1030    1.8655   15.3200 C.3       4 GLC5        0.0000 
     26 CA        -30.7830    0.3820   14.1950 C.3      12 GLL5        0.0000 
     27 CA        -29.4230    3.3490   16.4450 C.3       8 GLP5        0.0000 
     28 CA        -28.8770    1.2270   13.8585 C.3       4 GLC5        0.0000 
     29 CA        -26.9710    2.0720   13.5220 C.3       8 GLP5        0.0000 
     30 CA        -32.8790   -0.6260   12.0515 C.3       4 GLC5        0.0000 
     31 CA        -32.0490    0.3120   13.3500 C.3      12 GLL5        0.0000 
     32 CA        -33.7090   -1.5640   10.7530 C.3       8 GLP5        0.0000 
     33 N         -34.2140   -0.9335   14.7110 N.am      2 SEC2        0.0000 
     34 N         -33.1420    0.1930   14.2340 N.am     10 SEL2        0.0000 
     35 N         -35.2860   -2.0600   15.1880 N.am      6 SEP2        0.0000 
     36 O         -33.3605    1.3360   15.2185 O.2       1 ALC1        0.0000 
     37 O         -33.1420    0.1930   14.2340 O.2       9 ALL1        0.0000 
     38 O         -33.5790    2.4790   16.2030 O.2       5 ALP1        0.0000 
     39 O         -34.0900    1.6235   14.4490 O.2       1 ALC1        0.0000 
     40 O         -35.0380    3.0540   14.6640 O.2       5 ALP1        0.0000 
     41 CA        -32.4870    0.2650   11.1945 C.3       4 GLC5        0.0000 
     42 CA        -32.1400    1.6370   12.6110 C.3      12 GLL5        0.0000 
     43 CA        -32.8340   -1.1070    9.7780 C.3       8 GLP5        0.0000 
     44 N         -35.0980    2.6980   12.4870 N.am      2 SEC2        0.0000 
     45 N         -33.4450    2.1700   12.6210 N.am     10 SEL2        0.0000 
     46 N         -36.7510    3.2260   12.3530 N.am      6 SEP2        0.0000 
     47 O         -34.2415    2.6120   13.6425 O.2       1 ALC1        0.0000 
     48 O         -33.4450    2.1700   12.6210 O.2       9 ALL1        0.0000 
     49 CA        -30.3315    2.9430   14.9385 C.3       4 GLC5        0.0000 
     50 CA        -31.2400    2.5370   13.4320 C.3      12 GLL5        0.0000 
     51 CA        -29.1055    2.3045   13.4770 C.3       4 GLC5        0.0000 
     52 CA        -30.9290    8.8110   12.4955 C.3       4 GLC5        0.0000 
     53 CA        -29.6960    6.9750   12.2250 C.3      12 GLL5        0.0000 
     54 CA        -32.1620   10.6470   12.7660 C.3       8 GLP5        0.0000 
     55 CA        -28.2760    8.4080   13.0225 C.3       4 GLC5        0.0000 
     56 CA        -26.8560    9.8410   13.8200 C.3       8 GLP5        0.0000 
     57 CA        -27.6340    7.0780   11.6765 C.3       4 GLC5        0.0000 
     58 CA        -25.5720    7.1810   11.1280 C.3       8 GLP5        0.0000 
     59 O         -28.5145    9.0105   10.5520 O.2       1 ALC1        0.0000 
     60 O         -29.0080    7.7180   11.3560 O.2       9 ALL1        0.0000 
     61 O         -28.0210   10.3030    9.7480 O.2       5 ALP1        0.0000 
     62 O         -27.6835    7.4430   10.6535 O.2       1 ALC1        0.0000 
     63 O         -26.3590    7.1680    9.9510 O.2       5 ALP1        0.0000 
     64 N         -30.1715    9.0615   13.6530 N.am      2 SEC2        0.0000 
     65 N         -30.2820    7.5930   13.3090 N.am     10 SEL2        0.0000 
     66 N         -30.0610   10.5300   13.9970 N.am      6 SEP2        0.0000 
     67 CA        -30.2150    5.1045   15.3350 C.3       4 GLC5        0.0000 
     68 CA        -31.0070    6.8600   14.2250 C.3      12 GLL5        0.0000 
     69 CA        -30.7650    7.8735   15.8325 C.3       4 GLC5        0.0000 
     70 CA        -30.5230    8.8870   17.4400 C.3       8 GLP5        0.0000 
     71 CA        -32.3360    6.2910   15.6885 C.3       4 GLC5        0.0000 
     72 CA        -33.6650    5.7220   17.1520 C.3       8 GLP5        0.0000 
     73 CA        -32.5150    6.8740   13.3630 C.3       4 GLC5        0.0000 
     74 CA        -34.0230    6.8880   12.5010 C.3       8 GLP5        0.0000 
     75 CA        -31.5845    8.7535   13.4955 C.3       4 GLC5        0.0000 
     76 N         -32.6840    5.8740   14.4560 N.am      2 SEC2        0.0000 
     77 N         -31.1420    5.5030   14.0640 N.am     10 SEL2        0.0000 
     78 N         -34.2260    6.2450   14.8480 N.am      6 SEP2        0.0000 
     79 CA        -29.9940    4.1200   14.7295 C.3       4 GLC5        0.0000 
     80 CA        -30.5650    4.8910   13.0140 C.3      12 GLL5        0.0000 
     81 CA        -29.7405   -3.9365   14.1800 C.3       4 GLC5        0.0000 
     82 CA        -30.0620   -2.3530   14.0040 C.3      12 GLL5        0.0000 
     83 CA        -29.7500   -5.5190   13.5200 C.3       8 GLP5        0.0000 
     84 CA        -31.0120   -2.4068   12.5723 C.3       4 GLC5        0.0000 
     85 CA        -32.1540   -3.3380   11.2410 C.3       8 GLP5        0.0000 
     86 CA        -32.0941    6.2384   12.5409 C.3       4 GLC5        0.0000 
@<TRIPOS>BOND
@<TRIPOS>SUBSTRUCTURE
     1 ALC1        1 GROUP        1 X    ALC  0     ROOT ALC X 1
     2 SEC2       13 GROUP        1 X    SEC  0     **** SEC X 2
     3 LYC4       10 GROUP        1 X    LYC  0     **** LYC X 4
     4 GLC5        4 GROUP        1 X    GLC  0     **** GLC X 6
     5 ALP1        3 GROUP        1 Y    ALP  0     ROOT ALP Y 8
     6 SEP2       15 GROUP        1 Y    SEP  0     **** SEP Y 9
     7 LYP4       12 GROUP        1 Y    LYP  0     **** LYP Y 11
     8 GLP5        6 GROUP        1 Y    GLP  0     **** GLP Y 13
     9 ALL1        2 GROUP        1 Z    ALL  0     ROOT ALL Z 15
    10 SEL2       14 GROUP        1 Z    SEL  0     **** SEL Z 16
    11 LYL4       11 GROUP        1 Z    LYL  0     **** LYL Z 18
    12 GLL5        5 GROUP        1 Z    GLL  0     **** GLL Z 20
@<TRIPOS>SET

