#    Name: 3r0q_SAH_2_ligand
#    Modification time : Tue Mar 25 10:25:44 2014

@<TRIPOS>MOLECULE
3r0q_SAH_2_ligand
   46    48     1     0     0
SMALL
NO_CHARGES


@<TRIPOS>ATOM
      1 N         -29.1360   -1.3800   18.2890 N.4       1 SAH1        0.0000 
      2 CA        -30.0430   -2.5100   18.1240 C.3       1 SAH1        0.0000 
      3 CB        -30.5090   -2.6230   16.6850 C.3       1 SAH1        0.0000 
      4 CG        -29.4000   -2.3550   15.6760 C.3       1 SAH1        0.0000 
      5 SD        -30.0620   -2.3530   14.0040 S.3       1 SAH1        0.0000 
      6 C         -29.3710   -3.8200   18.4700 C.2       1 SAH1        0.0000 
      7 O         -28.1440   -3.9430   18.4100 O.co2     1 SAH1        0.0000 
      8 OXT       -30.0580   -4.7880   18.7980 O.co2     1 SAH1        0.0000 
      9 C5'       -29.6780   -0.5980   13.8030 C.3       1 SAH1        0.0000 
     10 C4'       -30.7830    0.3820   14.1950 C.3       1 SAH1        0.0000 
     11 O4'       -30.2810    1.7040   14.0570 O.3       1 SAH1        0.0000 
     12 C3'       -32.0490    0.3120   13.3500 C.3       1 SAH1        0.0000 
     13 O3'       -33.1420    0.1930   14.2340 O.3       1 SAH1        0.0000 
     14 C2'       -32.1400    1.6370   12.6110 C.3       1 SAH1        0.0000 
     15 O2'       -33.4450    2.1700   12.6210 O.3       1 SAH1        0.0000 
     16 C1'       -31.2400    2.5370   13.4320 C.3       1 SAH1        0.0000 
     17 N9        -30.5660    3.5820   12.6470 N.pl3     1 SAH1        0.0000 
     18 C8        -29.8360    3.4710   11.4900 C.2       1 SAH1        0.0000 
     19 N7        -29.3970    4.7090   11.1470 N.2       1 SAH1        0.0000 
     20 C5        -29.8350    5.5980   12.0700 C.ar      1 SAH1        0.0000 
     21 C6        -29.6960    6.9750   12.2250 C.ar      1 SAH1        0.0000 
     22 N6        -29.0080    7.7180   11.3560 N.pl3     1 SAH1        0.0000 
     23 N1        -30.2820    7.5930   13.3090 N.ar      1 SAH1        0.0000 
     24 C2        -31.0070    6.8600   14.2250 C.ar      1 SAH1        0.0000 
     25 N3        -31.1420    5.5030   14.0640 N.ar      1 SAH1        0.0000 
     26 C4        -30.5650    4.8910   13.0140 C.ar      1 SAH1        0.0000 
     27 H         -30.9164   -2.4029   18.7483 H         1 SAH1        0.0000 
     28 H         -31.3287   -1.9097   16.5130 H         1 SAH1        0.0000 
     29 H         -30.9121   -3.6321   16.5133 H         1 SAH1        0.0000 
     30 H         -28.6655   -3.1242   15.6363 H         1 SAH1        0.0000 
     31 H         -28.9733   -1.3836   15.7603 H         1 SAH1        0.0000 
     32 H         -29.4093   -0.5389   12.7496 H         1 SAH1        0.0000 
     33 H         -28.7769   -0.4878   14.4041 H         1 SAH1        0.0000 
     34 H         -31.0550    0.2026   15.2308 H         1 SAH1        0.0000 
     35 H         -31.9643   -0.4730   12.6652 H         1 SAH1        0.0000 
     36 H         -31.7144    1.5275   11.6547 H         1 SAH1        0.0000 
     37 H         -31.8654    3.0063   14.2001 H         1 SAH1        0.0000 
     38 H         -29.6700    2.6569   11.0136 H         1 SAH1        0.0000 
     39 H         -28.2256    7.2736   10.9198 H         1 SAH1        0.0000 
     40 H         -29.3367    8.6524   11.2190 H         1 SAH1        0.0000 
     41 H         -31.4469    7.3337   15.0303 H         1 SAH1        0.0000 
     42 H         -28.8180   -1.2938   19.2332 H         1 SAH1        0.0000 
     43 H         -28.3234   -1.4688   17.7130 H         1 SAH1        0.0000 
     44 H         -29.5737   -0.5141   18.0469 H         1 SAH1        0.0000 
     45 H         -33.1378    1.0397   14.7660 H         1 SAH1        0.0000 
     46 H         -33.6480    2.3390   13.5855 H         1 SAH1        0.0000 
@<TRIPOS>BOND
     1    2    1 1    
     2   42    1 1    
     3   43    1 1    
     4   44    1 1    
     5    3    2 1    
     6    6    2 1    
     7   27    2 1    
     8    4    3 1    
     9   28    3 1    
    10   29    3 1    
    11    5    4 1    
    12   30    4 1    
    13   31    4 1    
    14    9    5 1    
    15    7    6 ar   
    16    8    6 ar   
    17   10    9 1    
    18   32    9 1    
    19   33    9 1    
    20   11   10 1    
    21   12   10 1    
    22   34   10 1    
    23   16   11 1    
    24   13   12 1    
    25   14   12 1    
    26   35   12 1    
    27   45   13 1    
    28   15   14 1    
    29   16   14 1    
    30   36   14 1    
    31   46   15 1    
    32   17   16 1    
    33   37   16 1    
    34   18   17 1    
    35   26   17 1    
    36   19   18 2    
    37   38   18 1    
    38   20   19 1    
    39   21   20 ar   
    40   26   20 ar   
    41   22   21 1    
    42   23   21 ar   
    43   39   22 1    
    44   40   22 1    
    45   24   23 ar   
    46   25   24 ar   
    47   41   24 1    
    48   26   25 ar   
@<TRIPOS>SUBSTRUCTURE
     1 SAH1        1 GROUP   
@<TRIPOS>SET

