#    Name: 3eku_CY9_1_INTS_M
#    Modification time : Tue Mar 25 02:02:22 2014

@<TRIPOS>MOLECULE
3eku_CY9_1_INTS_M
   74     0     9     0     0
SMALL
NO_CHARGES


@<TRIPOS>ATOM
      1 CA         62.9140  -15.4675   27.8980 C.3       3 GLC5        0.0000 
      2 CA         61.0040  -16.6160   28.2030 C.3       9 GLL5        0.0000 
      3 CA         64.8240  -14.3190   27.5930 C.3       6 GLP5        0.0000 
      4 CA         62.5030  -16.5135   26.6175 C.3       3 GLC5        0.0000 
      5 CA         64.0020  -16.4110   25.0320 C.3       6 GLP5        0.0000 
      6 N          64.1600  -16.9005   31.5865 N.am      2 SEC2        0.0000 
      7 N          63.0280  -16.2350   31.0190 N.am      8 SEL2        0.0000 
      8 N          65.2920  -17.5660   32.1540 N.am      5 SEP2        0.0000 
      9 CA         56.0650  -17.3490   23.4160 C.3       3 GLC5        0.0000 
     10 CA         57.2230  -18.2660   25.0770 C.3       9 GLL5        0.0000 
     11 CA         54.9070  -16.4320   21.7550 C.3       6 GLP5        0.0000 
     12 CA         55.5495  -17.4085   25.4480 C.3       3 GLC5        0.0000 
     13 CA         53.8760  -16.5510   25.8190 C.3       6 GLP5        0.0000 
     14 CA         60.3415  -19.4775   29.1110 C.3       3 GLC5        0.0000 
     15 CA         60.5840  -18.0230   27.7730 C.3       9 GLL5        0.0000 
     16 CA         60.0990  -20.9320   30.4490 C.3       6 GLP5        0.0000 
     17 O          62.8010  -16.9135   27.4520 O.2       1 ALC1        0.0000 
     18 O          62.2820  -16.6670   28.9310 O.2       7 ALL1        0.0000 
     19 O          63.3200  -17.1600   25.9730 O.2       4 ALP1        0.0000 
     20 O          63.1965  -17.5810   28.5610 O.2       1 ALC1        0.0000 
     21 O          64.1110  -18.4950   28.1910 O.2       4 ALP1        0.0000 
     22 CA         59.4225  -13.5585   25.6655 C.3       3 GLC5        0.0000 
     23 CA         59.1250  -14.6690   27.1800 C.3       9 GLL5        0.0000 
     24 CA         59.7200  -12.4480   24.1510 C.3       6 GLP5        0.0000 
     25 CA         57.5405  -13.8845   25.8560 C.3       3 GLC5        0.0000 
     26 CA         55.9560  -13.1000   24.5320 C.3       6 GLP5        0.0000 
     27 CA         61.9535  -11.5725   26.2475 C.3       3 GLC5        0.0000 
     28 CA         61.2460  -12.9390   27.8040 C.3       9 GLL5        0.0000 
     29 CA         62.6610  -10.2060   24.6910 C.3       6 GLP5        0.0000 
     30 CA         60.4830  -12.6935   25.9775 C.3       3 GLC5        0.0000 
     31 CA         62.4605  -11.8800   30.9915 C.3       3 GLC5        0.0000 
     32 CA         61.2290  -13.4990   30.2820 C.3       9 GLL5        0.0000 
     33 CA         63.6920  -10.2610   31.7010 C.3       6 GLP5        0.0000 
     34 CA         63.4230  -13.6260   30.1015 C.3       3 GLC5        0.0000 
     35 CA         65.6170  -13.7530   29.9210 C.3       6 GLP5        0.0000 
     36 N          61.3695  -10.8425   30.5205 N.am      2 SEC2        0.0000 
     37 N          60.8790  -12.2080   30.7910 N.am      8 SEL2        0.0000 
     38 N          61.8600   -9.4770   30.2500 N.am      5 SEP2        0.0000 
     39 CA         59.4160  -13.0595   34.4655 C.3       3 GLC5        0.0000 
     40 CA         60.5980  -13.8750   33.5700 C.3       9 GLL5        0.0000 
     41 CA         58.2340  -12.2440   35.3610 C.3       6 GLP5        0.0000 
     42 CA         60.1220  -12.8435   35.6200 C.3       3 GLC5        0.0000 
     43 CA         61.1510  -13.7850   34.8440 C.3       9 GLL5        0.0000 
     44 CA         59.0930  -11.9020   36.3960 C.3       6 GLP5        0.0000 
     45 CA         59.1600  -14.2760   35.5410 C.3       3 GLC5        0.0000 
     46 CA         60.7810  -14.9830   35.7200 C.3       9 GLL5        0.0000 
     47 CA         57.5390  -13.5690   35.3620 C.3       6 GLP5        0.0000 
     48 CA         59.9925  -13.2695   36.8015 C.3       3 GLC5        0.0000 
     49 CA         60.8920  -14.6370   37.2070 C.3       9 GLL5        0.0000 
     50 O          63.6705  -18.2705   34.6515 O.2       1 ALC1        0.0000 
     51 O          62.1140  -18.3770   34.5210 O.2       7 ALL1        0.0000 
     52 O          65.2270  -18.1640   34.7820 O.2       4 ALP1        0.0000 
     53 CA         55.5625  -17.2495   30.0680 C.3       3 GLC5        0.0000 
     54 CA         56.4090  -17.1320   31.8210 C.3       9 GLL5        0.0000 
     55 CA         54.7160  -17.3670   28.3150 C.3       6 GLP5        0.0000 
     56 CA         57.7995  -13.1867   28.0108 C.3       3 GLC5        0.0000 
     57 CA         59.5270  -14.6220   28.6550 C.3       9 GLL5        0.0000 
     58 CA         56.2730  -11.7280   28.1040 C.3       6 GLP5        0.0000 
     59 CA         60.4618  -11.4473   27.9710 C.3       3 GLC5        0.0000 
     60 CA         60.6830  -13.6440   28.8620 C.3       9 GLL5        0.0000 
     61 CA         59.9590   -9.6030   27.6090 C.3       6 GLP5        0.0000 
     62 CA         62.8942  -13.8053   27.9630 C.3       3 GLC5        0.0000 
     63 CA         59.2500  -16.1275   23.8545 C.3       3 GLC5        0.0000 
     64 CA         59.5470  -17.7750   25.4800 C.3       9 GLL5        0.0000 
     65 CA         59.4930  -14.4370   22.6660 C.3       6 GLP5        0.0000 
     66 CA         56.1582  -17.9550   27.5855 C.3       3 GLC5        0.0000 
     67 CA         57.0610  -18.5850   26.4200 C.3       9 GLL5        0.0000 
     68 CA         62.1355  -12.7315   33.9305 C.3       3 GLC5        0.0000 
     69 CA         63.2330  -11.4710   33.9140 C.3       6 GLP5        0.0000 
     70 CA         62.4952  -15.4815   37.3933 C.3       3 GLC5        0.0000 
     71 CA         64.1540  -16.1530   38.3230 C.3       6 GLP5        0.0000 
     72 CA         60.7324  -18.8060   31.7016 C.3       3 GLC5        0.0000 
     73 CA         59.9970  -17.0360   31.3870 C.3       9 GLL5        0.0000 
     74 CA         61.2010  -20.4630   31.1420 C.3       6 GLP5        0.0000 
@<TRIPOS>BOND
@<TRIPOS>SUBSTRUCTURE
     1 ALC1       17 GROUP        1 X    ALC  0     ROOT ALC X 1
     2 SEC2        6 GROUP        1 X    SEC  0     **** SEC X 2
     3 GLC5        1 GROUP        1 X    GLC  0     **** GLC X 6
     4 ALP1       19 GROUP        1 Y    ALP  0     ROOT ALP Y 8
     5 SEP2        8 GROUP        1 Y    SEP  0     **** SEP Y 9
     6 GLP5        3 GROUP        1 Y    GLP  0     **** GLP Y 13
     7 ALL1       18 GROUP        1 Z    ALL  0     ROOT ALL Z 15
     8 SEL2        7 GROUP        1 Z    SEL  0     **** SEL Z 16
     9 GLL5        2 GROUP        1 Z    GLL  0     **** GLL Z 20
@<TRIPOS>SET

