#    Name: 3eku_CY9_1_ligand
#    Modification time : Tue Mar 25 02:02:22 2014

@<TRIPOS>MOLECULE
3eku_CY9_1_ligand
   72    75     1     0     0
SMALL
NO_CHARGES


@<TRIPOS>ATOM
      1 C1         62.1080  -16.3140   30.1990 C.2       1 CY9903      0.0000 
      2 C5         59.5270  -14.6220   28.6550 C.3       1 CY9903      0.0000 
      3 C4         59.9660  -16.0040   29.1460 C.3       1 CY9903      0.0000 
      4 C3         61.0040  -16.6160   28.2030 C.3       1 CY9903      0.0000 
      5 O1         63.0280  -16.2350   31.0190 O.2       1 CY9903      0.0000 
      6 C6         60.6830  -13.6440   28.8620 C.2       1 CY9903      0.0000 
      7 C25        59.5470  -17.7750   25.4800 C.ar      1 CY9903      0.0000 
      8 C26        58.4670  -17.8610   24.6060 C.ar      1 CY9903      0.0000 
      9 C27        57.2230  -18.2660   25.0770 C.ar      1 CY9903      0.0000 
     10 C28        57.0610  -18.5850   26.4200 C.ar      1 CY9903      0.0000 
     11 C29        58.1400  -18.5010   27.2920 C.ar      1 CY9903      0.0000 
     12 C24        59.3850  -18.0960   26.8230 C.ar      1 CY9903      0.0000 
     13 C10        60.5840  -18.0230   27.7730 C.3       1 CY9903      0.0000 
     14 N2         62.2820  -16.6670   28.9310 N.am      1 CY9903      0.0000 
     15 C9         60.6560  -15.9630   30.5140 C.3       1 CY9903      0.0000 
     16 C11        59.1250  -14.6690   27.1800 C.3       1 CY9903      0.0000 
     17 C12        61.2460  -12.9390   27.8040 C.2       1 CY9903      0.0000 
     18 C7         61.2290  -13.4990   30.2820 C.3       1 CY9903      0.0000 
     19 O7         60.8790  -12.2080   30.7910 O.3       1 CY9903      0.0000 
     20 C8         60.5770  -14.5720   31.1560 C.3       1 CY9903      0.0000 
     21 C13        61.2520  -14.5230   32.5300 C.2       1 CY9903      0.0000 
     22 C14        60.5980  -13.8750   33.5700 C.2       1 CY9903      0.0000 
     23 C15        61.1510  -13.7850   34.8440 C.3       1 CY9903      0.0000 
     24 C16        60.7810  -14.9830   35.7200 C.3       1 CY9903      0.0000 
     25 C22        60.8920  -14.6370   37.2070 C.3       1 CY9903      0.0000 
     26 C17        61.6890  -16.1710   35.3930 C.2       1 CY9903      0.0000 
     27 O17        62.9080  -16.0790   35.5360 O.2       1 CY9903      0.0000 
     28 C18        61.0670  -17.4740   34.8860 C.3       1 CY9903      0.0000 
     29 O18        62.1140  -18.3770   34.5210 O.3       1 CY9903      0.0000 
     30 C23        60.1950  -18.0820   35.9870 C.3       1 CY9903      0.0000 
     31 C19        60.2810  -17.1760   33.7790 C.2       1 CY9903      0.0000 
     32 C20        60.7800  -17.3480   32.4920 C.2       1 CY9903      0.0000 
     33 C21        59.9970  -17.0360   31.3870 C.3       1 CY9903      0.0000 
     34 O21        58.7110  -16.5460   31.7940 O.3       1 CY9903      0.0000 
     35 C30        57.7320  -17.4590   31.5540 C.2       1 CY9903      0.0000 
     36 C31        56.4090  -17.1320   31.8210 C.3       1 CY9903      0.0000 
     37 O30        58.0140  -18.5600   31.0780 O.2       1 CY9903      0.0000 
     38 H          58.6900  -14.2961   29.2423 H         1 CY9903      0.0000 
     39 H          59.1315  -16.6666   29.2015 H         1 CY9903      0.0000 
     40 H          61.0921  -15.9917   27.3403 H         1 CY9903      0.0000 
     41 H          60.4666  -17.4732   25.1307 H         1 CY9903      0.0000 
     42 H          58.5897  -17.6251   23.6132 H         1 CY9903      0.0000 
     43 H          56.4247  -18.3293   24.4328 H         1 CY9903      0.0000 
     44 H          56.1401  -18.8841   26.7695 H         1 CY9903      0.0000 
     45 H          58.0180  -18.7386   28.2856 H         1 CY9903      0.0000 
     46 H          60.3548  -18.6189   28.6802 H         1 CY9903      0.0000 
     47 H          61.4499  -18.5211   27.2905 H         1 CY9903      0.0000 
     48 H          63.0895  -16.9301   28.4791 H         1 CY9903      0.0000 
     49 H          62.2774  -13.6588   30.2668 H         1 CY9903      0.0000 
     50 H          59.5320  -14.3022   31.2886 H         1 CY9903      0.0000 
     51 H          62.1416  -14.9660   32.6103 H         1 CY9903      0.0000 
     52 H          59.6666  -13.4435   33.3925 H         1 CY9903      0.0000 
     53 H          60.8176  -12.8744   35.3861 H         1 CY9903      0.0000 
     54 H          62.2605  -13.7336   34.8205 H         1 CY9903      0.0000 
     55 H          59.7600  -15.2668   35.5064 H         1 CY9903      0.0000 
     56 H          59.3201  -16.8245   33.9124 H         1 CY9903      0.0000 
     57 H          61.7363  -17.7091   32.3576 H         1 CY9903      0.0000 
     58 H          59.8546  -17.9095   30.7393 H         1 CY9903      0.0000 
     59 H          59.8807  -14.9702   26.5985 H         1 CY9903      0.0000 
     60 H          58.3646  -15.2990   27.0222 H         1 CY9903      0.0000 
     61 H          58.8368  -13.7720   26.8448 H         1 CY9903      0.0000 
     62 H          61.8207  -14.3624   37.4561 H         1 CY9903      0.0000 
     63 H          60.2858  -13.8827   37.4590 H         1 CY9903      0.0000 
     64 H          60.6502  -15.4140   37.7882 H         1 CY9903      0.0000 
     65 H          60.7247  -18.2854   36.8104 H         1 CY9903      0.0000 
     66 H          59.4562  -17.4653   36.2587 H         1 CY9903      0.0000 
     67 H          59.7693  -18.9379   35.6934 H         1 CY9903      0.0000 
     68 H          56.2691  -16.9084   32.7856 H         1 CY9903      0.0000 
     69 H          56.1077  -16.3401   31.2899 H         1 CY9903      0.0000 
     70 H          55.7888  -17.8851   31.6017 H         1 CY9903      0.0000 
     71 H          59.8955  -12.2566   30.9655 H         1 CY9903      0.0000 
     72 H          62.9611  -17.8955   34.7461 H         1 CY9903      0.0000 
@<TRIPOS>BOND
     1    5    1 2    
     2   14    1 am   
     3   15    1 1    
     4    3    2 1    
     5    6    2 1    
     6   16    2 1    
     7   38    2 1    
     8    4    3 1    
     9   15    3 1    
    10   39    3 1    
    11   13    4 1    
    12   14    4 1    
    13   40    4 1    
    14   17    6 2    
    15   18    6 1    
    16    8    7 ar   
    17   12    7 ar   
    18   41    7 1    
    19    9    8 ar   
    20   42    8 1    
    21   10    9 ar   
    22   43    9 1    
    23   11   10 ar   
    24   44   10 1    
    25   12   11 ar   
    26   45   11 1    
    27   13   12 1    
    28   46   13 1    
    29   47   13 1    
    30   48   14 1    
    31   20   15 1    
    32   33   15 1    
    33   59   16 1    
    34   60   16 1    
    35   61   16 1    
    36   19   18 1    
    37   20   18 1    
    38   49   18 1    
    39   71   19 1    
    40   21   20 1    
    41   50   20 1    
    42   22   21 2    
    43   51   21 1    
    44   23   22 1    
    45   52   22 1    
    46   24   23 1    
    47   53   23 1    
    48   54   23 1    
    49   25   24 1    
    50   26   24 1    
    51   55   24 1    
    52   62   25 1    
    53   63   25 1    
    54   64   25 1    
    55   27   26 2    
    56   28   26 1    
    57   29   28 1    
    58   30   28 1    
    59   31   28 1    
    60   72   29 1    
    61   65   30 1    
    62   66   30 1    
    63   67   30 1    
    64   32   31 2    
    65   56   31 1    
    66   33   32 1    
    67   57   32 1    
    68   34   33 1    
    69   58   33 1    
    70   35   34 1    
    71   36   35 1    
    72   37   35 2    
    73   68   36 1    
    74   69   36 1    
    75   70   36 1    
@<TRIPOS>SUBSTRUCTURE
     1 CY9903      1 GROUP   
@<TRIPOS>SET

