#    Name: 3VBD_1_CAVITY_N1_6.mol2
#    Modification time : Tue Mar 11 10:35:09 2014

@<TRIPOS>MOLECULE
3VBD_1_CAVITY_N1_6.mol2
   91     0     6     0     0
SMALL
NO_CHARGES


@<TRIPOS>ATOM
      1 CA         -1.9434    7.1948   14.4561 C.3       5 GLY6        0.0000 
      2 CA         -0.6582    5.9495   13.3170 C.3       5 GLY6        0.0000 
      3 DU         -1.9164    6.7158   13.0349 H         6 CUB7        0.0000 
      4 CZ         -4.4330    8.2484   12.4707 C.ar      4 PHE5        0.0000 
      5 N           0.6270    4.7043   12.1779 N.2       2 ALA2        0.0000 
      6 N          -0.6312    5.4705   11.8958 N.2       2 ALA2        0.0000 
      7 DU         -3.1477    7.0031   11.3316 H         6 CUB7        0.0000 
      8 CZ         -5.6643    8.5357   10.7673 C.ar      4 PHE5        0.0000 
      9 N           0.6540    4.2253   10.7567 N.2       2 ALA2        0.0000 
     10 DU         -0.6043    4.9916   10.4746 H         6 CUB7        0.0000 
     11 DU          0.6809    3.7463    9.3354 H         6 CUB7        0.0000 
     12 DU         -0.5773    4.5126    9.0533 H         6 CUB7        0.0000 
     13 CA         -1.5013    5.2312   15.1262 C.3       5 GLY6        0.0000 
     14 CA         -2.7595    5.9975   14.8441 C.3       5 GLY6        0.0000 
     15 CZ         -4.0178    6.7638   14.5620 C.ar      4 PHE5        0.0000 
     16 N          -1.4743    4.7523   13.7050 N.2       2 ALA2        0.0000 
     17 DU         -2.7326    5.5185   13.4229 H         6 CUB7        0.0000 
     18 CZ         -3.9908    6.2848   13.1408 C.ar      4 PHE5        0.0000 
     19 CZ         -5.2491    7.0511   12.8587 C.ar      4 PHE5        0.0000 
     20 CZ         -6.5073    7.8174   12.5766 C.ar      4 PHE5        0.0000 
     21 OG         -1.4474    4.2733   12.2838 O.2       1 SER1        0.0000 
     22 DU         -2.7056    5.0396   12.0017 H         6 CUB7        0.0000 
     23 DU         -3.9639    5.8059   11.7196 H         6 CUB7        0.0000 
     24 O          -5.2221    6.5722   11.4374 O.2       2 ALA2        0.0000 
     25 O          -6.4804    7.3385   11.1553 O.2       2 ALA2        0.0000 
     26 N          -0.1621    3.0281   11.1447 N.2       2 ALA2        0.0000 
     27 DU         -1.4204    3.7943   10.8626 H         6 CUB7        0.0000 
     28 DU         -2.6787    4.5606   10.5804 H         6 CUB7        0.0000 
     29 O          -3.9369    5.3269   10.2983 O.2       2 ALA2        0.0000 
     30 O          -5.1952    6.0932   10.0162 O.2       2 ALA2        0.0000 
     31 CA         -0.1352    2.5491    9.7234 C.3       5 GLY6        0.0000 
     32 O          -1.3934    3.3154    9.4413 O.2       2 ALA2        0.0000 
     33 O          -2.6517    4.0817    9.1592 O.2       2 ALA2        0.0000 
     34 O          -3.9100    4.8480    8.8771 O.2       2 ALA2        0.0000 
     35 O          -5.1682    5.6143    8.5950 O.2       2 ALA2        0.0000 
     36 O          -1.3665    2.8364    8.0201 O.2       2 ALA2        0.0000 
     37 O          -3.8830    4.3690    7.4559 O.2       2 ALA2        0.0000 
     38 CA         -2.3174    4.0340   15.5142 C.3       5 GLY6        0.0000 
     39 CA         -3.5757    4.8003   15.2321 C.3       5 GLY6        0.0000 
     40 CA         -4.8339    5.5665   14.9500 C.3       5 GLY6        0.0000 
     41 CZ         -6.0922    6.3328   14.6679 C.ar      4 PHE5        0.0000 
     42 OG         -2.2904    3.5550   14.0930 O.2       1 SER1        0.0000 
     43 OG         -3.5487    4.3213   13.8109 O.2       1 SER1        0.0000 
     44 O          -4.8070    5.0876   13.5288 O.2       2 ALA2        0.0000 
     45 O          -6.0652    5.8539   13.2467 O.2       2 ALA2        0.0000 
     46 O          -7.3235    6.6202   12.9646 O.2       2 ALA2        0.0000 
     47 OG         -2.2635    3.0761   12.6718 O.2       1 SER1        0.0000 
     48 OG         -3.5217    3.8423   12.3897 O.2       1 SER1        0.0000 
     49 O          -4.7800    4.6086   12.1076 O.2       2 ALA2        0.0000 
     50 OG         -0.9783    1.8308   11.5327 O.2       1 SER1        0.0000 
     51 OG         -2.2365    2.5971   11.2505 O.2       1 SER1        0.0000 
     52 DU         -3.4948    3.3634   10.9684 H         6 CUB7        0.0000 
     53 O          -4.7530    4.1297   10.6863 O.2       2 ALA2        0.0000 
     54 CA         -0.9513    1.3518   10.1114 C.3       5 GLY6        0.0000 
     55 O          -2.2096    2.1181    9.8293 O.2       2 ALA2        0.0000 
     56 O          -3.4678    2.8844    9.5472 O.2       2 ALA2        0.0000 
     57 OG         -3.1335    2.8367   15.9022 O.2       1 SER1        0.0000 
     58 CA         -4.3918    3.6030   15.6201 C.3       5 GLY6        0.0000 
     59 CA         -5.6500    4.3693   15.3380 C.3       5 GLY6        0.0000 
     60 CA         -6.9083    5.1356   15.0559 C.3       5 GLY6        0.0000 
     61 OG         -4.3648    3.1241   14.1989 O.2       1 SER1        0.0000 
     62 O          -5.6231    3.8903   13.9168 O.2       2 ALA2        0.0000 
     63 OG         -4.3379    2.6451   12.7777 O.2       1 SER1        0.0000 
     64 OG         -1.7944    0.6336   11.9207 O.2       1 SER1        0.0000 
     65 OG         -3.0526    1.3998   11.6385 O.2       1 SER1        0.0000 
     66 O          -4.3109    2.1661   11.3564 O.2       2 ALA2        0.0000 
     67 CA         -1.7674    0.1546   10.4994 C.3       5 GLY6        0.0000 
     68 O          -3.0257    0.9209   10.2173 O.2       2 ALA2        0.0000 
     69 O          -4.2839    1.6872    9.9352 O.2       2 ALA2        0.0000 
     70 CA         -6.4931    3.6510   17.1472 C.3       5 GLY6        0.0000 
     71 O          -3.9496    1.6395   16.2902 O.2       2 ALA2        0.0000 
     72 CA         -5.2079    2.4058   16.0081 C.3       5 GLY6        0.0000 
     73 CA         -6.4662    3.1721   15.7260 C.3       5 GLY6        0.0000 
     74 OG         -3.9227    1.1605   14.8690 O.2       1 SER1        0.0000 
     75 N          -5.1809    1.9268   14.5869 N.2       2 ALA2        0.0000 
     76 O          -6.4392    2.6931   14.3048 O.2       2 ALA2        0.0000 
     77 OG         -3.8957    0.6816   13.4478 O.2       1 SER1        0.0000 
     78 N          -5.1540    1.4478   13.1657 N.2       2 ALA2        0.0000 
     79 CA         -3.8688    0.2026   12.0265 C.3       5 GLY6        0.0000 
     80 O          -5.1270    0.9689   11.7444 O.2       2 ALA2        0.0000 
     81 CA         -2.5836   -1.0426   10.8874 C.3       5 GLY6        0.0000 
     82 CA         -3.8418   -0.2764   10.6053 C.3       5 GLY6        0.0000 
     83 N          -5.1001    0.4899   10.3232 N.2       2 ALA2        0.0000 
     84 CA         -6.0510    1.6875   17.8173 C.3       5 GLY6        0.0000 
     85 CA         -7.3092    2.4538   17.5352 C.3       5 GLY6        0.0000 
     86 OD1        -6.0240    1.2085   16.3961 O.3       3 ASP3        0.0000 
     87 CA         -7.2823    1.9748   16.1140 C.3       5 GLY6        0.0000 
     88 CA         -3.4266   -1.7609   12.6967 C.3       5 GLY6        0.0000 
     89 N          -4.6849   -0.9946   12.4145 N.2       2 ALA2        0.0000 
     90 CA         -3.3997   -2.2399   11.2754 C.3       5 GLY6        0.0000 
     91 CA         -4.6579   -1.4736   10.9933 C.3       5 GLY6        0.0000 
@<TRIPOS>BOND
@<TRIPOS>SUBSTRUCTURE
     1 SER1       21 GROUP   
     2 ALA2        5 GROUP   
     3 ASP3       86 GROUP   
     4 PHE5        4 GROUP   
     5 GLY6        1 GROUP   
     6 CUB7        3 GROUP   
@<TRIPOS>SET

