#    Name: 3vbd_0FZ_1_INTS_M
#    Modification time : Tue Mar 25 00:27:32 2014

@<TRIPOS>MOLECULE
3vbd_0FZ_1_INTS_M
   34     0    12     0     0
SMALL
NO_CHARGES


@<TRIPOS>ATOM
      1 CA         -7.7640   10.6350   10.7575 C.3       4 GLC5        0.0000 
      2 CA         -5.8180   10.5810   10.2290 C.3      12 GLL5        0.0000 
      3 CA         -9.7100   10.6890   11.2860 C.3       8 GLP5        0.0000 
      4 CA         -5.8045   10.8745   12.0860 C.3       4 GLC5        0.0000 
      5 CA         -5.7910   11.1680   13.9430 C.3       8 GLP5        0.0000 
      6 CA         -3.7950    8.9010   13.2185 C.3       4 GLC5        0.0000 
      7 CA         -2.4530    7.8110   12.2330 C.3      12 GLL5        0.0000 
      8 CA         -5.1370    9.9910   14.2040 C.3       8 GLP5        0.0000 
      9 CA         -0.0685    6.1870   13.8270 C.3       4 GLC5        0.0000 
     10 CA         -1.7260    6.4630   12.4300 C.3      12 GLL5        0.0000 
     11 CA          1.5890    5.9110   15.2240 C.3       8 GLP5        0.0000 
     12 N          -3.9765    0.6685   18.3665 N.am      2 SEC2        0.0000 
     13 N          -5.2410    1.1410   17.9210 N.am     10 SEL2        0.0000 
     14 N          -2.7120    0.1960   18.8120 N.am      6 SEP2        0.0000 
     15 O          -4.4760   -1.3745   16.7965 O.2       1 ALC1        0.0000 
     16 O          -5.3480   -0.5110   16.1290 O.2       9 ALL1        0.0000 
     17 O          -3.6040   -2.2380   17.4640 O.2       5 ALP1        0.0000 
     18 Zn         -5.9880   -1.0890   15.7030 Zn        3 ZIC7        0.0000 
     19 Zn         -5.3480   -0.5110   16.1290 Zn       11 ZIL7        0.0000 
     20 Zn         -6.6280   -1.6670   15.2770 Zn        7 ZIP7        0.0000 
     21 CA         -7.9053    5.9603   11.2150 C.3       4 GLC5        0.0000 
     22 CA         -5.7310    6.2650   11.8900 C.3      12 GLL5        0.0000 
     23 CA         -9.7050    5.1940   10.8750 C.3       8 GLP5        0.0000 
     24 CA         -4.5825    4.5705   16.1335 C.3       4 GLC5        0.0000 
     25 CA         -5.5720    4.3050   14.4440 C.3      12 GLL5        0.0000 
     26 CA         -4.2480    4.7840   18.0480 C.3       8 GLP5        0.0000 
     27 CA         -7.7630    3.5590   14.8347 C.3       4 GLC5        0.0000 
     28 CA         -9.7170    3.3520   14.8610 C.3       8 GLP5        0.0000 
     29 CA         -4.9403    3.7420   16.7022 C.3       4 GLC5        0.0000 
     30 CA         -6.0460    3.2270   15.1730 C.3      12 GLL5        0.0000 
     31 CA         -3.9533    3.7807   16.3822 C.3       4 GLC5        0.0000 
     32 CA         -3.8900    2.2270   15.0920 C.3      12 GLL5        0.0000 
     33 CA         -2.0497    1.4552   14.5613 C.3       4 GLC5        0.0000 
     34 CA         -0.4410    0.1330   14.4060 C.3       8 GLP5        0.0000 
@<TRIPOS>BOND
@<TRIPOS>SUBSTRUCTURE
     1 ALC1       15 GROUP        1 X    ALC  0     ROOT ALC X 1
     2 SEC2       12 GROUP        1 X    SEC  0     **** SEC X 2
     3 ZIC7       18 GROUP        1 X    ZIC  0     **** ZIC X 5
     4 GLC5        1 GROUP        1 X    GLC  0     **** GLC X 6
     5 ALP1       17 GROUP        1 Y    ALP  0     ROOT ALP Y 8
     6 SEP2       14 GROUP        1 Y    SEP  0     **** SEP Y 9
     7 ZIP7       20 GROUP        1 Y    ZIP  0     **** ZIP Y 12
     8 GLP5        3 GROUP        1 Y    GLP  0     **** GLP Y 13
     9 ALL1       16 GROUP        1 Z    ALL  0     ROOT ALL Z 15
    10 SEL2       13 GROUP        1 Z    SEL  0     **** SEL Z 16
    11 ZIL7       19 GROUP        1 Z    ZIL  0     **** ZIL Z 19
    12 GLL5        2 GROUP        1 Z    GLL  0     **** GLL Z 20
@<TRIPOS>SET

