#    Name: 3vbd_0FZ_1_ligand
#    Modification time : Tue Mar 25 00:27:32 2014

@<TRIPOS>MOLECULE
3vbd_0FZ_1_ligand
   37    39     1     0     0
SMALL
NO_CHARGES


@<TRIPOS>ATOM
      1 CAB        -5.8180   10.5810   10.2290 C.3       1 0FZ2002     0.0000 
      2 OAR        -6.5820    9.3930   10.4320 O.3       1 0FZ2002     0.0000 
      3 CAX        -5.8440    8.3990   10.9560 C.ar      1 0FZ2002     0.0000 
      4 CAM        -4.5190    8.5380   11.3120 C.ar      1 0FZ2002     0.0000 
      5 CAW        -6.4800    7.1880   11.2200 C.ar      1 0FZ2002     0.0000 
      6 CAL        -5.7310    6.2650   11.8900 C.ar      1 0FZ2002     0.0000 
      7 CAG        -4.4280    6.3610   12.3770 C.ar      1 0FZ2002     0.0000 
      8 CAT        -3.8000    7.5610   11.9970 C.ar      1 0FZ2002     0.0000 
      9 CAO        -2.4530    7.8110   12.2330 C.3       1 0FZ2002     0.0000 
     10 CAN        -1.7260    6.4630   12.4300 C.3       1 0FZ2002     0.0000 
     11 NAP        -2.4570    5.7340   13.5120 N.2       1 0FZ2002     0.0000 
     12 CAS        -3.7850    5.4880   13.2610 C.2       1 0FZ2002     0.0000 
     13 CAU        -4.2620    4.4090   13.9940 C.ar      1 0FZ2002     0.0000 
     14 CAI        -5.5720    4.3050   14.4440 C.ar      1 0FZ2002     0.0000 
     15 CAK        -6.0460    3.2270   15.1730 C.ar      1 0FZ2002     0.0000 
     16 CAH        -3.4270    3.3280   14.3410 C.ar      1 0FZ2002     0.0000 
     17 CAJ        -3.8900    2.2270   15.0920 C.ar      1 0FZ2002     0.0000 
     18 CAV        -5.2190    2.1730   15.5400 C.ar      1 0FZ2002     0.0000 
     19 SAY        -5.8070    0.8320   16.5930 S.o2      1 0FZ2002     0.0000 
     20 OAE        -5.2410    1.1410   17.9210 O.2       1 0FZ2002     0.0000 
     21 OAF        -7.3180    1.0140   16.5570 O.2       1 0FZ2002     0.0000 
     22 NAC        -5.3480   -0.5110   16.1290 N.pl3     1 0FZ2002     0.0000 
     23 H          -4.0180    9.4295   11.0545 H         1 0FZ2002     0.0000 
     24 H          -7.4241    7.0200   10.9315 H         1 0FZ2002     0.0000 
     25 H          -6.2188    5.2968   12.0794 H         1 0FZ2002     0.0000 
     26 H          -2.2782    8.4012   13.1393 H         1 0FZ2002     0.0000 
     27 H          -1.9580    8.3194   11.3983 H         1 0FZ2002     0.0000 
     28 H          -0.7116    6.6584   12.7229 H         1 0FZ2002     0.0000 
     29 H          -1.7651    5.9128   11.5088 H         1 0FZ2002     0.0000 
     30 H          -6.2394    5.0888   14.2179 H         1 0FZ2002     0.0000 
     31 H          -7.0486    3.2044   15.4543 H         1 0FZ2002     0.0000 
     32 H          -2.4352    3.3417   14.0332 H         1 0FZ2002     0.0000 
     33 H          -3.2447    1.4579   15.3117 H         1 0FZ2002     0.0000 
     34 H          -4.7681   -1.0214   16.7640 H         1 0FZ2002     0.0000 
     35 H          -5.4328   10.9256   11.0850 H         1 0FZ2002     0.0000 
     36 H          -5.0527   10.4281    9.6038 H         1 0FZ2002     0.0000 
     37 H          -6.3720   11.3169    9.8397 H         1 0FZ2002     0.0000 
@<TRIPOS>BOND
     1    2    1 1    
     2   35    1 1    
     3   36    1 1    
     4   37    1 1    
     5    3    2 1    
     6    4    3 ar   
     7    5    3 ar   
     8    8    4 ar   
     9   23    4 1    
    10    6    5 ar   
    11   24    5 1    
    12    7    6 ar   
    13   25    6 1    
    14    8    7 ar   
    15   12    7 1    
    16    9    8 1    
    17   10    9 1    
    18   26    9 1    
    19   27    9 1    
    20   11   10 1    
    21   28   10 1    
    22   29   10 1    
    23   12   11 2    
    24   13   12 1    
    25   14   13 ar   
    26   16   13 ar   
    27   15   14 ar   
    28   30   14 1    
    29   18   15 ar   
    30   31   15 1    
    31   17   16 ar   
    32   32   16 1    
    33   18   17 ar   
    34   33   17 1    
    35   19   18 1    
    36   20   19 2    
    37   21   19 2    
    38   22   19 1    
    39   34   22 1    
@<TRIPOS>SUBSTRUCTURE
     1 0FZ2002     1 GROUP   
@<TRIPOS>SET

