#    Name: 2hs4_ACP_1_INTS_M
#    Modification time : Tue Mar 25 16:59:23 2014

@<TRIPOS>MOLECULE
2hs4_ACP_1_INTS_M
   31     0    12     0     0
SMALL
NO_CHARGES


@<TRIPOS>ATOM
      1 NZ         30.1650  -32.9200  132.0075 N.4       3 LYC4        0.0000 
      2 NZ         29.2630  -32.4750  130.3880 N.4      11 LYL4        0.0000 
      3 NZ         31.0670  -33.3650  133.6270 N.4       7 LYP4        0.0000 
      4 N          26.0605  -30.3715  132.4805 N.am      2 SEC2        0.0000 
      5 N          26.6280  -30.7900  131.2400 N.am     10 SEL2        0.0000 
      6 N          25.4930  -29.9530  133.7210 N.am      6 SEP2        0.0000 
      7 CA         27.0510  -26.6095  137.6655 C.3       4 GLC5        0.0000 
      8 CA         28.0420  -28.0930  137.9250 C.3      12 GLL5        0.0000 
      9 CA         26.0600  -25.1260  137.4060 C.3       8 GLP5        0.0000 
     10 CA         27.3160  -29.9215  137.4005 C.3       4 GLC5        0.0000 
     11 CA         26.5900  -31.7500  136.8760 C.3       8 GLP5        0.0000 
     12 CA         27.1300  -26.2705  139.0670 C.3       4 GLC5        0.0000 
     13 CA         27.9150  -28.0500  139.3860 C.3      12 GLL5        0.0000 
     14 CA         26.3450  -24.4910  138.7480 C.3       8 GLP5        0.0000 
     15 O          27.0385  -29.2055  141.2180 O.2       1 ALC1        0.0000 
     16 O          26.7380  -28.3480  140.0090 O.2       9 ALL1        0.0000 
     17 O          27.3390  -30.0630  142.4270 O.2       5 ALP1        0.0000 
     18 CA         29.4825  -25.5775  138.9915 C.3       4 GLC5        0.0000 
     19 CA         30.2190  -27.3970  139.6200 C.3      12 GLL5        0.0000 
     20 CA         28.7460  -23.7580  138.3630 C.3       8 GLP5        0.0000 
     21 CA         29.3690  -26.1695  141.1845 C.3       4 GLC5        0.0000 
     22 CA         28.5190  -24.9420  142.7490 C.3       8 GLP5        0.0000 
     23 CA         31.2290  -27.6210  141.1165 C.3       4 GLC5        0.0000 
     24 CA         32.2390  -27.8450  142.6130 C.3       8 GLP5        0.0000 
     25 CA         31.8115  -28.6650  139.2595 C.3       4 GLC5        0.0000 
     26 CA         33.4040  -29.9330  138.8990 C.3       8 GLP5        0.0000 
     27 CA         30.0280  -29.2690  139.1655 C.3       4 GLC5        0.0000 
     28 CA         29.8370  -31.1410  138.7110 C.3       8 GLP5        0.0000 
     29 CA         29.0450  -25.7590  137.9180 C.3       4 GLC5        0.0000 
     30 CA         29.3440  -27.7600  137.4730 C.3      12 GLL5        0.0000 
     31 CA         29.2491  -29.5284  138.3876 C.3       4 GLC5        0.0000 
@<TRIPOS>BOND
@<TRIPOS>SUBSTRUCTURE
     1 ALC1       15 GROUP        1 X    ALC  0     ROOT ALC X 1
     2 SEC2        4 GROUP        1 X    SEC  0     **** SEC X 2
     3 LYC4        1 GROUP        1 X    LYC  0     **** LYC X 4
     4 GLC5        7 GROUP        1 X    GLC  0     **** GLC X 6
     5 ALP1       17 GROUP        1 Y    ALP  0     ROOT ALP Y 8
     6 SEP2        6 GROUP        1 Y    SEP  0     **** SEP Y 9
     7 LYP4        3 GROUP        1 Y    LYP  0     **** LYP Y 11
     8 GLP5        9 GROUP        1 Y    GLP  0     **** GLP Y 13
     9 ALL1       16 GROUP        1 Z    ALL  0     ROOT ALL Z 15
    10 SEL2        5 GROUP        1 Z    SEL  0     **** SEL Z 16
    11 LYL4        2 GROUP        1 Z    LYL  0     **** LYL Z 18
    12 GLL5        8 GROUP        1 Z    GLL  0     **** GLL Z 20
@<TRIPOS>SET

