#    Name: 2hs4_ACP_1_ligand
#    Modification time : Tue Mar 25 16:59:23 2014

@<TRIPOS>MOLECULE
2hs4_ACP_1_ligand
   45    47     1     0     0
SMALL
NO_CHARGES


@<TRIPOS>ATOM
      1 PG         27.8270  -32.8610  127.4150 P.3       1 ACP900      0.0000 
      2 O1G        26.6730  -31.8850  127.5420 O.co2     1 ACP900      0.0000 
      3 O2G        27.5750  -34.0580  128.2620 O.co2     1 ACP900      0.0000 
      4 O3G        28.1430  -33.1990  125.9590 O.co2     1 ACP900      0.0000 
      5 PB         29.4990  -31.5420  129.2850 P.3       1 ACP900      0.0000 
      6 O1B        30.8850  -30.9880  129.3320 O.co2     1 ACP900      0.0000 
      7 O2B        29.2630  -32.4750  130.3880 O.co2     1 ACP900      0.0000 
      8 C3B        29.3630  -32.1330  127.7700 C.3       1 ACP900      0.0000 
      9 PA         27.5370  -29.6660  130.7820 P.3       1 ACP900      0.0000 
     10 O1A        26.6280  -30.7900  131.2400 O.co2     1 ACP900      0.0000 
     11 O2A        26.8130  -28.4860  130.2130 O.co2     1 ACP900      0.0000 
     12 O3A        28.5660  -30.2320  129.6830 O.3       1 ACP900      0.0000 
     13 O5'        28.4920  -29.4800  132.0700 O.3       1 ACP900      0.0000 
     14 C5'        29.4710  -28.4260  131.9270 C.3       1 ACP900      0.0000 
     15 C4'        30.5580  -27.9350  132.9450 C.3       1 ACP900      0.0000 
     16 O4'        29.9960  -27.1320  133.9440 O.3       1 ACP900      0.0000 
     17 C3'        31.0010  -29.2010  133.5830 C.3       1 ACP900      0.0000 
     18 O3'        32.0070  -29.8060  132.8140 O.3       1 ACP900      0.0000 
     19 C2'        31.3760  -28.7680  135.0150 C.3       1 ACP900      0.0000 
     20 O2'        32.7630  -28.5180  135.1200 O.3       1 ACP900      0.0000 
     21 C1'        30.4850  -27.6000  135.2080 C.3       1 ACP900      0.0000 
     22 N9         29.2910  -27.8590  136.1150 N.pl3     1 ACP900      0.0000 
     23 C8         28.0180  -28.2220  135.8530 C.2       1 ACP900      0.0000 
     24 N7         27.2180  -28.3780  136.9100 N.2       1 ACP900      0.0000 
     25 C5         28.0420  -28.0930  137.9250 C.ar      1 ACP900      0.0000 
     26 C6         27.9150  -28.0500  139.3860 C.ar      1 ACP900      0.0000 
     27 N6         26.7380  -28.3480  140.0090 N.pl3     1 ACP900      0.0000 
     28 N1         29.0050  -27.7030  140.1960 N.ar      1 ACP900      0.0000 
     29 C2         30.2190  -27.3970  139.6200 C.ar      1 ACP900      0.0000 
     30 N3         30.4350  -27.4140  138.2620 N.ar      1 ACP900      0.0000 
     31 C4         29.3440  -27.7600  137.4730 C.ar      1 ACP900      0.0000 
     32 H          29.4785  -31.3379  127.0587 H         1 ACP900      0.0000 
     33 H          30.0925  -32.9044  127.6147 H         1 ACP900      0.0000 
     34 H          28.9155  -27.4369  131.5953 H         1 ACP900      0.0000 
     35 H          30.0704  -28.6008  130.9234 H         1 ACP900      0.0000 
     36 H          31.3415  -27.5122  132.4087 H         1 ACP900      0.0000 
     37 H          30.1064  -29.8273  133.6763 H         1 ACP900      0.0000 
     38 H          31.0312  -29.5694  135.6555 H         1 ACP900      0.0000 
     39 H          31.0704  -26.7857  135.6765 H         1 ACP900      0.0000 
     40 H          27.6922  -28.3673  134.8977 H         1 ACP900      0.0000 
     41 H          26.8129  -28.7669  140.9139 H         1 ACP900      0.0000 
     42 H          25.9041  -28.1213  139.5059 H         1 ACP900      0.0000 
     43 H          31.0222  -27.1368  140.2537 H         1 ACP900      0.0000 
     44 H          31.7797  -29.5800  131.8667 H         1 ACP900      0.0000 
     45 H          33.1445  -28.8029  134.2406 H         1 ACP900      0.0000 
@<TRIPOS>BOND
     1    2    1 ar   
     2    3    1 ar   
     3    4    1 ar   
     4    8    1 1    
     5    6    5 ar   
     6    7    5 ar   
     7    8    5 1    
     8   12    5 1    
     9   32    8 1    
    10   33    8 1    
    11   10    9 ar   
    12   11    9 ar   
    13   12    9 1    
    14   13    9 1    
    15   14   13 1    
    16   15   14 1    
    17   34   14 1    
    18   35   14 1    
    19   16   15 1    
    20   17   15 1    
    21   36   15 1    
    22   21   16 1    
    23   18   17 1    
    24   19   17 1    
    25   37   17 1    
    26   44   18 1    
    27   20   19 1    
    28   21   19 1    
    29   38   19 1    
    30   45   20 1    
    31   22   21 1    
    32   39   21 1    
    33   23   22 1    
    34   31   22 1    
    35   24   23 2    
    36   40   23 1    
    37   25   24 1    
    38   26   25 ar   
    39   31   25 ar   
    40   27   26 1    
    41   28   26 ar   
    42   41   27 1    
    43   42   27 1    
    44   29   28 ar   
    45   30   29 ar   
    46   43   29 1    
    47   31   30 ar   
@<TRIPOS>SUBSTRUCTURE
     1 ACP900      1 GROUP   
@<TRIPOS>SET

