#    Name: 1KJX_1_CAVITY_N1_6.mol2
#    Modification time : Mon Mar 10 12:18:52 2014

@<TRIPOS>MOLECULE
1KJX_1_CAVITY_N1_6.mol2
   65     0     5     0     0
SMALL
NO_CHARGES


@<TRIPOS>ATOM
      1 NZ        -20.7314   58.6849   52.8235 N.2       3 LYS4        0.0000 
      2 CA        -21.1119   57.9989   54.1021 C.3       4 GLY6        0.0000 
      3 CA        -19.2877   56.9168   54.0644 C.3       4 GLY6        0.0000 
      4 OG        -20.2891   57.3712   52.2503 O.2       1 SER1        0.0000 
      5 OG        -20.6696   56.6852   53.5289 O.2       1 SER1        0.0000 
      6 CA        -21.0501   55.9993   54.8074 C.3       4 GLY6        0.0000 
      7 NZ        -21.6710   57.1396   51.7148 N.2       3 LYS4        0.0000 
      8 DU        -22.0515   56.4537   52.9934 H         5 CUB7        0.0000 
      9 DU        -22.4320   55.7677   54.2719 H         5 CUB7        0.0000 
     10 CA        -23.0529   56.9080   51.1793 C.3       4 GLY6        0.0000 
     11 OG        -18.8455   55.6031   53.4912 O.2       1 SER1        0.0000 
     12 CA        -19.2260   54.9172   54.7698 C.3       4 GLY6        0.0000 
     13 N         -19.6065   54.2312   56.0483 N.2       2 ALA2        0.0000 
     14 OG        -19.8468   56.0575   51.6771 O.2       1 SER1        0.0000 
     15 OG        -20.2273   55.3715   52.9557 O.2       1 SER1        0.0000 
     16 OG        -20.6079   54.6856   54.2342 O.2       1 SER1        0.0000 
     17 OG        -20.9884   53.9996   55.5128 O.2       1 SER1        0.0000 
     18 CA        -21.2287   55.8259   51.1416 C.3       4 GLY6        0.0000 
     19 CA        -21.6092   55.1399   52.4202 C.3       4 GLY6        0.0000 
     20 OG        -21.9897   54.4540   53.6987 O.2       1 SER1        0.0000 
     21 OG        -23.3716   54.2224   53.1632 O.2       1 SER1        0.0000 
     22 N         -12.4951   55.9017   53.7816 N.2       2 ALA2        0.0000 
     23 N         -13.8770   55.6701   53.2461 N.2       2 ALA2        0.0000 
     24 OG        -15.2589   55.4385   52.7105 O.2       1 SER1        0.0000 
     25 OG        -16.6408   55.2069   52.1750 O.2       1 SER1        0.0000 
     26 OG        -18.0226   54.9754   51.6395 O.2       1 SER1        0.0000 
     27 N         -18.4032   54.2894   52.9180 N.2       2 ALA2        0.0000 
     28 NZ        -19.0240   55.4297   49.8254 N.2       3 LYS4        0.0000 
     29 OG        -19.4045   54.7438   51.1040 O.2       1 SER1        0.0000 
     30 OG        -19.7850   54.0578   52.3825 O.2       1 SER1        0.0000 
     31 OG        -20.5461   52.6859   54.9396 O.2       1 SER1        0.0000 
     32 O         -11.2918   55.9599   50.6513 O.2       2 ALA2        0.0000 
     33 N         -11.6723   55.2739   51.9298 N.2       2 ALA2        0.0000 
     34 N         -12.0528   54.5880   53.2084 N.2       2 ALA2        0.0000 
     35 CA        -12.6737   55.7283   50.1158 C.3       4 GLY6        0.0000 
     36 N         -13.0542   55.0424   51.3943 N.2       2 ALA2        0.0000 
     37 DU        -13.4347   54.3564   52.6729 H         5 CUB7        0.0000 
     38 CA        -13.8152   53.6704   53.9514 C.3       4 GLY6        0.0000 
     39 O         -14.0556   55.4967   49.5803 O.2       2 ALA2        0.0000 
     40 CA        -14.4361   54.8108   50.8588 C.3       4 GLY6        0.0000 
     41 N         -14.8166   54.1248   52.1373 N.2       2 ALA2        0.0000 
     42 OG        -15.8180   54.5792   50.3233 O.2       1 SER1        0.0000 
     43 OG        -16.1985   53.8932   51.6018 O.2       1 SER1        0.0000 
     44 OG        -16.8193   55.0336   48.5092 O.2       1 SER1        0.0000 
     45 OG        -17.1998   54.3476   49.7878 O.2       1 SER1        0.0000 
     46 OG        -17.5804   53.6617   51.0663 O.2       1 SER1        0.0000 
     47 CA        -17.9609   52.9757   52.3448 C.3       4 GLY6        0.0000 
     48 CA        -18.5817   54.1160   49.2522 C.3       4 GLY6        0.0000 
     49 O         -18.9622   53.4301   50.5308 O.2       2 ALA2        0.0000 
     50 CA        -11.6106   53.2743   52.6352 C.3       4 GLY6        0.0000 
     51 CA        -12.2314   54.4146   49.5426 C.3       4 GLY6        0.0000 
     52 DU        -12.6119   53.7287   50.8211 H         5 CUB7        0.0000 
     53 CA        -12.9924   53.0427   52.0997 C.3       4 GLY6        0.0000 
     54 CA        -13.6133   54.1830   49.0071 C.3       4 GLY6        0.0000 
     55 OG        -13.9938   53.4971   50.2856 O.2       1 SER1        0.0000 
     56 OG        -14.3743   52.8111   51.5641 O.2       1 SER1        0.0000 
     57 OG        -14.9951   53.9514   48.4715 O.2       1 SER1        0.0000 
     58 OG        -15.3757   53.2655   49.7501 O.2       1 SER1        0.0000 
     59 OG        -16.7575   53.0339   49.2146 O.2       1 SER1        0.0000 
     60 CA        -11.7891   53.1009   48.9694 C.3       4 GLY6        0.0000 
     61 CA        -12.1696   52.4149   50.2479 C.3       4 GLY6        0.0000 
     62 CA        -12.5501   51.7290   51.5265 C.3       4 GLY6        0.0000 
     63 CA        -19.7300   58.2305   54.6376 C.3       4 GLY6        0.0000 
     64 CA        -13.1710   52.8693   48.4339 C.3       4 GLY6        0.0000 
     65 O         -13.5515   52.1834   49.7124 O.2       2 ALA2        0.0000 
@<TRIPOS>BOND
@<TRIPOS>SUBSTRUCTURE
     1 SER1        4 GROUP   
     2 ALA2       13 GROUP   
     3 LYS4        1 GROUP   
     4 GLY6        2 GROUP   
     5 CUB7        8 GROUP   
@<TRIPOS>SET

