#    Name: 1kjx_IMP_1_INTS_M
#    Modification time : Tue Mar 25 10:12:22 2014

@<TRIPOS>MOLECULE
1kjx_IMP_1_INTS_M
   43     0     9     0     0
SMALL
NO_CHARGES


@<TRIPOS>ATOM
      1 N         -15.6070   52.1230   48.6155 N.am      2 SEC2        0.0000 
      2 N         -16.1230   53.0180   49.8500 N.am      8 SEL2        0.0000 
      3 N         -15.0910   51.2280   47.3810 N.am      5 SEP2        0.0000 
      4 N         -16.1510   51.8365   50.3785 N.am      2 SEC2        0.0000 
      5 N         -16.1790   50.6550   50.9070 N.am      5 SEP2        0.0000 
      6 N         -15.5910   56.6305   48.7925 N.am      2 SEC2        0.0000 
      7 N         -16.5000   55.4330   48.9240 N.am      8 SEL2        0.0000 
      8 N         -14.6820   57.8280   48.6610 N.am      5 SEP2        0.0000 
      9 N         -15.6940   55.6135   47.8500 N.am      2 SEC2        0.0000 
     10 N         -14.8880   55.7940   46.7760 N.am      5 SEP2        0.0000 
     11 N         -16.6095   56.3365   51.5685 N.am      2 SEC2        0.0000 
     12 N         -15.6410   55.0480   51.3970 N.am      8 SEL2        0.0000 
     13 N         -17.5780   57.6250   51.7400 N.am      5 SEP2        0.0000 
     14 CA        -15.4705   56.4935   51.8345 C.3       3 GLC5        0.0000 
     15 CA        -15.4850   54.5840   52.7670 C.3       9 GLL5        0.0000 
     16 CA        -15.4560   58.4030   50.9020 C.3       6 GLP5        0.0000 
     17 CA        -16.1215   52.6725   53.0210 C.3       3 GLC5        0.0000 
     18 CA        -16.7580   50.7610   53.2750 C.3       6 GLP5        0.0000 
     19 CA        -13.2085   52.9900   54.3290 C.3       3 GLC5        0.0000 
     20 CA        -14.0430   54.4800   53.1670 C.3       9 GLL5        0.0000 
     21 CA        -12.3740   51.5000   55.4910 C.3       6 GLP5        0.0000 
     22 CA        -13.3775   57.9030   53.2670 C.3       3 GLC5        0.0000 
     23 CA        -13.2790   55.7330   52.8550 C.3       9 GLL5        0.0000 
     24 CA        -13.4760   60.0730   53.6790 C.3       6 GLP5        0.0000 
     25 CA        -12.4340   55.6565   49.6010 C.3       3 GLC5        0.0000 
     26 CA        -12.3010   55.3490   51.8110 C.3       9 GLL5        0.0000 
     27 CA        -12.5670   55.9640   47.3910 C.3       6 GLP5        0.0000 
     28 CA        -11.3670   52.3195   52.9510 C.3       3 GLC5        0.0000 
     29 CA        -12.1040   53.8950   52.0860 C.3       9 GLL5        0.0000 
     30 CA        -10.6300   50.7440   53.8160 C.3       6 GLP5        0.0000 
     31 N         -10.9030   50.2045   47.6800 N.am      2 SEC2        0.0000 
     32 N          -9.6070   50.7970   47.7730 N.am      8 SEL2        0.0000 
     33 N         -12.1990   49.6120   47.5870 N.am      5 SEP2        0.0000 
     34 O          -7.0260   51.7485   49.1460 O.2       1 ALC1        0.0000 
     35 O          -8.4220   52.2410   49.0930 O.2       7 ALL1        0.0000 
     36 O          -5.6300   51.2560   49.1990 O.2       4 ALP1        0.0000 
     37 CA        -10.6000   51.9095   52.0850 C.3       3 GLC5        0.0000 
     38 CA        -10.5700   53.0750   50.3540 C.3       9 GLL5        0.0000 
     39 CA        -14.8827   56.1743   54.5210 C.3       3 GLC5        0.0000 
     40 CA        -15.7440   57.2160   56.1310 C.3       6 GLP5        0.0000 
     41 CA        -14.1230   56.9720   51.6175 C.3       3 GLC5        0.0000 
     42 CA        -11.3830   50.7870   49.8833 C.3       3 GLC5        0.0000 
     43 CA        -12.1130   48.9610   49.9200 C.3       6 GLP5        0.0000 
@<TRIPOS>BOND
@<TRIPOS>SUBSTRUCTURE
     1 ALC1       34 GROUP        1 X    ALC  0     ROOT ALC X 1
     2 SEC2        1 GROUP        1 X    SEC  0     **** SEC X 2
     3 GLC5       14 GROUP        1 X    GLC  0     **** GLC X 6
     4 ALP1       36 GROUP        1 Y    ALP  0     ROOT ALP Y 8
     5 SEP2        3 GROUP        1 Y    SEP  0     **** SEP Y 9
     6 GLP5       16 GROUP        1 Y    GLP  0     **** GLP Y 13
     7 ALL1       35 GROUP        1 Z    ALL  0     ROOT ALL Z 15
     8 SEL2        2 GROUP        1 Z    SEL  0     **** SEL Z 16
     9 GLL5       15 GROUP        1 Z    GLL  0     **** GLL Z 20
@<TRIPOS>SET

