#    Name: 1kjx_IMP_1_ligand
#    Modification time : Tue Mar 25 10:12:23 2014

@<TRIPOS>MOLECULE
1kjx_IMP_1_ligand
   34    36     1     0     0
SMALL
NO_CHARGES


@<TRIPOS>ATOM
      1 P         -16.5600   54.3760   50.2570 P.3       1 IMP440      0.0000 
      2 O1P       -18.0060   54.3560   50.5990 O.co2     1 IMP440      0.0000 
      3 O2P       -16.1230   53.0180   49.8500 O.co2     1 IMP440      0.0000 
      4 O3P       -16.5000   55.4330   48.9240 O.co2     1 IMP440      0.0000 
      5 O5'       -15.6410   55.0480   51.3970 O.3       1 IMP440      0.0000 
      6 C5'       -15.4850   54.5840   52.7670 C.3       1 IMP440      0.0000 
      7 C4'       -14.0430   54.4800   53.1670 C.3       1 IMP440      0.0000 
      8 O4'       -13.3110   53.3860   52.6410 O.3       1 IMP440      0.0000 
      9 C3'       -13.2790   55.7330   52.8550 C.3       1 IMP440      0.0000 
     10 O3'       -12.4600   56.0180   53.9860 O.3       1 IMP440      0.0000 
     11 C2'       -12.3010   55.3490   51.8110 C.3       1 IMP440      0.0000 
     12 O2'       -10.9650   55.6640   52.3580 O.3       1 IMP440      0.0000 
     13 C1'       -12.1040   53.8950   52.0860 C.3       1 IMP440      0.0000 
     14 N9        -11.8460   53.3290   50.8410 N.pl3     1 IMP440      0.0000 
     15 C8        -12.6750   52.5370   50.0610 C.2       1 IMP440      0.0000 
     16 N7        -12.0850   51.8260   49.1660 N.2       1 IMP440      0.0000 
     17 C5        -10.7360   52.1510   49.3390 C.2       1 IMP440      0.0000 
     18 C6         -9.6020   51.6720   48.6380 C.2       1 IMP440      0.0000 
     19 O6         -9.6070   50.7970   47.7730 O.2       1 IMP440      0.0000 
     20 N1         -8.4220   52.2410   49.0930 N.am      1 IMP440      0.0000 
     21 C2         -8.3470   53.1620   50.1180 C.2       1 IMP440      0.0000 
     22 N3         -9.4060   53.6290   50.8050 N.2       1 IMP440      0.0000 
     23 C4        -10.5700   53.0750   50.3540 C.2       1 IMP440      0.0000 
     24 H         -15.9587   53.5933   52.8948 H         1 IMP440      0.0000 
     25 H         -15.9965   55.2700   53.4669 H         1 IMP440      0.0000 
     26 H         -14.0217   54.4063   54.2971 H         1 IMP440      0.0000 
     27 H         -13.8776   56.4913   52.5599 H         1 IMP440      0.0000 
     28 H         -12.4509   55.5617   50.9182 H         1 IMP440      0.0000 
     29 H         -11.2826   53.7935   52.7536 H         1 IMP440      0.0000 
     30 H         -13.6799   52.5527   50.2255 H         1 IMP440      0.0000 
     31 H          -7.5187   51.9471   48.6201 H         1 IMP440      0.0000 
     32 H          -7.3728   53.5216   50.3742 H         1 IMP440      0.0000 
     33 H         -11.6385   56.4462   53.6092 H         1 IMP440      0.0000 
     34 H         -10.4111   54.8527   52.1711 H         1 IMP440      0.0000 
@<TRIPOS>BOND
     1    2    1 ar   
     2    3    1 ar   
     3    4    1 ar   
     4    5    1 1    
     5    6    5 1    
     6    7    6 1    
     7   24    6 1    
     8   25    6 1    
     9    8    7 1    
    10    9    7 1    
    11   26    7 1    
    12   13    8 1    
    13   10    9 1    
    14   11    9 1    
    15   27    9 1    
    16   33   10 1    
    17   12   11 1    
    18   13   11 1    
    19   28   11 1    
    20   34   12 1    
    21   14   13 1    
    22   29   13 1    
    23   15   14 1    
    24   23   14 1    
    25   16   15 2    
    26   30   15 1    
    27   17   16 1    
    28   18   17 1    
    29   23   17 2    
    30   19   18 2    
    31   20   18 am   
    32   21   20 1    
    33   31   20 1    
    34   22   21 2    
    35   32   21 1    
    36   23   22 1    
@<TRIPOS>SUBSTRUCTURE
     1 IMP440      1 GROUP   
@<TRIPOS>SET

