#    Name: 2ivp_ATP_1_INTS_M
#    Modification time : Tue Mar 25 18:45:31 2014

@<TRIPOS>MOLECULE
2ivp_ATP_1_INTS_M
   71     0    12     0     0
SMALL
NO_CHARGES


@<TRIPOS>ATOM
      1 Zn        -26.3315    4.5335   -5.9675 Zn        3 ZIC7        0.0000 
      2 Zn        -25.8630    4.5120   -7.1110 Zn       11 ZIL7        0.0000 
      3 Zn        -26.8000    4.5550   -4.8240 Zn        7 ZIP7        0.0000 
      4 N         -26.6290    4.2245   -7.9860 N.am      2 SEC2        0.0000 
      5 N         -25.8630    4.5120   -7.1110 N.am     10 SEL2        0.0000 
      6 N         -27.3950    3.9370   -8.8610 N.am      6 SEP2        0.0000 
      7 N         -24.0895    6.0105   -4.7860 N.am      2 SEC2        0.0000 
      8 N         -23.9020    4.7910   -5.5410 N.am     10 SEL2        0.0000 
      9 N         -24.2770    7.2300   -4.0310 N.am      6 SEP2        0.0000 
     10 N         -23.8705    4.7590   -9.5470 N.am      2 SEC2        0.0000 
     11 N         -23.6140    5.0910   -8.0580 N.am     10 SEL2        0.0000 
     12 N         -24.1270    4.4270  -11.0360 N.am      6 SEP2        0.0000 
     13 N         -25.8730    6.8560  -10.0920 N.am      2 SEC2        0.0000 
     14 N         -25.2880    7.4910   -9.0720 N.am     10 SEL2        0.0000 
     15 N         -26.4580    6.2210  -11.1120 N.am      6 SEP2        0.0000 
     16 N         -29.2325    8.1485   -7.1295 N.am      2 SEC2        0.0000 
     17 N         -27.6970    8.4000   -6.5900 N.am     10 SEL2        0.0000 
     18 N         -30.7680    7.8970   -7.6690 N.am      6 SEP2        0.0000 
     19 N         -27.8685    8.6830   -4.9655 N.am      2 SEC2        0.0000 
     20 N         -28.0400    8.9660   -3.3410 N.am      6 SEP2        0.0000 
     21 CA        -28.7125    9.8535   -8.9660 C.3       4 GLC5        0.0000 
     22 CA        -26.7230   10.4510   -9.7170 C.3      12 GLL5        0.0000 
     23 CA        -30.7020    9.2560   -8.2150 C.3       8 GLP5        0.0000 
     24 CA        -26.2025    8.1260  -11.5325 C.3       4 GLC5        0.0000 
     25 CA        -27.1180    9.9160  -11.0910 C.3      12 GLL5        0.0000 
     26 CA        -25.2870    6.3360  -11.9740 C.3       8 GLP5        0.0000 
     27 CA        -24.6175   11.7525  -12.1245 C.3       4 GLC5        0.0000 
     28 CA        -26.4480   10.6980  -12.2040 C.3      12 GLL5        0.0000 
     29 CA        -22.7870   12.8070  -12.0450 C.3       8 GLP5        0.0000 
     30 O         -25.0735   10.0135  -13.9860 O.2       1 ALC1        0.0000 
     31 O         -26.0210    9.7510  -13.1890 O.2       9 ALL1        0.0000 
     32 O         -24.1260   10.2760  -14.7830 O.2       5 ALP1        0.0000 
     33 CA        -26.8300   13.6105  -12.8575 C.3       4 GLC5        0.0000 
     34 CA        -27.5530   11.5620  -12.7670 C.3      12 GLL5        0.0000 
     35 CA        -26.1070   15.6590  -12.9480 C.3       8 GLP5        0.0000 
     36 CA        -28.6530   12.3250  -14.5485 C.3       4 GLC5        0.0000 
     37 CA        -29.7530   13.0880  -16.3300 C.3       8 GLP5        0.0000 
     38 N         -27.8665   12.7250  -15.3220 N.am      2 SEC2        0.0000 
     39 N         -27.3450   11.8600  -14.1530 N.am     10 SEL2        0.0000 
     40 N         -28.3880   13.5900  -16.4910 N.am      6 SEP2        0.0000 
     41 O         -26.3900   11.7130  -15.0730 O.2       1 ALC1        0.0000 
     42 O         -27.3450   11.8600  -14.1530 O.2       9 ALL1        0.0000 
     43 O         -25.4350   11.5660  -15.9930 O.2       5 ALP1        0.0000 
     44 CA        -29.7315    9.0115  -12.6520 C.3       4 GLC5        0.0000 
     45 CA        -28.7880   10.7160  -12.5250 C.3      12 GLL5        0.0000 
     46 CA        -30.6750    7.3070  -12.7790 C.3       8 GLP5        0.0000 
     47 CA        -34.7205   11.4650  -14.2565 C.3       4 GLC5        0.0000 
     48 CA        -33.1780   12.6560  -13.8540 C.3      12 GLL5        0.0000 
     49 CA        -36.2630   10.2740  -14.6590 C.3       8 GLP5        0.0000 
     50 O         -35.1130   14.0720  -14.5635 O.2       1 ALC1        0.0000 
     51 O         -34.1380   13.5670  -13.5990 O.2       9 ALL1        0.0000 
     52 O         -36.0880   14.5770  -15.5280 O.2       5 ALP1        0.0000 
     53 N         -34.3765   11.3795  -15.8680 N.am      2 SEC2        0.0000 
     54 N         -33.3010   11.8140  -14.9020 N.am     10 SEL2        0.0000 
     55 N         -35.4520   10.9450  -16.8340 N.am      6 SEP2        0.0000 
     56 CA        -31.6175    9.5275  -16.6030 C.3       4 GLC5        0.0000 
     57 CA        -32.3620   10.8870  -15.1800 C.3      12 GLL5        0.0000 
     58 CA        -30.8730    8.1680  -18.0260 C.3       8 GLP5        0.0000 
     59 CA        -31.0575   11.9875  -15.7550 C.3       4 GLC5        0.0000 
     60 CA        -32.6960    9.0880  -14.4275 C.3       4 GLC5        0.0000 
     61 CA        -33.0300    7.2890  -13.6750 C.3       8 GLP5        0.0000 
     62 CA        -34.3125   10.5805  -14.9195 C.3       4 GLC5        0.0000 
     63 CA        -31.9870   10.2695  -12.3480 C.3       4 GLC5        0.0000 
     64 CA        -31.9680   12.5370  -13.0070 C.3      12 GLL5        0.0000 
     65 CA        -32.4950    8.5210  -11.5030 C.3       8 GLP5        0.0000 
     66 CA        -33.7955   12.8893  -11.7472 C.3       4 GLC5        0.0000 
     67 CA        -35.0180   13.1820  -10.0640 C.3       8 GLP5        0.0000 
     68 CA        -30.7672   12.5679  -14.8674 C.3       4 GLC5        0.0000 
     69 CA        -30.9482   13.7344  -13.9899 C.3       4 GLC5        0.0000 
     70 CA        -30.9900   11.4990  -13.3790 C.3      12 GLL5        0.0000 
     71 CA        -30.1150   15.4210  -14.5750 C.3       8 GLP5        0.0000 
@<TRIPOS>BOND
@<TRIPOS>SUBSTRUCTURE
     1 ALC1       30 GROUP        1 X    ALC  0     ROOT ALC X 1
     2 SEC2        4 GROUP        1 X    SEC  0     **** SEC X 2
     3 ZIC7        1 GROUP        1 X    ZIC  0     **** ZIC X 5
     4 GLC5       21 GROUP        1 X    GLC  0     **** GLC X 6
     5 ALP1       32 GROUP        1 Y    ALP  0     ROOT ALP Y 8
     6 SEP2        6 GROUP        1 Y    SEP  0     **** SEP Y 9
     7 ZIP7        3 GROUP        1 Y    ZIP  0     **** ZIP Y 12
     8 GLP5       23 GROUP        1 Y    GLP  0     **** GLP Y 13
     9 ALL1       31 GROUP        1 Z    ALL  0     ROOT ALL Z 15
    10 SEL2        5 GROUP        1 Z    SEL  0     **** SEL Z 16
    11 ZIL7        2 GROUP        1 Z    ZIL  0     **** ZIL Z 19
    12 GLL5       22 GROUP        1 Z    GLL  0     **** GLL Z 20
@<TRIPOS>SET

