#    Name: 2ivp_ATP_1_ligand
#    Modification time : Tue Mar 25 18:45:31 2014

@<TRIPOS>MOLECULE
2ivp_ATP_1_ligand
   43    45     1     0     0
SMALL
NO_CHARGES


@<TRIPOS>ATOM
      1 PG        -24.5370    5.1760   -6.8660 P.3       1 ATP1327     0.0000 
      2 O1G       -25.8630    4.5120   -7.1110 O.co2     1 ATP1327     0.0000 
      3 O2G       -23.9020    4.7910   -5.5410 O.co2     1 ATP1327     0.0000 
      4 O3G       -23.6140    5.0910   -8.0580 O.co2     1 ATP1327     0.0000 
      5 PB        -24.6100    7.8730   -7.7850 P.3       1 ATP1327     0.0000 
      6 O1B       -23.1180    8.1040   -7.7530 O.co2     1 ATP1327     0.0000 
      7 O2B       -25.2880    7.4910   -9.0720 O.co2     1 ATP1327     0.0000 
      8 O3B       -24.9040    6.7430   -6.6730 O.3       1 ATP1327     0.0000 
      9 PA        -26.9010    9.5290   -7.2150 P.3       1 ATP1327     0.0000 
     10 O1A       -26.9900   10.9270   -6.6560 O.co2     1 ATP1327     0.0000 
     11 O2A       -27.6970    8.4000   -6.5900 O.co2     1 ATP1327     0.0000 
     12 O3A       -25.3140    9.2150   -7.2370 O.3       1 ATP1327     0.0000 
     13 O5'       -27.3470    9.6010   -8.7610 O.3       1 ATP1327     0.0000 
     14 C5'       -26.7230   10.4510   -9.7170 C.3       1 ATP1327     0.0000 
     15 C4'       -27.1180    9.9160  -11.0910 C.3       1 ATP1327     0.0000 
     16 O4'       -28.5350   10.0390  -11.2950 O.3       1 ATP1327     0.0000 
     17 C3'       -26.4480   10.6980  -12.2040 C.3       1 ATP1327     0.0000 
     18 O3'       -26.0210    9.7510  -13.1890 O.3       1 ATP1327     0.0000 
     19 C2'       -27.5530   11.5620  -12.7670 C.3       1 ATP1327     0.0000 
     20 O2'       -27.3450   11.8600  -14.1530 O.3       1 ATP1327     0.0000 
     21 C1'       -28.7880   10.7160  -12.5250 C.3       1 ATP1327     0.0000 
     22 N9        -29.9940   11.5790  -12.4930 N.pl3     1 ATP1327     0.0000 
     23 C8        -30.2780   12.5670  -11.6170 C.2       1 ATP1327     0.0000 
     24 N7        -31.4680   13.1530  -11.9210 N.2       1 ATP1327     0.0000 
     25 C5        -31.9680   12.5370  -13.0070 C.ar      1 ATP1327     0.0000 
     26 C6        -33.1780   12.6560  -13.8540 C.ar      1 ATP1327     0.0000 
     27 N6        -34.1380   13.5670  -13.5990 N.pl3     1 ATP1327     0.0000 
     28 N1        -33.3010   11.8140  -14.9020 N.ar      1 ATP1327     0.0000 
     29 C2        -32.3620   10.8870  -15.1800 C.ar      1 ATP1327     0.0000 
     30 N3        -31.2360   10.7170  -14.4560 N.ar      1 ATP1327     0.0000 
     31 C4        -30.9900   11.4990  -13.3790 C.ar      1 ATP1327     0.0000 
     32 H         -25.6424   10.4248   -9.6452 H         1 ATP1327     0.0000 
     33 H         -27.0700   11.4746   -9.6436 H         1 ATP1327     0.0000 
     34 H         -26.8117    8.8874  -11.1687 H         1 ATP1327     0.0000 
     35 H         -25.6894   11.2832  -11.8134 H         1 ATP1327     0.0000 
     36 H         -27.6289   12.4358  -12.1520 H         1 ATP1327     0.0000 
     37 H         -28.8528   10.0127  -13.3422 H         1 ATP1327     0.0000 
     38 H         -29.7100   12.8297  -10.8653 H         1 ATP1327     0.0000 
     39 H         -34.9284   13.5565  -14.2115 H         1 ATP1327     0.0000 
     40 H         -33.9744   14.1723  -12.8200 H         1 ATP1327     0.0000 
     41 H         -32.5183   10.2493  -16.0231 H         1 ATP1327     0.0000 
     42 H         -25.0498    9.9439  -13.3294 H         1 ATP1327     0.0000 
     43 H         -26.4825   11.4116  -14.3874 H         1 ATP1327     0.0000 
@<TRIPOS>BOND
     1    2    1 ar   
     2    3    1 ar   
     3    4    1 ar   
     4    8    1 1    
     5    6    5 ar   
     6    7    5 ar   
     7    8    5 1    
     8   12    5 1    
     9   10    9 ar   
    10   11    9 ar   
    11   12    9 1    
    12   13    9 1    
    13   14   13 1    
    14   15   14 1    
    15   32   14 1    
    16   33   14 1    
    17   16   15 1    
    18   17   15 1    
    19   34   15 1    
    20   21   16 1    
    21   18   17 1    
    22   19   17 1    
    23   35   17 1    
    24   42   18 1    
    25   20   19 1    
    26   21   19 1    
    27   36   19 1    
    28   43   20 1    
    29   22   21 1    
    30   37   21 1    
    31   23   22 1    
    32   31   22 1    
    33   24   23 2    
    34   38   23 1    
    35   25   24 1    
    36   26   25 ar   
    37   31   25 ar   
    38   27   26 1    
    39   28   26 ar   
    40   39   27 1    
    41   40   27 1    
    42   29   28 ar   
    43   30   29 ar   
    44   41   29 1    
    45   31   30 ar   
@<TRIPOS>SUBSTRUCTURE
     1 ATP1327     1 GROUP   
@<TRIPOS>SET

