#    Name: 4kin_1M8_3_INTS_M
#    Modification time : Tue Mar 25 07:57:33 2014

@<TRIPOS>MOLECULE
4kin_1M8_3_INTS_M
   83     0     9     0     0
SMALL
NO_CHARGES


@<TRIPOS>ATOM
      1 CA         47.1515   -4.8430   47.3935 C.3       3 GLC5        0.0000 
      2 CA         46.6640   -3.5330   45.6690 C.3       9 GLL5        0.0000 
      3 CA         47.6390   -6.1530   49.1180 C.3       6 GLP5        0.0000 
      4 CA         48.7150   -3.4205   43.3895 C.3       3 GLC5        0.0000 
      5 CA         47.2920   -2.6570   44.7890 C.3       9 GLL5        0.0000 
      6 CA         50.1380   -4.1840   41.9900 C.3       6 GLP5        0.0000 
      7 CA         46.2460   -1.4380   41.7185 C.3       3 GLC5        0.0000 
      8 CA         46.6780   -2.3750   43.5700 C.3       9 GLL5        0.0000 
      9 CA         45.8140   -0.5010   39.8670 C.3       6 GLP5        0.0000 
     10 CA         44.9930   -2.8095   41.3855 C.3       3 GLC5        0.0000 
     11 CA         45.4780   -2.9780   43.2280 C.3       9 GLL5        0.0000 
     12 CA         44.5080   -2.6410   39.5430 C.3       6 GLP5        0.0000 
     13 CA         42.4360   -5.8760   44.7730 C.3       3 GLC5        0.0000 
     14 CA         43.5150   -4.5010   43.7090 C.3       9 GLL5        0.0000 
     15 CA         41.3570   -7.2510   45.8370 C.3       6 GLP5        0.0000 
     16 O          44.8245   -6.2830   45.4445 O.2       1 ALC1        0.0000 
     17 O          44.8150   -4.9530   46.2750 O.2       7 ALL1        0.0000 
     18 O          44.8340   -7.6130   44.6140 O.2       4 ALP1        0.0000 
     19 O          48.4070   -0.3195   43.7210 O.2       1 ALC1        0.0000 
     20 O          49.1930   -1.1830   44.4780 O.2       7 ALL1        0.0000 
     21 O          47.6210    0.5440   42.9640 O.2       4 ALP1        0.0000 
     22 N          49.7825   -2.2870   47.3435 N.am      2 SEC2        0.0000 
     23 N          49.2500   -2.7140   46.1390 N.am      8 SEL2        0.0000 
     24 N          50.3150   -1.8600   48.5480 N.am      5 SEP2        0.0000 
     25 CA         50.2275    1.1805   45.0600 C.3       3 GLC5        0.0000 
     26 CA         50.5280   -0.6470   44.7460 C.3       9 GLL5        0.0000 
     27 CA         49.9270    3.0080   45.3740 C.3       6 GLP5        0.0000 
     28 CA         50.9110   -2.8805   43.3395 C.3       3 GLC5        0.0000 
     29 CA         51.6840   -1.5770   44.6890 C.3       9 GLL5        0.0000 
     30 CA         52.9690   -2.8285   44.8865 C.3       3 GLC5        0.0000 
     31 CA         54.2540   -4.0800   45.0840 C.3       6 GLP5        0.0000 
     32 CA         53.2280    0.3350   43.1220 C.3       3 GLC5        0.0000 
     33 CA         51.4890   -0.5570   43.6180 C.3       9 GLL5        0.0000 
     34 CA         54.9670    1.2270   42.6260 C.3       6 GLP5        0.0000 
     35 CA         50.8550   -1.8420   42.2480 C.3       3 GLC5        0.0000 
     36 CA         50.2210   -3.1270   40.8780 C.3       6 GLP5        0.0000 
     37 CA         51.4480    1.3595   44.4325 C.3       3 GLC5        0.0000 
     38 CA         51.4070    3.2760   45.2470 C.3       6 GLP5        0.0000 
     39 CA         45.7945   -6.5120   48.7275 C.3       3 GLC5        0.0000 
     40 CA         43.9500   -6.8710   48.3370 C.3       9 GLL5        0.0000 
     41 CA         42.5985   -9.2980   48.5690 C.3       3 GLC5        0.0000 
     42 CA         43.3490   -7.5090   49.4390 C.3       9 GLL5        0.0000 
     43 CA         41.8480  -11.0870   47.6990 C.3       6 GLP5        0.0000 
     44 CA         44.9920   -8.1780   50.5990 C.3       3 GLC5        0.0000 
     45 CA         46.6350   -8.8470   51.7590 C.3       6 GLP5        0.0000 
     46 CA         40.3825  -10.3600   52.6235 C.3       3 GLC5        0.0000 
     47 CA         40.0460   -8.2680   52.4370 C.3       9 GLL5        0.0000 
     48 CA         40.7190  -12.4520   52.8100 C.3       6 GLP5        0.0000 
     49 CA         42.9840   -6.5555   55.1610 C.3       3 GLC5        0.0000 
     50 CA         41.3560   -6.7970   53.8070 C.3       9 GLL5        0.0000 
     51 CA         44.6120   -6.3140   56.5150 C.3       6 GLP5        0.0000 
     52 CA         43.9805   -5.7810   54.6960 C.3       3 GLC5        0.0000 
     53 CA         43.3490   -5.2480   52.8770 C.3       9 GLL5        0.0000 
     54 CA         44.9365   -5.0425   51.9070 C.3       3 GLC5        0.0000 
     55 CA         46.5240   -4.8370   50.9370 C.3       6 GLP5        0.0000 
     56 CA         48.5355   -4.5190   45.4115 C.3       3 GLC5        0.0000 
     57 CA         50.0930   -5.9430   45.5940 C.3       6 GLP5        0.0000 
     58 CA         46.2082   -5.3175   44.1930 C.3       3 GLC5        0.0000 
     59 CA         46.3600   -6.8050   42.8860 C.3       6 GLP5        0.0000 
     60 CA         47.4735   -2.5758   42.0140 C.3       3 GLC5        0.0000 
     61 CA         48.8690   -2.4750   40.6290 C.3       6 GLP5        0.0000 
     62 CA         46.2190   -4.7408   43.1425 C.3       3 GLC5        0.0000 
     63 CA         45.3192   -1.1010   43.6659 C.3       3 GLC5        0.0000 
     64 CA         44.4070    0.5450   43.6280 C.3       6 GLP5        0.0000 
     65 CA         42.9617   -2.7058   43.5165 C.3       3 GLC5        0.0000 
     66 CA         44.8300   -3.8640   44.0930 C.3       9 GLL5        0.0000 
     67 CA         41.7510   -1.2290   43.1320 C.3       6 GLP5        0.0000 
     68 CA         45.2662   -5.4938   43.3935 C.3       3 GLC5        0.0000 
     69 CA         50.1208    0.3140   42.7840 C.3       3 GLC5        0.0000 
     70 CA         49.2330    1.2300   41.3860 C.3       6 GLP5        0.0000 
     71 CA         50.7800   -0.7655   46.5907 C.3       3 GLC5        0.0000 
     72 CA         50.4540   -0.4190   48.4640 C.3       6 GLP5        0.0000 
     73 CA         41.5585   -4.5225   47.8805 C.3       3 GLC5        0.0000 
     74 CA         43.7120   -5.5330   48.2920 C.3       9 GLL5        0.0000 
     75 CA         39.8820   -3.7620   46.7900 C.3       6 GLP5        0.0000 
     76 CA         44.8795   -5.0600   49.9540 C.3       3 GLC5        0.0000 
     77 CA         42.4735   -7.0533   47.3569 C.3       3 GLC5        0.0000 
     78 CA         44.7608   -5.9600   50.3895 C.3       3 GLC5        0.0000 
     79 CA         39.8450   -8.6765   50.1183 C.3       3 GLC5        0.0000 
     80 CA         40.7980   -7.9160   51.3260 C.3       9 GLL5        0.0000 
     81 CA         39.2680   -9.2610   48.3550 C.3       6 GLP5        0.0000 
     82 CA         41.4073   -8.8474   54.5496 C.3       3 GLC5        0.0000 
     83 CA         42.0440  -10.3010   55.6690 C.3       6 GLP5        0.0000 
@<TRIPOS>BOND
@<TRIPOS>SUBSTRUCTURE
     1 ALC1       16 GROUP        1 X    ALC  0     ROOT ALC X 1
     2 SEC2       22 GROUP        1 X    SEC  0     **** SEC X 2
     3 GLC5        1 GROUP        1 X    GLC  0     **** GLC X 6
     4 ALP1       18 GROUP        1 Y    ALP  0     ROOT ALP Y 8
     5 SEP2       24 GROUP        1 Y    SEP  0     **** SEP Y 9
     6 GLP5        3 GROUP        1 Y    GLP  0     **** GLP Y 13
     7 ALL1       17 GROUP        1 Z    ALL  0     ROOT ALL Z 15
     8 SEL2       23 GROUP        1 Z    SEL  0     **** SEL Z 16
     9 GLL5        2 GROUP        1 Z    GLL  0     **** GLL Z 20
@<TRIPOS>SET

