#    Name: 4kin_1M8_3_ligand
#    Modification time : Tue Mar 25 07:57:33 2014

@<TRIPOS>MOLECULE
4kin_1M8_3_ligand
   47    50     1     0     0
SMALL
NO_CHARGES


@<TRIPOS>ATOM
      1 C1         46.6640   -3.5330   45.6690 C.ar      1 1M8401      0.0000 
      2 C2         47.2920   -2.6570   44.7890 C.ar      1 1M8401      0.0000 
      3 C3         46.6780   -2.3750   43.5700 C.ar      1 1M8401      0.0000 
      4 C4         45.4780   -2.9780   43.2280 C.ar      1 1M8401      0.0000 
      5 C5         44.8300   -3.8640   44.0930 C.ar      1 1M8401      0.0000 
      6 C6         45.4490   -4.1270   45.3310 C.ar      1 1M8401      0.0000 
      7 C7         43.5150   -4.5010   43.7090 C.3       1 1M8401      0.0000 
      8 N8         44.8150   -4.9530   46.2750 N.am      1 1M8401      0.0000 
      9 C9         48.6520   -2.1800   45.1990 C.2       1 1M8401      0.0000 
     10 N10        49.1930   -1.1830   44.4780 N.am      1 1M8401      0.0000 
     11 O11        49.2500   -2.7140   46.1390 O.2       1 1M8401      0.0000 
     12 C12        50.5280   -0.6470   44.7460 C.3       1 1M8401      0.0000 
     13 C13        51.6840   -1.5770   44.6890 C.3       1 1M8401      0.0000 
     14 C14        51.4890   -0.5570   43.6180 C.3       1 1M8401      0.0000 
     15 C15        44.1670   -4.4930   47.3450 C.2       1 1M8401      0.0000 
     16 C16        43.7120   -5.5330   48.2920 C.2       1 1M8401      0.0000 
     17 C17        43.9500   -6.8710   48.3370 C.2       1 1M8401      0.0000 
     18 C18        43.3490   -7.5090   49.4390 C.2       1 1M8401      0.0000 
     19 C19        42.6460   -6.6570   50.2450 C.2       1 1M8401      0.0000 
     20 S20        42.7580   -5.0330   49.6500 S.3       1 1M8401      0.0000 
     21 O21        44.0280   -3.2940   47.5910 O.2       1 1M8401      0.0000 
     22 C22        41.8460   -6.9950   51.4370 C.ar      1 1M8401      0.0000 
     23 C23        40.7980   -7.9160   51.3260 C.ar      1 1M8401      0.0000 
     24 C24        40.0460   -8.2680   52.4370 C.ar      1 1M8401      0.0000 
     25 C25        40.3240   -7.7130   53.6700 C.ar      1 1M8401      0.0000 
     26 C26        41.3560   -6.7970   53.8070 C.ar      1 1M8401      0.0000 
     27 C27        42.1050   -6.4440   52.6910 C.ar      1 1M8401      0.0000 
     28 CL1        43.3490   -5.2480   52.8770 Cl        1 1M8401      0.0000 
     29 H          47.1001   -3.7454   46.5792 H         1 1M8401      0.0000 
     30 H          47.1242   -1.7099   42.9178 H         1 1M8401      0.0000 
     31 H          45.0450   -2.7694   42.3063 H         1 1M8401      0.0000 
     32 H          44.8724   -5.9988   46.0992 H         1 1M8401      0.0000 
     33 H          48.6795   -0.7395   43.6837 H         1 1M8401      0.0000 
     34 H          50.7666    0.0598   45.3757 H         1 1M8401      0.0000 
     35 H          51.3832   -2.4199   44.3617 H         1 1M8401      0.0000 
     36 H          52.3586   -1.2640   45.2849 H         1 1M8401      0.0000 
     37 H          52.0848    0.1689   43.7802 H         1 1M8401      0.0000 
     38 H          51.1093   -0.9870   42.8569 H         1 1M8401      0.0000 
     39 H          44.4863   -7.3681   47.6764 H         1 1M8401      0.0000 
     40 H          43.4388   -8.4769   49.5957 H         1 1M8401      0.0000 
     41 H          40.5872   -8.3340   50.4065 H         1 1M8401      0.0000 
     42 H          39.2756   -8.9483   52.3384 H         1 1M8401      0.0000 
     43 H          39.7631   -7.9791   54.4948 H         1 1M8401      0.0000 
     44 H          41.5651   -6.3841   54.7207 H         1 1M8401      0.0000 
     45 H          43.5970   -5.0496   42.8769 H         1 1M8401      0.0000 
     46 H          43.1722   -5.1069   44.4269 H         1 1M8401      0.0000 
     47 H          42.8060   -3.8163   43.5400 H         1 1M8401      0.0000 
@<TRIPOS>BOND
     1    2    1 ar   
     2    6    1 ar   
     3   29    1 1    
     4    3    2 ar   
     5    9    2 1    
     6    4    3 ar   
     7   30    3 1    
     8    5    4 ar   
     9   31    4 1    
    10    6    5 ar   
    11    7    5 1    
    12    8    6 1    
    13   45    7 1    
    14   46    7 1    
    15   47    7 1    
    16   15    8 am   
    17   32    8 1    
    18   10    9 am   
    19   11    9 2    
    20   12   10 1    
    21   33   10 1    
    22   13   12 1    
    23   14   12 1    
    24   34   12 1    
    25   14   13 1    
    26   35   13 1    
    27   36   13 1    
    28   37   14 1    
    29   38   14 1    
    30   16   15 1    
    31   21   15 2    
    32   17   16 2    
    33   20   16 1    
    34   18   17 1    
    35   39   17 1    
    36   19   18 2    
    37   40   18 1    
    38   20   19 1    
    39   22   19 1    
    40   23   22 ar   
    41   27   22 ar   
    42   24   23 ar   
    43   41   23 1    
    44   25   24 ar   
    45   42   24 1    
    46   26   25 ar   
    47   43   25 1    
    48   27   26 ar   
    49   44   26 1    
    50   28   27 1    
@<TRIPOS>SUBSTRUCTURE
     1 1M8401      1 GROUP   
@<TRIPOS>SET

