#    Name: 4l16_ADP_1_INTS_M
#    Modification time : Tue Mar 25 09:22:57 2014

@<TRIPOS>MOLECULE
4l16_ADP_1_INTS_M
   45     0    12     0     0
SMALL
NO_CHARGES


@<TRIPOS>ATOM
      1 N          -1.0350   34.7895    4.0425 N.am      2 SEC2        0.0000 
      2 N           0.0360   33.8870    3.3960 N.am     10 SEL2        0.0000 
      3 N          -2.1060   35.6920    4.6890 N.am      6 SEP2        0.0000 
      4 NZ         -0.2140   33.3820   -0.1175 N.4       3 LYC4        0.0000 
      5 NZ          0.5170   34.3260    0.9020 N.4      11 LYL4        0.0000 
      6 NZ         -0.9450   32.4380   -1.1370 N.4       7 LYP4        0.0000 
      7 N           1.5005   35.2110    0.1385 N.am      2 SEC2        0.0000 
      8 N           0.5170   34.3260    0.9020 N.am     10 SEL2        0.0000 
      9 N           2.4840   36.0960   -0.6250 N.am      6 SEP2        0.0000 
     10 N          -0.3615   35.4920    1.5410 N.am      2 SEC2        0.0000 
     11 N          -1.2400   36.6580    2.1800 N.am      6 SEP2        0.0000 
     12 N          -0.2140   33.3820   -0.1175 N.am      2 SEC2        0.0000 
     13 N          -0.9450   32.4380   -1.1370 N.am      6 SEP2        0.0000 
     14 N           3.0895   33.3980    1.1495 N.am      2 SEC2        0.0000 
     15 N           2.2080   33.0590    2.3160 N.am     10 SEL2        0.0000 
     16 N           3.9710   33.7370   -0.0170 N.am      6 SEP2        0.0000 
     17 N           1.4185   36.6260    1.8360 N.am      2 SEC2        0.0000 
     18 N           1.7340   35.5410    2.5590 N.am     10 SEL2        0.0000 
     19 N           1.1030   37.7110    1.1130 N.am      6 SEP2        0.0000 
     20 N           0.2470   36.0995    2.3695 N.am      2 SEC2        0.0000 
     21 N           2.3590   37.3195    2.2635 N.am      2 SEC2        0.0000 
     22 N           3.6150   36.9280    3.4140 N.am     10 SEL2        0.0000 
     23 CA          6.9050   38.0950    2.1920 C.3       4 GLC5        0.0000 
     24 CA          5.5050   38.4350    3.6510 C.3      12 GLL5        0.0000 
     25 CA          8.3050   37.7550    0.7330 C.3       8 GLP5        0.0000 
     26 CA          5.8405   40.3625    0.6020 C.3       4 GLC5        0.0000 
     27 CA          5.3530   40.4530    2.4850 C.3      12 GLL5        0.0000 
     28 CA          6.3280   40.2720   -1.2810 C.3       8 GLP5        0.0000 
     29 CA          6.8290   39.1040    1.6090 C.3       4 GLC5        0.0000 
     30 O          -0.0805   43.9925   -1.4145 O.2       1 ALC1        0.0000 
     31 O           0.5960   43.2270   -0.3250 O.2       9 ALL1        0.0000 
     32 O          -0.7570   44.7580   -2.5040 O.2       5 ALP1        0.0000 
     33 CA          2.0335   38.6555   -1.0050 C.3       4 GLC5        0.0000 
     34 CA          2.3840   40.1270   -0.8160 C.3      12 GLL5        0.0000 
     35 CA          1.6830   37.1840   -1.1940 C.3       8 GLP5        0.0000 
     36 CA          1.4025   39.2815    0.6780 C.3       4 GLC5        0.0000 
     37 CA          0.4210   38.4360    2.1720 C.3       8 GLP5        0.0000 
     38 CA          3.3175   40.7315   -2.6980 C.3       4 GLC5        0.0000 
     39 CA          4.2510   41.3360   -4.5800 C.3       8 GLP5        0.0000 
     40 CA          4.3560   40.1995   -1.0485 C.3       4 GLC5        0.0000 
     41 CA          1.9315   39.7775    1.5985 C.3       4 GLC5        0.0000 
     42 CA          3.4420   41.1190    1.0250 C.3      12 GLL5        0.0000 
     43 CA          4.8850   40.6955   -0.1280 C.3       4 GLC5        0.0000 
     44 CA          4.2820   42.7880   -0.3902 C.3       4 GLC5        0.0000 
     45 CA          5.5850   43.8780   -1.7600 C.3       8 GLP5        0.0000 
@<TRIPOS>BOND
@<TRIPOS>SUBSTRUCTURE
     1 ALC1       30 GROUP        1 X    ALC  0     ROOT ALC X 1
     2 SEC2        1 GROUP        1 X    SEC  0     **** SEC X 2
     3 LYC4        4 GROUP        1 X    LYC  0     **** LYC X 4
     4 GLC5       23 GROUP        1 X    GLC  0     **** GLC X 6
     5 ALP1       32 GROUP        1 Y    ALP  0     ROOT ALP Y 8
     6 SEP2        3 GROUP        1 Y    SEP  0     **** SEP Y 9
     7 LYP4        6 GROUP        1 Y    LYP  0     **** LYP Y 11
     8 GLP5       25 GROUP        1 Y    GLP  0     **** GLP Y 13
     9 ALL1       31 GROUP        1 Z    ALL  0     ROOT ALL Z 15
    10 SEL2        2 GROUP        1 Z    SEL  0     **** SEL Z 16
    11 LYL4        5 GROUP        1 Z    LYL  0     **** LYL Z 18
    12 GLL5       24 GROUP        1 Z    GLL  0     **** GLL Z 20
@<TRIPOS>SET

