#    Name: 4l16_ADP_1_ligand
#    Modification time : Tue Mar 25 09:22:57 2014

@<TRIPOS>MOLECULE
4l16_ADP_1_ligand
   39    41     1     0     0
SMALL
NO_CHARGES


@<TRIPOS>ATOM
      1 PB          1.0720   34.0770    2.2890 P.3       1 ADP601      0.0000 
      2 O1B         0.0360   33.8870    3.3960 O.co2     1 ADP601      0.0000 
      3 O2B         0.5170   34.3260    0.9020 O.co2     1 ADP601      0.0000 
      4 O3B         2.2080   33.0590    2.3160 O.co2     1 ADP601      0.0000 
      5 PA          2.2780   36.1810    3.9570 P.3       1 ADP601      0.0000 
      6 O1A         1.2350   37.2150    4.4440 O.co2     1 ADP601      0.0000 
      7 O2A         2.7810   35.0650    4.8620 O.co2     1 ADP601      0.0000 
      8 O3A         1.7340   35.5410    2.5590 O.3       1 ADP601      0.0000 
      9 O5'         3.6150   36.9280    3.4140 O.3       1 ADP601      0.0000 
     10 C5'         4.5320   37.4960    4.3410 C.3       1 ADP601      0.0000 
     11 C4'         5.5050   38.4350    3.6510 C.3       1 ADP601      0.0000 
     12 O4'         4.9100   39.0850    2.5240 O.3       1 ADP601      0.0000 
     13 C3'         5.9440   39.5140    4.6320 C.3       1 ADP601      0.0000 
     14 O3'         7.3020   39.2670    5.0390 O.3       1 ADP601      0.0000 
     15 C2'         5.8250   40.8340    3.8840 C.3       1 ADP601      0.0000 
     16 O2'         7.0700   41.5560    3.8350 O.3       1 ADP601      0.0000 
     17 C1'         5.3530   40.4530    2.4850 C.3       1 ADP601      0.0000 
     18 N9          4.2530   41.3670    2.0560 N.pl3     1 ADP601      0.0000 
     19 C8          3.9100   42.5720    2.5840 C.2       1 ADP601      0.0000 
     20 N7          2.8590   43.1330    1.9220 N.2       1 ADP601      0.0000 
     21 C5          2.5160   42.2770    0.9340 C.ar      1 ADP601      0.0000 
     22 C6          1.4940   42.2270   -0.1500 C.ar      1 ADP601      0.0000 
     23 N6          0.5960   43.2270   -0.3250 N.pl3     1 ADP601      0.0000 
     24 N1          1.4890   41.1340   -0.9660 N.ar      1 ADP601      0.0000 
     25 C2          2.3840   40.1270   -0.8160 C.ar      1 ADP601      0.0000 
     26 N3          3.3310   40.0860    0.1450 N.ar      1 ADP601      0.0000 
     27 C4          3.4420   41.1190    1.0250 C.ar      1 ADP601      0.0000 
     28 H           5.1233   36.7180    4.8557 H         1 ADP601      0.0000 
     29 H           4.0109   38.0703    5.1275 H         1 ADP601      0.0000 
     30 H           6.3821   37.8782    3.3639 H         1 ADP601      0.0000 
     31 H           5.2650   39.5196    5.4501 H         1 ADP601      0.0000 
     32 H           5.0378   41.4055    4.3455 H         1 ADP601      0.0000 
     33 H           6.1932   40.5633    1.8164 H         1 ADP601      0.0000 
     34 H           4.3635   42.9892    3.3496 H         1 ADP601      0.0000 
     35 H           0.2475   43.3478   -1.2545 H         1 ADP601      0.0000 
     36 H           0.3614   43.7555    0.4909 H         1 ADP601      0.0000 
     37 H           2.3345   39.3105   -1.5073 H         1 ADP601      0.0000 
     38 H           7.3221   39.4804    6.0158 H         1 ADP601      0.0000 
     39 H           7.7511   40.9226    4.2023 H         1 ADP601      0.0000 
@<TRIPOS>BOND
     1    2    1 ar   
     2    3    1 ar   
     3    4    1 ar   
     4    8    1 1    
     5    6    5 ar   
     6    7    5 ar   
     7    8    5 1    
     8    9    5 1    
     9   10    9 1    
    10   11   10 1    
    11   28   10 1    
    12   29   10 1    
    13   12   11 1    
    14   13   11 1    
    15   30   11 1    
    16   17   12 1    
    17   14   13 1    
    18   15   13 1    
    19   31   13 1    
    20   38   14 1    
    21   16   15 1    
    22   17   15 1    
    23   32   15 1    
    24   39   16 1    
    25   18   17 1    
    26   33   17 1    
    27   19   18 1    
    28   27   18 1    
    29   20   19 2    
    30   34   19 1    
    31   21   20 1    
    32   22   21 ar   
    33   27   21 ar   
    34   23   22 1    
    35   24   22 ar   
    36   35   23 1    
    37   36   23 1    
    38   25   24 ar   
    39   26   25 ar   
    40   37   25 1    
    41   27   26 ar   
@<TRIPOS>SUBSTRUCTURE
     1 ADP601      1 GROUP   
@<TRIPOS>SET

