#    Name: 1t7r_DHT_1_INTS_M
#    Modification time : Tue Mar 25 04:27:46 2014

@<TRIPOS>MOLECULE
1t7r_DHT_1_INTS_M
   72     0     9     0     0
SMALL
NO_CHARGES


@<TRIPOS>ATOM
      1 CA         -1.7405   27.2755   39.3330 C.3       3 GLC5        0.0000 
      2 CA          0.0360   27.6540   38.4440 C.3       9 GLL5        0.0000 
      3 CA         -3.5170   26.8970   40.2220 C.3       6 GLP5        0.0000 
      4 CA         -0.0010   24.4625   39.4180 C.3       3 GLC5        0.0000 
      5 CA          0.8320   26.4000   38.8370 C.3       9 GLL5        0.0000 
      6 CA         -0.8340   22.5250   39.9990 C.3       6 GLP5        0.0000 
      7 CA          0.5015   26.4095   40.8290 C.3       3 GLC5        0.0000 
      8 CA          0.1710   26.4190   42.8210 C.3       6 GLP5        0.0000 
      9 N           1.8510   24.2950   38.0415 N.am      2 SEC2        0.0000 
     10 N           2.7490   25.6370   37.6300 N.am      8 SEL2        0.0000 
     11 N           0.9530   22.9530   38.4530 N.am      5 SEP2        0.0000 
     12 CA          2.9205   27.1700   40.4355 C.3       3 GLC5        0.0000 
     13 CA          2.9760   27.8670   38.4880 C.3       9 GLL5        0.0000 
     14 CA          2.8650   26.4730   42.3830 C.3       6 GLP5        0.0000 
     15 CA          4.6640   26.7150   37.9720 C.3       3 GLC5        0.0000 
     16 CA          6.3520   25.5630   37.4560 C.3       6 GLP5        0.0000 
     17 CA          3.0550   27.8425   36.5765 C.3       3 GLC5        0.0000 
     18 CA          3.1340   27.8180   34.6650 C.3       6 GLP5        0.0000 
     19 CA          4.3840   30.4930   39.5830 C.3       3 GLC5        0.0000 
     20 CA          2.8350   30.4420   38.2670 C.3       9 GLL5        0.0000 
     21 CA          5.9330   30.5440   40.8990 C.3       6 GLP5        0.0000 
     22 CA          2.5735   33.1260   36.3865 C.3       3 GLC5        0.0000 
     23 CA          1.9420   31.5850   37.7570 C.3       9 GLL5        0.0000 
     24 CA          3.2050   34.6670   35.0160 C.3       6 GLP5        0.0000 
     25 CA          1.3590   32.0680   40.3535 C.3       3 GLC5        0.0000 
     26 CA          0.5400   31.6110   38.4550 C.3       9 GLL5        0.0000 
     27 CA          2.1780   32.5250   42.2520 C.3       6 GLP5        0.0000 
     28 CA         -2.5465   28.5905   39.5680 C.3       3 GLC5        0.0000 
     29 CA         -1.5760   30.2840   38.9140 C.3       9 GLL5        0.0000 
     30 CA         -2.4360   30.9205   36.5010 C.3       3 GLC5        0.0000 
     31 CA         -2.4880   31.4280   38.4770 C.3       9 GLL5        0.0000 
     32 CA         -2.3840   30.4130   34.5250 C.3       6 GLP5        0.0000 
     33 CA         -4.2005   30.7320   37.9050 C.3       3 GLC5        0.0000 
     34 CA         -5.9130   30.0360   37.3330 C.3       6 GLP5        0.0000 
     35 CA          2.0785   34.8420   38.0890 C.3       3 GLC5        0.0000 
     36 CA          0.1180   34.1700   37.9760 C.3       9 GLL5        0.0000 
     37 CA          4.0390   35.5140   38.2020 C.3       6 GLP5        0.0000 
     38 CA         -0.7325   36.7180   37.0420 C.3       3 GLC5        0.0000 
     39 CA         -1.1500   34.9650   37.5650 C.3       9 GLL5        0.0000 
     40 CA         -0.3150   38.4710   36.5190 C.3       6 GLP5        0.0000 
     41 N          -3.5325   35.2450   39.4265 N.am      2 SEC2        0.0000 
     42 N          -3.4800   34.6080   38.2170 N.am      8 SEL2        0.0000 
     43 N          -3.5850   35.8820   40.6360 N.am      5 SEP2        0.0000 
     44 O          -4.4525   33.6860   38.0025 O.2       1 ALC1        0.0000 
     45 O          -3.4800   34.6080   38.2170 O.2       7 ALL1        0.0000 
     46 O          -5.4250   32.7640   37.7880 O.2       4 ALP1        0.0000 
     47 CA         -1.7555   32.5145   42.1045 C.3       3 GLC5        0.0000 
     48 CA         -1.7000   33.2350   40.0640 C.3       9 GLL5        0.0000 
     49 CA         -1.8110   31.7940   44.1450 C.3       6 GLP5        0.0000 
     50 CA         -0.3695   33.5230   41.3390 C.3       3 GLC5        0.0000 
     51 CA          0.9610   33.8110   42.6140 C.3       6 GLP5        0.0000 
     52 CA         -2.0395   34.9285   40.4620 C.3       3 GLC5        0.0000 
     53 CA         -2.3790   36.6220   40.8600 C.3       6 GLP5        0.0000 
     54 CA         -0.1105   29.8980   42.0385 C.3       3 GLC5        0.0000 
     55 CA          0.8910   29.1590   40.3360 C.3       9 GLL5        0.0000 
     56 CA         -1.1120   30.6370   43.7410 C.3       6 GLP5        0.0000 
     57 CA          1.5345   30.8420   41.2940 C.3       3 GLC5        0.0000 
     58 CA          0.5310   27.7890   41.5785 C.3       3 GLC5        0.0000 
     59 CA         -0.1035   25.9420   37.0947 C.3       3 GLC5        0.0000 
     60 CA         -0.6410   24.8570   35.5490 C.3       6 GLP5        0.0000 
     61 CA          3.6947   32.3717   38.8470 C.3       3 GLC5        0.0000 
     62 CA          5.0010   33.7300   39.6820 C.3       6 GLP5        0.0000 
     63 CA          2.9426   29.8855   36.3395 C.3       3 GLC5        0.0000 
     64 CA          3.6760   29.0990   34.7280 C.3       6 GLP5        0.0000 
     65 CA         -1.6267   30.3338   36.5515 C.3       3 GLC5        0.0000 
     66 CA         -0.1630   30.2250   38.2420 C.3       9 GLL5        0.0000 
     67 CA          0.6715   35.1852   36.2587 C.3       3 GLC5        0.0000 
     68 CA          1.8590   35.8030   34.7470 C.3       6 GLP5        0.0000 
     69 CA         -2.2702   34.7760   35.8077 C.3       3 GLC5        0.0000 
     70 CA         -2.8090   35.0970   33.9920 C.3       6 GLP5        0.0000 
     71 CA         -2.0553   35.5385   39.2417 C.3       3 GLC5        0.0000 
     72 CA         -2.3130   33.9450   37.6820 C.3       9 GLL5        0.0000 
@<TRIPOS>BOND
@<TRIPOS>SUBSTRUCTURE
     1 ALC1       44 GROUP        1 X    ALC  0     ROOT ALC X 1
     2 SEC2        9 GROUP        1 X    SEC  0     **** SEC X 2
     3 GLC5        1 GROUP        1 X    GLC  0     **** GLC X 6
     4 ALP1       46 GROUP        1 Y    ALP  0     ROOT ALP Y 8
     5 SEP2       11 GROUP        1 Y    SEP  0     **** SEP Y 9
     6 GLP5        3 GROUP        1 Y    GLP  0     **** GLP Y 13
     7 ALL1       45 GROUP        1 Z    ALL  0     ROOT ALL Z 15
     8 SEL2       10 GROUP        1 Z    SEL  0     **** SEL Z 16
     9 GLL5        2 GROUP        1 Z    GLL  0     **** GLL Z 20
@<TRIPOS>SET

