#    Name: 1t7r_DHT_1_ligand
#    Modification time : Tue Mar 25 04:27:46 2014

@<TRIPOS>MOLECULE
1t7r_DHT_1_ligand
   51    54     1     0     0
SMALL
NO_CHARGES


@<TRIPOS>ATOM
      1 C1          0.0360   27.6540   38.4440 C.3       1 DHT300      0.0000 
      2 C2          0.8320   26.4000   38.8370 C.3       1 DHT300      0.0000 
      3 C3          2.2660   26.5680   38.2550 C.2       1 DHT300      0.0000 
      4 O3          2.7490   25.6370   37.6300 O.2       1 DHT300      0.0000 
      5 C4          2.9760   27.8670   38.4880 C.3       1 DHT300      0.0000 
      6 C5          2.1180   29.0760   38.0230 C.3       1 DHT300      0.0000 
      7 C6          2.8350   30.4420   38.2670 C.3       1 DHT300      0.0000 
      8 C7          1.9420   31.5850   37.7570 C.3       1 DHT300      0.0000 
      9 C8          0.5400   31.6110   38.4550 C.3       1 DHT300      0.0000 
     10 C9         -0.1630   30.2250   38.2420 C.3       1 DHT300      0.0000 
     11 C10         0.6990   29.0190   38.7650 C.3       1 DHT300      0.0000 
     12 C11        -1.5760   30.2840   38.9140 C.3       1 DHT300      0.0000 
     13 C12        -2.4880   31.4280   38.4770 C.3       1 DHT300      0.0000 
     14 C13        -1.7920   32.8070   38.5460 C.3       1 DHT300      0.0000 
     15 C14        -0.3720   32.7140   37.8820 C.3       1 DHT300      0.0000 
     16 C15         0.1180   34.1700   37.9760 C.3       1 DHT300      0.0000 
     17 C16        -1.1500   34.9650   37.5650 C.3       1 DHT300      0.0000 
     18 C17        -2.3130   33.9450   37.6820 C.3       1 DHT300      0.0000 
     19 O17        -3.4800   34.6080   38.2170 O.3       1 DHT300      0.0000 
     20 C18        -1.7000   33.2350   40.0640 C.3       1 DHT300      0.0000 
     21 C19         0.8910   29.1590   40.3360 C.3       1 DHT300      0.0000 
     22 H          -0.9530   27.6218   38.9464 H         1 DHT300      0.0000 
     23 H          -0.1738   27.6176   37.3549 H         1 DHT300      0.0000 
     24 H           0.3800   25.5331   38.4045 H         1 DHT300      0.0000 
     25 H           0.8944   26.3289   39.9018 H         1 DHT300      0.0000 
     26 H           3.9187   27.8878   37.9369 H         1 DHT300      0.0000 
     27 H           3.1943   27.9944   39.5505 H         1 DHT300      0.0000 
     28 H           1.9202   28.9677   36.9651 H         1 DHT300      0.0000 
     29 H           3.7693   30.4433   37.7296 H         1 DHT300      0.0000 
     30 H           3.0063   30.5589   39.3247 H         1 DHT300      0.0000 
     31 H           1.7882   31.4745   36.6823 H         1 DHT300      0.0000 
     32 H           2.4346   32.5412   37.9410 H         1 DHT300      0.0000 
     33 H           0.6718   31.7580   39.5009 H         1 DHT300      0.0000 
     34 H          -0.3173   30.1000   37.1724 H         1 DHT300      0.0000 
     35 H          -1.4261   30.3348   40.0121 H         1 DHT300      0.0000 
     36 H          -2.0835   29.3169   38.7192 H         1 DHT300      0.0000 
     37 H          -3.3747   31.4515   39.1193 H         1 DHT300      0.0000 
     38 H          -2.8200   31.2552   37.4478 H         1 DHT300      0.0000 
     39 H          -0.5726   32.5218   36.8143 H         1 DHT300      0.0000 
     40 H           0.8790   34.3383   37.2731 H         1 DHT300      0.0000 
     41 H           0.3685   34.4006   38.9688 H         1 DHT300      0.0000 
     42 H          -1.0575   35.2826   36.5591 H         1 DHT300      0.0000 
     43 H          -1.3059   35.7594   38.2476 H         1 DHT300      0.0000 
     44 H          -2.4859   33.5662   36.6851 H         1 DHT300      0.0000 
     45 H          -1.1782   32.5753   40.6049 H         1 DHT300      0.0000 
     46 H          -1.2527   34.1227   40.1731 H         1 DHT300      0.0000 
     47 H          -2.6043   33.3088   40.4845 H         1 DHT300      0.0000 
     48 H           1.4714   28.4333   40.7054 H         1 DHT300      0.0000 
     49 H           1.3177   30.0293   40.5819 H         1 DHT300      0.0000 
     50 H           0.0185   29.1126   40.8224 H         1 DHT300      0.0000 
     51 H          -4.2351   33.9724   38.0562 H         1 DHT300      0.0000 
@<TRIPOS>BOND
     1    2    1 1    
     2   11    1 1    
     3   22    1 1    
     4   23    1 1    
     5    3    2 1    
     6   24    2 1    
     7   25    2 1    
     8    4    3 2    
     9    5    3 1    
    10    6    5 1    
    11   26    5 1    
    12   27    5 1    
    13    7    6 1    
    14   11    6 1    
    15   28    6 1    
    16    8    7 1    
    17   29    7 1    
    18   30    7 1    
    19    9    8 1    
    20   31    8 1    
    21   32    8 1    
    22   10    9 1    
    23   15    9 1    
    24   33    9 1    
    25   11   10 1    
    26   12   10 1    
    27   34   10 1    
    28   21   11 1    
    29   13   12 1    
    30   35   12 1    
    31   36   12 1    
    32   14   13 1    
    33   37   13 1    
    34   38   13 1    
    35   15   14 1    
    36   18   14 1    
    37   20   14 1    
    38   16   15 1    
    39   39   15 1    
    40   17   16 1    
    41   40   16 1    
    42   41   16 1    
    43   18   17 1    
    44   42   17 1    
    45   43   17 1    
    46   19   18 1    
    47   44   18 1    
    48   51   19 1    
    49   45   20 1    
    50   46   20 1    
    51   47   20 1    
    52   48   21 1    
    53   49   21 1    
    54   50   21 1    
@<TRIPOS>SUBSTRUCTURE
     1 DHT300      1 GROUP   
@<TRIPOS>SET

