#    Name: 3lxe_TOR_1_INTS_M
#    Modification time : Mon Mar 24 22:24:36 2014

@<TRIPOS>MOLECULE
3lxe_TOR_1_INTS_M
   44     0    12     0     0
SMALL
NO_CHARGES


@<TRIPOS>ATOM
      1 CA        -19.8360   39.1445   42.1360 C.3       4 GLC5        0.0000 
      2 CA        -19.1420   37.4720   42.5230 C.3      12 GLL5        0.0000 
      3 CA        -20.5300   40.8170   41.7490 C.3       8 GLP5        0.0000 
      4 CA        -11.5630   36.2180   47.3095 C.3       4 GLC5        0.0000 
      5 CA        -11.9740   36.1530   45.2700 C.3      12 GLL5        0.0000 
      6 CA        -11.1520   36.2830   49.3490 C.3       8 GLP5        0.0000 
      7 CA        -10.3315   35.7280   45.5440 C.3       4 GLC5        0.0000 
      8 CA         -8.6890   35.3030   45.8180 C.3       8 GLP5        0.0000 
      9 CA        -12.6675   37.7355   46.2525 C.3       4 GLC5        0.0000 
     10 CA        -13.3610   39.3180   47.2350 C.3       8 GLP5        0.0000 
     11 CA        -11.9940   37.1575   43.5230 C.3       4 GLC5        0.0000 
     12 CA        -12.0140   38.1620   41.7760 C.3       8 GLP5        0.0000 
     13 CA        -14.2205   32.4950   44.1380 C.3       4 GLC5        0.0000 
     14 CA        -12.8890   34.1700   43.9370 C.3      12 GLL5        0.0000 
     15 CA        -15.5520   30.8200   44.3390 C.3       8 GLP5        0.0000 
     16 N         -13.0975   34.0220   46.7555 N.am      2 SEC2        0.0000 
     17 N         -13.9620   34.9420   45.9070 N.am     10 SEL2        0.0000 
     18 N         -12.2330   33.1020   47.6040 N.am      6 SEP2        0.0000 
     19 CA        -15.9485   32.7415   46.4830 C.3       4 GLC5        0.0000 
     20 CA        -16.2800   34.5000   46.0330 C.3      12 GLL5        0.0000 
     21 CA        -15.6170   30.9830   46.9330 C.3       8 GLP5        0.0000 
     22 CA        -18.6630   34.2740   41.7010 C.3       4 GLC5        0.0000 
     23 CA        -16.5960   34.2960   42.4820 C.3      12 GLL5        0.0000 
     24 CA        -20.7300   34.2520   40.9200 C.3       8 GLP5        0.0000 
     25 CA        -16.0740   32.5580   43.4105 C.3       4 GLC5        0.0000 
     26 N         -17.3375   32.1045   39.7325 N.am      2 SEC2        0.0000 
     27 N         -17.3240   33.5430   39.5350 N.am     10 SEL2        0.0000 
     28 N         -17.3510   30.6660   39.9300 N.am      6 SEP2        0.0000 
     29 O         -14.0180   35.1280   40.4160 O.2       1 ALC1        0.0000 
     30 O         -14.9310   33.7020   40.0820 O.2       9 ALL1        0.0000 
     31 O         -13.1050   36.5540   40.7500 O.2       5 ALP1        0.0000 
     32 O         -14.6910   32.3820   39.8930 O.2       1 ALC1        0.0000 
     33 O         -14.4510   31.0620   39.7040 O.2       5 ALP1        0.0000 
     34 Zn        -14.1160   34.2395   39.8760 Zn        3 ZIC7        0.0000 
     35 Zn        -14.9310   33.7020   40.0820 Zn       11 ZIL7        0.0000 
     36 Zn        -13.3010   34.7770   39.6700 Zn        7 ZIP7        0.0000 
     37 CA        -19.8442   35.6863   42.0465 C.3       4 GLC5        0.0000 
     38 CA        -14.2980   37.6960   46.3287 C.3       4 GLC5        0.0000 
     39 CA        -15.2490   36.5550   44.8130 C.3      12 GLL5        0.0000 
     40 CA        -12.4535   35.8620   42.7733 C.3       4 GLC5        0.0000 
     41 CA        -13.1970   35.3780   44.7740 C.3      12 GLL5        0.0000 
     42 CA        -11.8640   36.9500   41.1910 C.3       8 GLP5        0.0000 
     43 CA        -11.9076   33.6899   45.9087 C.3       4 GLC5        0.0000 
     44 CA        -11.0780   32.4120   47.3380 C.3       8 GLP5        0.0000 
@<TRIPOS>BOND
@<TRIPOS>SUBSTRUCTURE
     1 ALC1       29 GROUP        1 X    ALC  0     ROOT ALC X 1
     2 SEC2       16 GROUP        1 X    SEC  0     **** SEC X 2
     3 ZIC7       34 GROUP        1 X    ZIC  0     **** ZIC X 5
     4 GLC5        1 GROUP        1 X    GLC  0     **** GLC X 6
     5 ALP1       31 GROUP        1 Y    ALP  0     ROOT ALP Y 8
     6 SEP2       18 GROUP        1 Y    SEP  0     **** SEP Y 9
     7 ZIP7       36 GROUP        1 Y    ZIP  0     **** ZIP Y 12
     8 GLP5        3 GROUP        1 Y    GLP  0     **** GLP Y 13
     9 ALL1       30 GROUP        1 Z    ALL  0     ROOT ALL Z 15
    10 SEL2       17 GROUP        1 Z    SEL  0     **** SEL Z 16
    11 ZIL7       35 GROUP        1 Z    ZIL  0     **** ZIL Z 19
    12 GLL5        2 GROUP        1 Z    GLL  0     **** GLL Z 20
@<TRIPOS>SET

