#    Name: 3lxe_TOR_1_ligand
#    Modification time : Mon Mar 24 22:24:36 2014

@<TRIPOS>MOLECULE
3lxe_TOR_1_ligand
   43    45     1     0     0
SMALL
NO_CHARGES


@<TRIPOS>ATOM
      1 CAT       -19.9080   36.8120   44.8220 C.3       1 TOR262      0.0000 
      2 CAU       -18.7750   36.7690   43.8230 C.3       1 TOR262      0.0000 
      3 CAV       -19.1420   37.4720   42.5230 C.3       1 TOR262      0.0000 
      4 OAR       -18.4590   35.3750   43.5640 O.3       1 TOR262      0.0000 
      5 OAQ       -17.5480   37.2210   44.4390 O.3       1 TOR262      0.0000 
      6 CAK       -16.4530   36.5000   43.8620 C.3       1 TOR262      0.0000 
      7 CAG       -15.2490   36.5550   44.8130 C.3       1 TOR262      0.0000 
      8 OAF       -14.1100   36.2060   44.0390 O.3       1 TOR262      0.0000 
      9 CAE       -13.1970   35.3780   44.7740 C.3       1 TOR262      0.0000 
     10 CAD       -11.9740   36.1530   45.2700 C.3       1 TOR262      0.0000 
     11 CAJ       -12.8890   34.1700   43.9370 C.3       1 TOR262      0.0000 
     12 OAA       -13.9620   34.9420   45.9070 O.3       1 TOR262      0.0000 
     13 CAB       -15.2210   35.5930   46.0320 C.3       1 TOR262      0.0000 
     14 CAC       -16.2800   34.5000   46.0330 C.3       1 TOR262      0.0000 
     15 OAH       -16.7340   34.1490   44.7020 O.3       1 TOR262      0.0000 
     16 CAL       -17.0710   35.0810   43.6810 C.3       1 TOR262      0.0000 
     17 CAM       -16.5960   34.2960   42.4820 C.3       1 TOR262      0.0000 
     18 OAN       -16.7790   35.0520   41.2480 O.3       1 TOR262      0.0000 
     19 SAO       -16.3050   34.4690   39.8670 S.o2      1 TOR262      0.0000 
     20 OAS       -17.3240   33.5430   39.5350 O.2       1 TOR262      0.0000 
     21 OAI       -16.1080   35.6540   39.1060 O.2       1 TOR262      0.0000 
     22 NAP       -14.9310   33.7020   40.0820 N.pl3     1 TOR262      0.0000 
     23 H         -16.2087   36.8810   42.9101 H         1 TOR262      0.0000 
     24 H         -15.1306   37.5678   45.1780 H         1 TOR262      0.0000 
     25 H         -15.2621   36.1621   46.9212 H         1 TOR262      0.0000 
     26 H         -17.1265   34.8468   46.6580 H         1 TOR262      0.0000 
     27 H         -15.8563   33.6161   46.5493 H         1 TOR262      0.0000 
     28 H         -17.1538   33.3482   42.4412 H         1 TOR262      0.0000 
     29 H         -15.5347   34.0438   42.6272 H         1 TOR262      0.0000 
     30 H         -14.3251   34.0734   40.7856 H         1 TOR262      0.0000 
     31 H         -14.7755   32.9056   39.4976 H         1 TOR262      0.0000 
     32 H         -19.6695   36.3466   45.6743 H         1 TOR262      0.0000 
     33 H         -20.1575   37.7506   45.0605 H         1 TOR262      0.0000 
     34 H         -20.7324   36.3706   44.4678 H         1 TOR262      0.0000 
     35 H         -18.3911   37.4480   41.8630 H         1 TOR262      0.0000 
     36 H         -19.9333   37.0483   42.0822 H         1 TOR262      0.0000 
     37 H         -19.3701   38.4341   42.6726 H         1 TOR262      0.0000 
     38 H         -11.3439   35.5664   45.7788 H         1 TOR262      0.0000 
     39 H         -11.4562   36.5531   44.5139 H         1 TOR262      0.0000 
     40 H         -12.2316   36.9036   45.8784 H         1 TOR262      0.0000 
     41 H         -12.4758   34.4204   43.0615 H         1 TOR262      0.0000 
     42 H         -12.2505   33.5527   44.3966 H         1 TOR262      0.0000 
     43 H         -13.7122   33.6406   43.7318 H         1 TOR262      0.0000 
@<TRIPOS>BOND
     1    2    1 1    
     2   32    1 1    
     3   33    1 1    
     4   34    1 1    
     5    3    2 1    
     6    4    2 1    
     7    5    2 1    
     8   35    3 1    
     9   36    3 1    
    10   37    3 1    
    11   16    4 1    
    12    6    5 1    
    13    7    6 1    
    14   16    6 1    
    15   23    6 1    
    16    8    7 1    
    17   13    7 1    
    18   24    7 1    
    19    9    8 1    
    20   10    9 1    
    21   11    9 1    
    22   12    9 1    
    23   38   10 1    
    24   39   10 1    
    25   40   10 1    
    26   41   11 1    
    27   42   11 1    
    28   43   11 1    
    29   13   12 1    
    30   14   13 1    
    31   25   13 1    
    32   15   14 1    
    33   26   14 1    
    34   27   14 1    
    35   16   15 1    
    36   17   16 1    
    37   18   17 1    
    38   28   17 1    
    39   29   17 1    
    40   19   18 1    
    41   20   19 2    
    42   21   19 2    
    43   22   19 1    
    44   30   22 1    
    45   31   22 1    
@<TRIPOS>SUBSTRUCTURE
     1 TOR262      1 GROUP   
@<TRIPOS>SET

