#    Name: 3buz_TAD_1_INTS_M
#    Modification time : Mon Mar 24 20:06:34 2014

@<TRIPOS>MOLECULE
3buz_TAD_1_INTS_M
   84     0    12     0     0
SMALL
NO_CHARGES


@<TRIPOS>ATOM
      1 NZ         29.7020   50.8065  -40.1365 N.4       3 LYC4        0.0000 
      2 NZ         28.6620   50.7170  -39.0260 N.4      11 LYL4        0.0000 
      3 NZ         31.7860   51.6900  -40.9710 N.4       7 LYP4        0.0000 
      4 N          29.7020   50.8065  -40.1365 N.am      2 SEC2        0.0000 
      5 N          28.6620   50.7170  -39.0260 N.am     10 SEL2        0.0000 
      6 N          30.7420   50.8960  -41.2470 N.am      6 SEP2        0.0000 
      7 N          27.8275   52.1340  -39.1350 N.am      2 SEC2        0.0000 
      8 N          26.9930   53.5510  -39.2440 N.am      6 SEP2        0.0000 
      9 N          27.2625   49.7450  -36.7805 N.am      2 SEC2        0.0000 
     10 N          27.5730   48.7580  -37.5560 N.am     10 SEL2        0.0000 
     11 N          26.9520   50.7320  -36.0050 N.am      6 SEP2        0.0000 
     12 CA         26.1125   46.3595  -38.2525 C.3       4 GLC5        0.0000 
     13 CA         27.4470   47.2780  -39.7800 C.3      12 GLL5        0.0000 
     14 CA         24.7780   45.4410  -36.7250 C.3       8 GLP5        0.0000 
     15 CA         28.6410   47.9320  -44.6710 C.3       4 GLC5        0.0000 
     16 CA         27.3220   48.2690  -42.9090 C.3      12 GLL5        0.0000 
     17 CA         29.9600   47.5950  -46.4330 C.3       8 GLP5        0.0000 
     18 CA         27.6575   50.2950  -43.6535 C.3       4 GLC5        0.0000 
     19 CA         27.9930   52.3210  -44.3980 C.3       8 GLP5        0.0000 
     20 O          28.5615   49.3995  -44.1595 O.2       1 ALC1        0.0000 
     21 O          27.5570   48.2620  -44.3260 O.2       9 ALL1        0.0000 
     22 O          29.5660   50.5370  -43.9930 O.2       5 ALP1        0.0000 
     23 N          26.7880   52.8010  -40.2645 N.am      2 SEC2        0.0000 
     24 N          26.5830   52.0510  -41.2850 N.am     10 SEL2        0.0000 
     25 O          25.4910   55.0990  -40.9165 O.2       1 ALC1        0.0000 
     26 O          25.1830   54.7910  -42.0970 O.2       9 ALL1        0.0000 
     27 O          25.7990   55.4070  -39.7360 O.2       5 ALP1        0.0000 
     28 CA         21.9905   52.4995  -42.7435 C.3       4 GLC5        0.0000 
     29 CA         23.5500   52.2340  -44.0360 C.3      12 GLL5        0.0000 
     30 CA         20.4310   52.7650  -41.4510 C.3       8 GLP5        0.0000 
     31 CA         23.8540   50.7030  -44.9980 C.3       4 GLC5        0.0000 
     32 CA         24.1580   49.1720  -45.9600 C.3       8 GLP5        0.0000 
     33 CA         25.0870   52.4355  -45.3135 C.3       4 GLC5        0.0000 
     34 CA         26.6240   52.6370  -46.5910 C.3       8 GLP5        0.0000 
     35 CA         24.6530   50.1150  -44.3635 C.3       4 GLC5        0.0000 
     36 CA         25.1480   51.0580  -42.7670 C.3      12 GLL5        0.0000 
     37 CA         31.5940   50.6500  -36.8060 C.3       4 GLC5        0.0000 
     38 CA         30.1510   49.2410  -37.5420 C.3      12 GLL5        0.0000 
     39 CA         33.0370   52.0590  -36.0700 C.3       8 GLP5        0.0000 
     40 NZ         31.3205   46.7695  -40.2590 N.4       3 LYC4        0.0000 
     41 NZ         31.7990   47.9340  -39.2880 N.4      11 LYL4        0.0000 
     42 NZ         31.6110   46.1780  -42.1460 N.4       7 LYP4        0.0000 
     43 N          31.8790   47.7005  -40.6460 N.am      2 SEC2        0.0000 
     44 N          31.7990   47.9340  -39.2880 N.am     10 SEL2        0.0000 
     45 N          31.9590   47.4670  -42.0040 N.am      6 SEP2        0.0000 
     46 N          31.3205   46.7695  -40.2590 N.am      2 SEC2        0.0000 
     47 N          30.8420   45.6050  -41.2300 N.am      6 SEP2        0.0000 
     48 N          30.3395   46.1440  -39.6895 N.am      2 SEC2        0.0000 
     49 N          29.8370   46.6830  -38.1490 N.am     10 SEL2        0.0000 
     50 CA         30.7245   45.2320  -35.7950 C.3       4 GLC5        0.0000 
     51 CA         32.2460   45.8800  -36.6340 C.3      12 GLL5        0.0000 
     52 CA         29.2030   44.5840  -34.9560 C.3       8 GLP5        0.0000 
     53 CA         33.3870   50.0390  -35.3370 C.3       4 GLC5        0.0000 
     54 CA         33.7370   48.0190  -34.6040 C.3      12 GLL5        0.0000 
     55 O          33.8275   49.9660  -34.1635 O.2       1 ALC1        0.0000 
     56 O          34.0290   48.5740  -33.3220 O.2       9 ALL1        0.0000 
     57 O          33.6260   51.3580  -35.0050 O.2       5 ALP1        0.0000 
     58 O          34.4325   49.8625  -33.1040 O.2       1 ALC1        0.0000 
     59 O          34.8360   51.1510  -32.8860 O.2       5 ALP1        0.0000 
     60 CA         37.1675   51.5560  -37.6835 C.3       4 GLC5        0.0000 
     61 CA         37.1210   49.4390  -37.6260 C.3      12 GLL5        0.0000 
     62 CA         37.2140   53.6730  -37.7410 C.3       8 GLP5        0.0000 
     63 CA         39.0140   50.1610  -37.6270 C.3       4 GLC5        0.0000 
     64 CA         40.9070   50.8830  -37.6280 C.3       8 GLP5        0.0000 
     65 CA         38.1635   47.8805  -34.4090 C.3       4 GLC5        0.0000 
     66 CA         37.0390   48.8920  -35.9590 C.3      12 GLL5        0.0000 
     67 CA         39.2880   46.8690  -32.8590 C.3       8 GLP5        0.0000 
     68 CA         37.1005   50.2965  -34.4045 C.3       4 GLC5        0.0000 
     69 CA         37.1620   51.7010  -32.8500 C.3       8 GLP5        0.0000 
     70 N          36.5935   50.0895  -41.7510 N.am      2 SEC2        0.0000 
     71 N          36.7050   49.7070  -40.5480 N.am     10 SEL2        0.0000 
     72 N          36.4820   50.4720  -42.9540 N.am      6 SEP2        0.0000 
     73 O          34.3345   49.1195  -41.7185 O.2       1 ALC1        0.0000 
     74 O          34.6330   48.9590  -40.3050 O.2       9 ALL1        0.0000 
     75 O          34.0360   49.2800  -43.1320 O.2       5 ALP1        0.0000 
     76 CA         25.3837   48.8195  -44.3407 C.3       4 GLC5        0.0000 
     77 CA         24.0744   52.4739  -41.0659 C.3       4 GLC5        0.0000 
     78 CA         25.5760   52.3400  -42.1560 C.3      12 GLL5        0.0000 
     79 CA         22.9670   52.9400  -39.5600 C.3       8 GLP5        0.0000 
     80 CA         26.5874   52.1644  -43.4849 C.3       4 GLC5        0.0000 
     81 CA         24.8550   53.5750  -42.5970 C.3      12 GLL5        0.0000 
     82 CA         31.3838   45.6935  -34.3517 C.3       4 GLC5        0.0000 
     83 CA         32.6990   46.9410  -34.4140 C.3      12 GLL5        0.0000 
     84 CA         29.8760   45.0020  -33.8060 C.3       8 GLP5        0.0000 
@<TRIPOS>BOND
@<TRIPOS>SUBSTRUCTURE
     1 ALC1       20 GROUP        1 X    ALC  0     ROOT ALC X 1
     2 SEC2        4 GROUP        1 X    SEC  0     **** SEC X 2
     3 LYC4        1 GROUP        1 X    LYC  0     **** LYC X 4
     4 GLC5       12 GROUP        1 X    GLC  0     **** GLC X 6
     5 ALP1       22 GROUP        1 Y    ALP  0     ROOT ALP Y 8
     6 SEP2        6 GROUP        1 Y    SEP  0     **** SEP Y 9
     7 LYP4        3 GROUP        1 Y    LYP  0     **** LYP Y 11
     8 GLP5       14 GROUP        1 Y    GLP  0     **** GLP Y 13
     9 ALL1       21 GROUP        1 Z    ALL  0     ROOT ALL Z 15
    10 SEL2        5 GROUP        1 Z    SEL  0     **** SEL Z 16
    11 LYL4        2 GROUP        1 Z    LYL  0     **** LYL Z 18
    12 GLL5       13 GROUP        1 Z    GLL  0     **** GLL Z 20
@<TRIPOS>SET

