#    Name: 3buz_TAD_1_ligand
#    Modification time : Mon Mar 24 20:06:34 2014

@<TRIPOS>MOLECULE
3buz_TAD_1_ligand
   68    72     1     0     0
SMALL
NO_CHARGES


@<TRIPOS>ATOM
      1 PA         28.6140   49.2800  -38.5060 P.3       1 TAD500      0.0000 
      2 O1A        28.6620   50.7170  -39.0260 O.co2     1 TAD500      0.0000 
      3 O2A        27.5730   48.7580  -37.5560 O.co2     1 TAD500      0.0000 
      4 O5B        28.4100   48.3370  -39.8150 O.3       1 TAD500      0.0000 
      5 C5B        27.4470   47.2780  -39.7800 C.3       1 TAD500      0.0000 
      6 C4B        26.6660   46.9620  -41.0670 C.3       1 TAD500      0.0000 
      7 O4B        25.6150   47.9090  -41.3610 O.3       1 TAD500      0.0000 
      8 C3B        27.5220   46.8990  -42.3020 C.3       1 TAD500      0.0000 
      9 O3B        26.9270   45.9280  -43.1570 O.3       1 TAD500      0.0000 
     10 C2B        27.3220   48.2690  -42.9090 C.3       1 TAD500      0.0000 
     11 O2B        27.5570   48.2620  -44.3260 O.3       1 TAD500      0.0000 
     12 C1B        25.8970   48.6650  -42.5340 C.3       1 TAD500      0.0000 
     13 N9A        25.9170   50.1110  -42.2290 N.pl3     1 TAD500      0.0000 
     14 C8A        26.7670   50.7040  -41.3540 C.2       1 TAD500      0.0000 
     15 N7A        26.5830   52.0510  -41.2850 N.2       1 TAD500      0.0000 
     16 C5A        25.5760   52.3400  -42.1560 C.ar      1 TAD500      0.0000 
     17 C6A        24.8550   53.5750  -42.5970 C.ar      1 TAD500      0.0000 
     18 N6A        25.1830   54.7910  -42.0970 N.pl3     1 TAD500      0.0000 
     19 N1A        23.8630   53.4420  -43.5160 N.ar      1 TAD500      0.0000 
     20 C2A        23.5500   52.2340  -44.0360 C.ar      1 TAD500      0.0000 
     21 N3A        24.1560   51.0830  -43.6800 N.ar      1 TAD500      0.0000 
     22 C4A        25.1480   51.0580  -42.7670 C.ar      1 TAD500      0.0000 
     23 C3         30.1510   49.2410  -37.5420 C.3       1 TAD500      0.0000 
     24 PN         30.9460   47.7210  -38.0650 P.3       1 TAD500      0.0000 
     25 O1N        31.7990   47.9340  -39.2880 O.co2     1 TAD500      0.0000 
     26 O2N        29.8370   46.6830  -38.1490 O.co2     1 TAD500      0.0000 
     27 O5D        31.9180   47.2610  -36.8600 O.3       1 TAD500      0.0000 
     28 C5D        32.2460   45.8800  -36.6340 C.3       1 TAD500      0.0000 
     29 C4D        33.0840   45.8290  -35.3810 C.3       1 TAD500      0.0000 
     30 O4D        34.4420   46.0470  -35.7470 O.3       1 TAD500      0.0000 
     31 C3D        32.6990   46.9410  -34.4140 C.3       1 TAD500      0.0000 
     32 O3D        32.8230   46.4310  -33.0770 O.3       1 TAD500      0.0000 
     33 C2D        33.7370   48.0190  -34.6040 C.3       1 TAD500      0.0000 
     34 O2D        34.0290   48.5740  -33.3220 O.3       1 TAD500      0.0000 
     35 C1D        34.9310   47.2990  -35.2350 C.3       1 TAD500      0.0000 
     36 C2N        35.5580   48.0550  -36.3620 C.2       1 TAD500      0.0000 
     37 N3N        35.2070   48.1900  -37.6670 N.2       1 TAD500      0.0000 
     38 C4N        36.0580   48.9640  -38.3920 C.2       1 TAD500      0.0000 
     39 C5N        37.1210   49.4390  -37.6260 C.2       1 TAD500      0.0000 
     40 S1N        37.0390   48.8920  -35.9590 S.3       1 TAD500      0.0000 
     41 C6N        35.8350   49.2410  -39.8340 C.2       1 TAD500      0.0000 
     42 O6N        36.7050   49.7070  -40.5480 O.2       1 TAD500      0.0000 
     43 N6N        34.6330   48.9590  -40.3050 N.am      1 TAD500      0.0000 
     44 H          26.6760   47.4660  -38.9733 H         1 TAD500      0.0000 
     45 H          27.9306   46.3093  -39.4506 H         1 TAD500      0.0000 
     46 H          26.2090   45.9602  -40.9459 H         1 TAD500      0.0000 
     47 H          28.4978   46.7403  -42.0606 H         1 TAD500      0.0000 
     48 H          27.9910   48.9503  -42.3903 H         1 TAD500      0.0000 
     49 H          25.2652   48.4407  -43.3317 H         1 TAD500      0.0000 
     50 H          27.4438   50.2160  -40.8255 H         1 TAD500      0.0000 
     51 H          25.5758   54.7973  -41.1774 H         1 TAD500      0.0000 
     52 H          25.0032   55.5745  -42.6919 H         1 TAD500      0.0000 
     53 H          22.7771   52.1900  -44.7720 H         1 TAD500      0.0000 
     54 H          29.8805   49.1197  -36.5844 H         1 TAD500      0.0000 
     55 H          30.7135   50.0002  -37.8770 H         1 TAD500      0.0000 
     56 H          32.8238   45.4680  -37.4550 H         1 TAD500      0.0000 
     57 H          31.3557   45.2787  -36.4809 H         1 TAD500      0.0000 
     58 H          32.9562   44.8898  -34.8989 H         1 TAD500      0.0000 
     59 H          31.7543   47.2998  -34.6420 H         1 TAD500      0.0000 
     60 H          33.3575   48.7275  -35.2947 H         1 TAD500      0.0000 
     61 H          35.6624   47.1176  -34.4648 H         1 TAD500      0.0000 
     62 H          37.8536   49.9723  -37.7947 H         1 TAD500      0.0000 
     63 H          34.4870   49.1428  -41.2771 H         1 TAD500      0.0000 
     64 H          33.9785   48.5874  -39.6466 H         1 TAD500      0.0000 
     65 H          27.0384   46.2939  -44.0809 H         1 TAD500      0.0000 
     66 H          28.2132   49.0000  -44.4830 H         1 TAD500      0.0000 
     67 H          33.5319   46.9928  -32.6506 H         1 TAD500      0.0000 
     68 H          33.8188   49.5478  -33.4077 H         1 TAD500      0.0000 
@<TRIPOS>BOND
     1    2    1 ar   
     2    3    1 ar   
     3    4    1 1    
     4   23    1 1    
     5    5    4 1    
     6    6    5 1    
     7   44    5 1    
     8   45    5 1    
     9    7    6 1    
    10    8    6 1    
    11   46    6 1    
    12   12    7 1    
    13    9    8 1    
    14   10    8 1    
    15   47    8 1    
    16   65    9 1    
    17   11   10 1    
    18   12   10 1    
    19   48   10 1    
    20   66   11 1    
    21   13   12 1    
    22   49   12 1    
    23   14   13 1    
    24   22   13 1    
    25   15   14 2    
    26   50   14 1    
    27   16   15 1    
    28   17   16 ar   
    29   22   16 ar   
    30   18   17 1    
    31   19   17 ar   
    32   51   18 1    
    33   52   18 1    
    34   20   19 ar   
    35   21   20 ar   
    36   53   20 1    
    37   22   21 ar   
    38   24   23 1    
    39   54   23 1    
    40   55   23 1    
    41   25   24 ar   
    42   26   24 ar   
    43   27   24 1    
    44   28   27 1    
    45   29   28 1    
    46   56   28 1    
    47   57   28 1    
    48   30   29 1    
    49   31   29 1    
    50   58   29 1    
    51   35   30 1    
    52   32   31 1    
    53   33   31 1    
    54   59   31 1    
    55   67   32 1    
    56   34   33 1    
    57   35   33 1    
    58   60   33 1    
    59   68   34 1    
    60   36   35 1    
    61   61   35 1    
    62   37   36 2    
    63   40   36 1    
    64   38   37 1    
    65   39   38 2    
    66   41   38 1    
    67   40   39 1    
    68   62   39 1    
    69   42   41 2    
    70   43   41 am   
    71   63   43 1    
    72   64   43 1    
@<TRIPOS>SUBSTRUCTURE
     1 TAD500      1 GROUP   
@<TRIPOS>SET

