#    Name: 1lhr_ATP_1_INTS_M
#    Modification time : Tue Mar 25 11:07:32 2014

@<TRIPOS>MOLECULE
1lhr_ATP_1_INTS_M
   54     0    12     0     0
SMALL
NO_CHARGES


@<TRIPOS>ATOM
      1 Zn         27.7730   -3.5400   57.5885 Zn        3 ZIC7        0.0000 
      2 Zn         26.6850   -3.0810   57.1480 Zn       11 ZIL7        0.0000 
      3 Zn         28.8610   -3.9990   58.0290 Zn        7 ZIP7        0.0000 
      4 N          27.8800    0.3595   58.0330 N.am      2 SEC2        0.0000 
      5 N          27.2650   -0.6480   56.8970 N.am     10 SEL2        0.0000 
      6 N          28.4950    1.3670   59.1690 N.am      6 SEP2        0.0000 
      7 Zn         28.7700   -3.4610   59.1275 Zn        3 ZIC7        0.0000 
      8 Zn         28.6790   -2.9230   60.2260 Zn       11 ZIL7        0.0000 
      9 N          26.6855   -5.7405   60.1105 N.am      2 SEC2        0.0000 
     10 N          26.3600   -4.0600   60.0940 N.am     10 SEL2        0.0000 
     11 N          27.0110   -7.4210   60.1270 N.am      6 SEP2        0.0000 
     12 N          25.6540   -4.1860   63.9970 N.am      2 SEC2        0.0000 
     13 N          26.0930   -3.1270   63.4920 N.am     10 SEL2        0.0000 
     14 N          25.2150   -5.2450   64.5020 N.am      6 SEP2        0.0000 
     15 CA         28.6585   -1.5995   63.9680 C.3       4 GLC5        0.0000 
     16 CA         27.5120   -0.0090   63.0740 C.3      12 GLL5        0.0000 
     17 CA         29.8050   -3.1900   64.8620 C.3       8 GLP5        0.0000 
     18 CA         28.5550    0.2285   61.2500 C.3       4 GLC5        0.0000 
     19 CA         29.5980    0.4660   59.4260 C.3       8 GLP5        0.0000 
     20 CA         27.7245    3.3225   64.5745 C.3       4 GLC5        0.0000 
     21 CA         27.5650    1.1540   64.0040 C.3      12 GLL5        0.0000 
     22 CA         27.8840    5.4910   65.1450 C.3       8 GLP5        0.0000 
     23 CA         26.7090    3.7930   64.9765 C.3       4 GLC5        0.0000 
     24 CA         25.5340    2.0950   64.8080 C.3      12 GLL5        0.0000 
     25 CA         24.5410    3.9695   64.6055 C.3       4 GLC5        0.0000 
     26 CA         23.5480    5.8440   64.4030 C.3       8 GLP5        0.0000 
     27 CA         19.5915    3.9260   65.3305 C.3       4 GLC5        0.0000 
     28 CA         20.6640    2.4000   64.9280 C.3      12 GLL5        0.0000 
     29 CA         18.5190    5.4520   65.7330 C.3       8 GLP5        0.0000 
     30 O          18.1455    2.6405   64.4995 O.2       1 ALC1        0.0000 
     31 O          19.5250    2.1910   64.2810 O.2       9 ALL1        0.0000 
     32 O          16.7660    3.0900   64.7180 O.2       5 ALP1        0.0000 
     33 N          19.3580    3.1800   66.6190 N.am      2 SEC2        0.0000 
     34 N          20.6500    2.9430   66.1820 N.am     10 SEL2        0.0000 
     35 N          18.0660    3.4170   67.0560 N.am      6 SEP2        0.0000 
     36 CA         21.6705    1.0945   67.0815 C.3       4 GLC5        0.0000 
     37 CA         21.8080    3.1530   66.8310 C.3      12 GLL5        0.0000 
     38 CA         21.5330   -0.9640   67.3320 C.3       8 GLP5        0.0000 
     39 CA         20.1520    2.5015   67.8345 C.3       4 GLC5        0.0000 
     40 CA         18.4960    1.8500   68.8380 C.3       8 GLP5        0.0000 
     41 CA         20.6840    4.5340   66.7815 C.3       4 GLC5        0.0000 
     42 CA         19.5600    5.9150   66.7320 C.3       8 GLP5        0.0000 
     43 CA         22.6780    4.4985   65.6170 C.3       4 GLC5        0.0000 
     44 CA         26.8058    1.8403   61.9500 C.3       4 GLC5        0.0000 
     45 CA         26.0730    3.1080   60.3610 C.3       8 GLP5        0.0000 
     46 CA         29.3890    1.4533   65.0680 C.3       4 GLC5        0.0000 
     47 CA         31.2740    1.9390   65.3950 C.3       8 GLP5        0.0000 
     48 CA         27.1508    1.1680   67.4723 C.3       4 GLC5        0.0000 
     49 CA         27.4430    0.7810   65.4780 C.3      12 GLL5        0.0000 
     50 CA         27.5940    1.4690   69.3430 C.3       8 GLP5        0.0000 
     51 CA         23.0127    4.0300   64.5637 C.3       4 GLC5        0.0000 
     52 CA         21.9230    2.0840   64.3350 C.3      12 GLL5        0.0000 
     53 CA         21.8479    0.6655   66.1024 C.3       4 GLC5        0.0000 
     54 CA         23.0320    2.3480   65.1140 C.3      12 GLL5        0.0000 
@<TRIPOS>BOND
@<TRIPOS>SUBSTRUCTURE
     1 ALC1       30 GROUP        1 X    ALC  0     ROOT ALC X 1
     2 SEC2        4 GROUP        1 X    SEC  0     **** SEC X 2
     3 ZIC7        1 GROUP        1 X    ZIC  0     **** ZIC X 5
     4 GLC5       15 GROUP        1 X    GLC  0     **** GLC X 6
     5 ALP1       32 GROUP        1 Y    ALP  0     ROOT ALP Y 8
     6 SEP2        6 GROUP        1 Y    SEP  0     **** SEP Y 9
     7 ZIP7        3 GROUP        1 Y    ZIP  0     **** ZIP Y 12
     8 GLP5       17 GROUP        1 Y    GLP  0     **** GLP Y 13
     9 ALL1       31 GROUP        1 Z    ALL  0     ROOT ALL Z 15
    10 SEL2        5 GROUP        1 Z    SEL  0     **** SEL Z 16
    11 ZIL7        2 GROUP        1 Z    ZIL  0     **** ZIL Z 19
    12 GLL5       16 GROUP        1 Z    GLL  0     **** GLL Z 20
@<TRIPOS>SET

