#    Name: 1lhr_ATP_1_ligand
#    Modification time : Tue Mar 25 11:07:32 2014

@<TRIPOS>MOLECULE
1lhr_ATP_1_ligand
   43    45     1     0     0
SMALL
NO_CHARGES


@<TRIPOS>ATOM
      1 PG         26.3890   -1.6950   57.5700 P.3       1 ATP401      0.0000 
      2 O1G        24.9660   -1.2970   57.4970 O.co2     1 ATP401      0.0000 
      3 O2G        26.6850   -3.0810   57.1480 O.co2     1 ATP401      0.0000 
      4 O3G        27.2650   -0.6480   56.8970 O.co2     1 ATP401      0.0000 
      5 PB         27.1850   -2.8280   60.2350 P.3       1 ATP401      0.0000 
      6 O1B        28.6790   -2.9230   60.2260 O.co2     1 ATP401      0.0000 
      7 O2B        26.3600   -4.0600   60.0940 O.co2     1 ATP401      0.0000 
      8 O3B        26.7680   -1.6840   59.1310 O.3       1 ATP401      0.0000 
      9 PA         25.8130   -1.9870   62.5810 P.3       1 ATP401      0.0000 
     10 O1A        24.4630   -1.8190   61.9930 O.co2     1 ATP401      0.0000 
     11 O2A        26.0930   -3.1270   63.4920 O.co2     1 ATP401      0.0000 
     12 O3A        26.8350   -1.9690   61.4170 O.3       1 ATP401      0.0000 
     13 O5'        26.2330   -0.6500   63.2530 O.3       1 ATP401      0.0000 
     14 C5'        27.5120   -0.0090   63.0740 C.3       1 ATP401      0.0000 
     15 C4'        27.5650    1.1540   64.0040 C.3       1 ATP401      0.0000 
     16 O4'        26.4020    1.9640   63.6770 O.3       1 ATP401      0.0000 
     17 C3'        27.4430    0.7810   65.4780 C.3       1 ATP401      0.0000 
     18 O3'        28.2840    1.6960   66.2100 O.3       1 ATP401      0.0000 
     19 C2'        25.9720    0.9530   65.7250 C.3       1 ATP401      0.0000 
     20 O2'        25.6480    1.2710   67.0680 O.3       1 ATP401      0.0000 
     21 C1'        25.5340    2.0950   64.8080 C.3       1 ATP401      0.0000 
     22 N9         24.1080    1.9770   64.3650 N.pl3     1 ATP401      0.0000 
     23 C8         23.5790    1.4950   63.1800 C.2       1 ATP401      0.0000 
     24 N7         22.2790    1.5320   63.1080 N.2       1 ATP401      0.0000 
     25 C5         21.9230    2.0840   64.3350 C.ar      1 ATP401      0.0000 
     26 C6         20.6640    2.4000   64.9280 C.ar      1 ATP401      0.0000 
     27 N6         19.5250    2.1910   64.2810 N.pl3     1 ATP401      0.0000 
     28 N1         20.6500    2.9430   66.1820 N.ar      1 ATP401      0.0000 
     29 C2         21.8080    3.1530   66.8310 C.ar      1 ATP401      0.0000 
     30 N3         23.0580    2.8990   66.3870 N.ar      1 ATP401      0.0000 
     31 C4         23.0320    2.3480   65.1140 C.ar      1 ATP401      0.0000 
     32 H          27.6326    0.3462   62.0514 H         1 ATP401      0.0000 
     33 H          28.3283   -0.6909   63.3086 H         1 ATP401      0.0000 
     34 H          28.4513    1.7188   63.8471 H         1 ATP401      0.0000 
     35 H          27.7174   -0.2257   65.5762 H         1 ATP401      0.0000 
     36 H          25.4607    0.0653   65.3767 H         1 ATP401      0.0000 
     37 H          25.7067    3.0152   65.3095 H         1 ATP401      0.0000 
     38 H          24.1890    1.1504   62.4529 H         1 ATP401      0.0000 
     39 H          18.6872    2.3907   64.7892 H         1 ATP401      0.0000 
     40 H          19.6071    1.8527   63.3436 H         1 ATP401      0.0000 
     41 H          21.7319    3.5794   67.8365 H         1 ATP401      0.0000 
     42 H          27.6750    2.1350   66.8706 H         1 ATP401      0.0000 
     43 H          24.8194    1.8277   67.0093 H         1 ATP401      0.0000 
@<TRIPOS>BOND
     1    2    1 ar   
     2    3    1 ar   
     3    4    1 ar   
     4    8    1 1    
     5    6    5 ar   
     6    7    5 ar   
     7    8    5 1    
     8   12    5 1    
     9   10    9 ar   
    10   11    9 ar   
    11   12    9 1    
    12   13    9 1    
    13   14   13 1    
    14   15   14 1    
    15   32   14 1    
    16   33   14 1    
    17   16   15 1    
    18   17   15 1    
    19   34   15 1    
    20   21   16 1    
    21   18   17 1    
    22   19   17 1    
    23   35   17 1    
    24   42   18 1    
    25   20   19 1    
    26   21   19 1    
    27   36   19 1    
    28   43   20 1    
    29   22   21 1    
    30   37   21 1    
    31   23   22 1    
    32   31   22 1    
    33   24   23 2    
    34   38   23 1    
    35   25   24 1    
    36   26   25 ar   
    37   31   25 ar   
    38   27   26 1    
    39   28   26 ar   
    40   39   27 1    
    41   40   27 1    
    42   29   28 ar   
    43   30   29 ar   
    44   41   29 1    
    45   31   30 ar   
@<TRIPOS>SUBSTRUCTURE
     1 ATP401      1 GROUP   
@<TRIPOS>SET

