#    Name: 2fpt_ILB_2_INTS_M
#    Modification time : Tue Mar 25 13:02:25 2014

@<TRIPOS>MOLECULE
2fpt_ILB_2_INTS_M
   90     0     9     0     0
SMALL
NO_CHARGES


@<TRIPOS>ATOM
      1 CA         57.0715   46.2160    0.2935 C.3       3 GLC5        0.0000 
      2 CA         55.1640   47.2410    0.3520 C.3       9 GLL5        0.0000 
      3 CA         58.9790   45.1910    0.2350 C.3       6 GLP5        0.0000 
      4 CA         54.2085   47.7080    2.2020 C.3       3 GLC5        0.0000 
      5 CA         53.2530   48.1750    4.0520 C.3       6 GLP5        0.0000 
      6 CA         54.6735   44.2875   -0.0710 C.3       3 GLC5        0.0000 
      7 CA         54.1760   46.2880   -0.0580 C.3       9 GLL5        0.0000 
      8 CA         55.1710   42.2870   -0.0840 C.3       6 GLP5        0.0000 
      9 CA         53.4955   48.1745    0.1865 C.3       3 GLC5        0.0000 
     10 CA         52.8150   50.0610    0.4310 C.3       6 GLP5        0.0000 
     11 CA         47.0520   41.2350   -2.7485 C.3       3 GLC5        0.0000 
     12 CA         47.9130   39.5690   -3.0910 C.3       9 GLL5        0.0000 
     13 CA         46.1910   42.9010   -2.4060 C.3       6 GLP5        0.0000 
     14 CA         47.3675   37.0580   -4.5330 C.3       3 GLC5        0.0000 
     15 CA         46.9270   38.4610   -2.9460 C.3       9 GLL5        0.0000 
     16 CA         47.8080   35.6550   -6.1200 C.3       6 GLP5        0.0000 
     17 CA         46.5920   40.3875   -1.9715 C.3       3 GLC5        0.0000 
     18 CA         46.2570   42.3140   -0.9970 C.3       6 GLP5        0.0000 
     19 CA         46.2140   36.9455   -0.1065 C.3       3 GLC5        0.0000 
     20 CA         47.3180   37.7770   -1.6310 C.3       9 GLL5        0.0000 
     21 CA         45.1100   36.1140    1.4180 C.3       6 GLP5        0.0000 
     22 CA         47.2320   39.8810    0.7825 C.3       3 GLC5        0.0000 
     23 CA         47.9100   38.9350   -0.8210 C.3       9 GLL5        0.0000 
     24 CA         46.5540   40.8270    2.3860 C.3       6 GLP5        0.0000 
     25 CA         52.6180   47.4005   -3.7755 C.3       3 GLC5        0.0000 
     26 CA         54.1580   47.2220   -2.4410 C.3       9 GLL5        0.0000 
     27 CA         51.0780   47.5790   -5.1100 C.3       6 GLP5        0.0000 
     28 CA         50.4160   42.9865    1.2850 C.3       3 GLC5        0.0000 
     29 CA         49.5750   43.8000   -0.1360 C.3       9 GLL5        0.0000 
     30 CA         51.2570   42.1730    2.7060 C.3       6 GLP5        0.0000 
     31 N          50.5280   39.5875    0.5255 N.am      1 SEC2        0.0000 
     32 N          50.1430   40.6520   -0.4430 N.am      7 SEL2        0.0000 
     33 N          50.9130   38.5230    1.4940 N.am      4 SEP2        0.0000 
     34 N          48.1260   41.8955   -5.8460 N.am      1 SEC2        0.0000 
     35 N          48.9310   41.1100   -4.6720 N.am      7 SEL2        0.0000 
     36 N          47.3210   42.6810   -7.0200 N.am      4 SEP2        0.0000 
     37 NZ         47.4100   39.7785   -6.8075 N.4       2 LYC4        0.0000 
     38 NZ         47.4370   39.7200   -5.4990 N.4       8 LYL4        0.0000 
     39 NZ         48.4400   39.2300   -8.6530 N.4       5 LYP4        0.0000 
     40 N          47.3790   41.2005   -6.2595 N.am      1 SEC2        0.0000 
     41 N          47.4370   39.7200   -5.4990 N.am      7 SEL2        0.0000 
     42 N          47.4100   39.7785   -6.8075 N.am      1 SEC2        0.0000 
     43 N          47.3830   39.8370   -8.1160 N.am      4 SEP2        0.0000 
     44 CA         55.7380   48.2365   -5.6080 C.3       3 GLC5        0.0000 
     45 CA         56.9180   47.6370   -4.2450 C.3       9 GLL5        0.0000 
     46 CA         54.5580   48.8360   -6.9710 C.3       6 GLP5        0.0000 
     47 CA         58.9585   50.8070   -5.2150 C.3       3 GLC5        0.0000 
     48 CA         57.3370   49.7580   -4.3360 C.3       9 GLL5        0.0000 
     49 CA         60.5800   51.8560   -6.0940 C.3       6 GLP5        0.0000 
     50 CA         55.8765   48.4960    1.4635 C.3       3 GLC5        0.0000 
     51 CA         55.6740   48.1950   -0.6000 C.3       9 GLL5        0.0000 
     52 CA         56.3340   49.2740    3.0510 C.3       6 GLP5        0.0000 
     53 CA         54.0588   49.0108   -0.3155 C.3       3 GLC5        0.0000 
     54 CA         50.5140   45.3683   -2.7468 C.3       3 GLC5        0.0000 
     55 CA         51.5230   45.0240   -0.7590 C.3       9 GLL5        0.0000 
     56 CA         49.9800   46.2460   -4.6270 C.3       6 GLP5        0.0000 
     57 CA         52.0423   41.1803   -4.5902 C.3       3 GLC5        0.0000 
     58 CA         52.0020   42.4190   -4.0840 C.3       9 GLL5        0.0000 
     59 CA         52.1660   39.5430   -5.6120 C.3       6 GLP5        0.0000 
     60 CA         51.3565   45.4970   -3.4490 C.3       3 GLC5        0.0000 
     61 CA         52.7990   44.2840   -2.8510 C.3       9 GLL5        0.0000 
     62 CA         46.3068   36.5095   -2.4882 C.3       3 GLC5        0.0000 
     63 CA         45.4910   34.9000   -2.6880 C.3       6 GLP5        0.0000 
     64 CA         47.2245   40.8500   -1.1700 C.3       3 GLC5        0.0000 
     65 CA         55.6020   50.5078   -3.8007 C.3       3 GLC5        0.0000 
     66 CA         56.9950   48.7590   -3.5450 C.3       9 GLL5        0.0000 
     67 CA         54.0380   51.7570   -3.6610 C.3       6 GLP5        0.0000 
     68 CA         56.5310   50.1123   -5.4432 C.3       3 GLC5        0.0000 
     69 CA         55.8960   50.9660   -6.9460 C.3       6 GLP5        0.0000 
     70 CA         52.8820   48.3192   -1.3478 C.3       3 GLC5        0.0000 
     71 CA         51.8660   49.9060   -0.7480 C.3       6 GLP5        0.0000 
     72 CA         53.4183   43.8402   -1.0022 C.3       3 GLC5        0.0000 
     73 CA         53.6380   46.2430   -1.4540 C.3       9 GLL5        0.0000 
     74 CA         53.6510   42.1850   -0.1420 C.3       6 GLP5        0.0000 
     75 CA         51.9813   43.1651   -0.3216 C.3       3 GLC5        0.0000 
     76 CA         49.3727   45.3306    0.5769 C.3       3 GLC5        0.0000 
     77 CA         48.4340   46.5160    1.6550 C.3       6 GLP5        0.0000 
     78 CA         48.4411   43.9877   -1.6272 C.3       3 GLC5        0.0000 
     79 CA         46.7720   44.3290   -2.4130 C.3       6 GLP5        0.0000 
     80 CA         50.8096   44.5084   -3.9811 C.3       3 GLC5        0.0000 
     81 CA         50.7180   43.0290   -2.1200 C.3       9 GLL5        0.0000 
     82 CA         53.1972   43.8083   -4.8325 C.3       3 GLC5        0.0000 
     83 CA         51.8350   43.2160   -3.0530 C.3       9 GLL5        0.0000 
     84 CA         54.2350   44.5320   -6.1470 C.3       6 GLP5        0.0000 
     85 CA         52.6451   42.4779   -1.7386 C.3       3 GLC5        0.0000 
     86 CA         49.6725   38.3088   -1.1658 C.3       3 GLC5        0.0000 
     87 CA         48.4740   39.8370   -1.8650 C.3       9 GLL5        0.0000 
     88 CA         51.3010   37.5210   -0.7860 C.3       6 GLP5        0.0000 
     89 CA         58.7371   47.3362   -2.5170 C.3       3 GLC5        0.0000 
     90 CA         60.0260   46.2730   -1.7710 C.3       6 GLP5        0.0000 
@<TRIPOS>BOND
@<TRIPOS>SUBSTRUCTURE
     1 SEC2       31 GROUP        1 X    SEC  0     ROOT SEC X 2
     2 LYC4       37 GROUP        1 X    LYC  0     **** LYC X 4
     3 GLC5        1 GROUP        1 X    GLC  0     **** GLC X 6
     4 SEP2       33 GROUP        1 Y    SEP  0     ROOT SEP Y 9
     5 LYP4       39 GROUP        1 Y    LYP  0     **** LYP Y 11
     6 GLP5        3 GROUP        1 Y    GLP  0     **** GLP Y 13
     7 SEL2       32 GROUP        1 Z    SEL  0     ROOT SEL Z 16
     8 LYL4       38 GROUP        1 Z    LYL  0     **** LYL Z 18
     9 GLL5        2 GROUP        1 Z    GLL  0     **** GLL Z 20
@<TRIPOS>SET

