#    Name: 2fpt_ILB_2_ligand
#    Modification time : Tue Mar 25 13:02:25 2014

@<TRIPOS>MOLECULE
2fpt_ILB_2_ligand
   43    45     1     0     0
SMALL
NO_CHARGES


@<TRIPOS>ATOM
      1 C1         55.1640   47.2410    0.3520 C.ar      1 ILB405      0.0000 
      2 C2         55.6740   48.1950   -0.6000 C.ar      1 ILB405      0.0000 
      3 C3         55.1860   48.2030   -2.0000 C.ar      1 ILB405      0.0000 
      4 C7         54.1760   46.2880   -0.0580 C.ar      1 ILB405      0.0000 
      5 C8         51.5230   45.0240   -0.7590 C.ar      1 ILB405      0.0000 
      6 C9         50.5730   43.9570   -0.9740 C.ar      1 ILB405      0.0000 
      7 C11        50.7180   43.0290   -2.1200 C.ar      1 ILB405      0.0000 
      8 C13        51.8350   43.2160   -3.0530 C.ar      1 ILB405      0.0000 
      9 C15        52.7990   44.2840   -2.8510 C.ar      1 ILB405      0.0000 
     10 C16        49.4950   40.8350   -1.5020 C.2       1 ILB405      0.0000 
     11 C19        47.9130   39.5690   -3.0910 C.2       1 ILB405      0.0000 
     12 C20        46.9270   38.4610   -2.9460 C.3       1 ILB405      0.0000 
     13 C21        47.3180   37.7770   -1.6310 C.3       1 ILB405      0.0000 
     14 C22        47.9100   38.9350   -0.8210 C.3       1 ILB405      0.0000 
     15 C27        56.9950   48.7590   -3.5450 C.3       1 ILB405      0.0000 
     16 C4         54.1580   47.2220   -2.4410 C.ar      1 ILB405      0.0000 
     17 C5         53.6380   46.2430   -1.4540 C.ar      1 ILB405      0.0000 
     18 C6         52.6670   45.2120   -1.6910 C.ar      1 ILB405      0.0000 
     19 F10        49.5750   43.8000   -0.1360 F         1 ILB405      0.0000 
     20 N12        49.7950   41.9830   -2.2760 N.am      1 ILB405      0.0000 
     21 F14        52.0020   42.4190   -4.0840 F         1 ILB405      0.0000 
     22 C17        48.4740   39.8370   -1.8650 C.2       1 ILB405      0.0000 
     23 O18        50.1430   40.6520   -0.4430 O.2       1 ILB405      0.0000 
     24 C23        48.1310   40.1780   -4.4400 C.2       1 ILB405      0.0000 
     25 O24        48.9310   41.1100   -4.6720 O.co2     1 ILB405      0.0000 
     26 O25        47.4370   39.7200   -5.4990 O.co2     1 ILB405      0.0000 
     27 O26        55.7190   49.1450   -2.8750 O.3       1 ILB405      0.0000 
     28 F28        56.9180   47.6370   -4.2450 F         1 ILB405      0.0000 
     29 F29        57.3370   49.7580   -4.3360 F         1 ILB405      0.0000 
     30 F30        57.9400   48.6010   -2.6310 F         1 ILB405      0.0000 
     31 H          55.5041   47.2472    1.3037 H         1 ILB405      0.0000 
     32 H          56.3717   48.8729   -0.3282 H         1 ILB405      0.0000 
     33 H          53.8090   45.6042    0.6058 H         1 ILB405      0.0000 
     34 H          51.4265   45.6533    0.0201 H         1 ILB405      0.0000 
     35 H          53.5655   44.4121   -3.4876 H         1 ILB405      0.0000 
     36 H          47.0231   37.7614   -3.7445 H         1 ILB405      0.0000 
     37 H          45.9364   38.8445   -2.8580 H         1 ILB405      0.0000 
     38 H          48.0602   37.0511   -1.8127 H         1 ILB405      0.0000 
     39 H          46.4559   37.4078   -1.1501 H         1 ILB405      0.0000 
     40 H          48.6784   38.5611   -0.1887 H         1 ILB405      0.0000 
     41 H          47.1307   39.4188   -0.2838 H         1 ILB405      0.0000 
     42 H          53.8295   47.2235   -3.3713 H         1 ILB405      0.0000 
     43 H          49.1676   42.0697   -3.1962 H         1 ILB405      0.0000 
@<TRIPOS>BOND
     1    2    1 ar   
     2    4    1 ar   
     3   31    1 1    
     4    3    2 ar   
     5   32    2 1    
     6   16    3 ar   
     7   27    3 1    
     8   17    4 ar   
     9   33    4 1    
    10    6    5 ar   
    11   18    5 ar   
    12   34    5 1    
    13    7    6 ar   
    14   19    6 1    
    15    8    7 ar   
    16   20    7 1    
    17    9    8 ar   
    18   21    8 1    
    19   18    9 ar   
    20   35    9 1    
    21   20   10 am   
    22   22   10 1    
    23   23   10 2    
    24   12   11 1    
    25   22   11 2    
    26   24   11 1    
    27   13   12 1    
    28   36   12 1    
    29   37   12 1    
    30   14   13 1    
    31   38   13 1    
    32   39   13 1    
    33   22   14 1    
    34   40   14 1    
    35   41   14 1    
    36   27   15 1    
    37   28   15 1    
    38   29   15 1    
    39   30   15 1    
    40   17   16 ar   
    41   42   16 1    
    42   18   17 1    
    43   43   20 1    
    44   25   24 ar   
    45   26   24 ar   
@<TRIPOS>SUBSTRUCTURE
     1 ILB405      1 GROUP   
@<TRIPOS>SET

