#    Name: 1upu_U5P_1_INTS_M
#    Modification time : Tue Mar 25 07:00:37 2014

@<TRIPOS>MOLECULE
1upu_U5P_1_INTS_M
   39     0     9     0     0
SMALL
NO_CHARGES


@<TRIPOS>ATOM
      1 O          11.5285   94.3465   48.4295 O.2       1 ALC1        0.0000 
      2 O          10.3720   94.6670   47.4210 O.2       7 ALL1        0.0000 
      3 O          12.6850   94.0260   49.4380 O.2       4 ALP1        0.0000 
      4 CA         11.5225   96.0770   45.6865 C.3       3 GLC5        0.0000 
      5 CA          9.3340   96.3610   46.0960 C.3       9 GLL5        0.0000 
      6 CA         13.7110   95.7930   45.2770 C.3       6 GLP5        0.0000 
      7 CA          9.5265   98.1625   46.9760 C.3       3 GLC5        0.0000 
      8 CA          9.7190   99.9640   47.8560 C.3       6 GLP5        0.0000 
      9 N          10.1350   91.9205   48.9260 N.am      2 SEC2        0.0000 
     10 N           9.5210   92.5620   47.5020 N.am      8 SEL2        0.0000 
     11 N          10.7490   91.2790   50.3500 N.am      5 SEP2        0.0000 
     12 N          11.8050   98.2285   47.0810 N.am      2 SEC2        0.0000 
     13 N          11.2720   96.7560   47.3990 N.am      8 SEL2        0.0000 
     14 N          12.3380   99.7010   46.7630 N.am      5 SEP2        0.0000 
     15 CA          6.2725   94.6475   47.8620 C.3       3 GLC5        0.0000 
     16 CA          5.9910   93.5510   46.2550 C.3       9 GLL5        0.0000 
     17 CA          6.5540   95.7440   49.4690 C.3       6 GLP5        0.0000 
     18 CA          3.6620   93.9705   42.4315 C.3       3 GLC5        0.0000 
     19 CA          5.8270   94.3030   42.8470 C.3       9 GLL5        0.0000 
     20 CA          1.4970   93.6380   42.0160 C.3       6 GLP5        0.0000 
     21 N           5.9210   98.8825   42.3950 N.am      2 SEC2        0.0000 
     22 N           5.9990   97.3490   41.9710 N.am      8 SEL2        0.0000 
     23 N           5.8430  100.4160   42.8190 N.am      5 SEP2        0.0000 
     24 N           5.5855   98.2955   41.1070 N.am      2 SEC2        0.0000 
     25 N           5.1720   99.2420   40.2430 N.am      5 SEP2        0.0000 
     26 N           2.4695   96.1030   41.4070 N.am      2 SEC2        0.0000 
     27 N           3.6180   96.4220   42.0400 N.am      8 SEL2        0.0000 
     28 N           1.3210   95.7840   40.7740 N.am      5 SEP2        0.0000 
     29 N           3.1350   95.3545   42.2595 N.am      2 SEC2        0.0000 
     30 N           2.6520   94.2870   42.4790 N.am      5 SEP2        0.0000 
     31 N           4.9025   98.5130   44.7800 N.am      2 SEC2        0.0000 
     32 N           4.1730   97.6330   43.7280 N.am      8 SEL2        0.0000 
     33 N           5.6320   99.3930   45.8320 N.am      5 SEP2        0.0000 
     34 N           3.7050   98.8585   43.1240 N.am      2 SEC2        0.0000 
     35 N           3.2370  100.0840   42.5200 N.am      5 SEP2        0.0000 
     36 CA          7.7185   95.8238   47.6925 C.3       3 GLC5        0.0000 
     37 CA          8.4320   95.4460   45.7360 C.3       9 GLL5        0.0000 
     38 CA          8.3100   97.5812   45.2490 C.3       3 GLC5        0.0000 
     39 CA          7.7370   99.2590   44.5820 C.3       6 GLP5        0.0000 
@<TRIPOS>BOND
@<TRIPOS>SUBSTRUCTURE
     1 ALC1        1 GROUP        1 X    ALC  0     ROOT ALC X 1
     2 SEC2        9 GROUP        1 X    SEC  0     **** SEC X 2
     3 GLC5        4 GROUP        1 X    GLC  0     **** GLC X 6
     4 ALP1        3 GROUP        1 Y    ALP  0     ROOT ALP Y 8
     5 SEP2       11 GROUP        1 Y    SEP  0     **** SEP Y 9
     6 GLP5        6 GROUP        1 Y    GLP  0     **** GLP Y 13
     7 ALL1        2 GROUP        1 Z    ALL  0     ROOT ALL Z 15
     8 SEL2       10 GROUP        1 Z    SEL  0     **** SEL Z 16
     9 GLL5        5 GROUP        1 Z    GLL  0     **** GLL Z 20
@<TRIPOS>SET

