#    Name: 1upu_U5P_1_ligand
#    Modification time : Tue Mar 25 07:00:37 2014

@<TRIPOS>MOLECULE
1upu_U5P_1_ligand
   32    33     1     0     0
SMALL
NO_CHARGES


@<TRIPOS>ATOM
      1 N1          8.4570   94.1420   46.2030 N.am      1 U5P999      0.0000 
      2 C2          9.4610   93.7000   47.0600 C.2       1 U5P999      0.0000 
      3 N3         10.3720   94.6670   47.4210 N.am      1 U5P999      0.0000 
      4 C4         10.3940   95.9930   46.9970 C.2       1 U5P999      0.0000 
      5 C5          9.3340   96.3610   46.0960 C.2       1 U5P999      0.0000 
      6 C6          8.4320   95.4460   45.7360 C.2       1 U5P999      0.0000 
      7 O2          9.5210   92.5620   47.5020 O.2       1 U5P999      0.0000 
      8 O4         11.2720   96.7560   47.3990 O.2       1 U5P999      0.0000 
      9 C1'         7.3900   93.1610   45.7670 C.3       1 U5P999      0.0000 
     10 C2'         5.9910   93.5510   46.2550 C.3       1 U5P999      0.0000 
     11 O2'         5.6490   92.8050   47.4110 O.3       1 U5P999      0.0000 
     12 C3'         5.0730   93.2490   45.0600 C.3       1 U5P999      0.0000 
     13 C4'         6.0030   93.1740   43.8510 C.3       1 U5P999      0.0000 
     14 O3'         4.3690   92.0220   45.2140 O.3       1 U5P999      0.0000 
     15 O4'         7.3640   93.1790   44.3550 O.3       1 U5P999      0.0000 
     16 C5'         5.8270   94.3030   42.8470 C.3       1 U5P999      0.0000 
     17 O5'         5.4030   95.4870   43.5130 O.3       1 U5P999      0.0000 
     18 P           4.8740   96.7810   42.7390 P.3       1 U5P999      0.0000 
     19 O1P         5.9990   97.3490   41.9710 O.co2     1 U5P999      0.0000 
     20 O2P         3.6180   96.4220   42.0400 O.co2     1 U5P999      0.0000 
     21 O3P         4.1730   97.6330   43.7280 O.co2     1 U5P999      0.0000 
     22 H          11.1533   94.3722   48.1040 H         1 U5P999      0.0000 
     23 H           9.3132   97.3308   45.7596 H         1 U5P999      0.0000 
     24 H           7.6555   95.7066   45.0657 H         1 U5P999      0.0000 
     25 H           7.6279   92.1884   46.1378 H         1 U5P999      0.0000 
     26 H           5.9900   94.6086   46.4109 H         1 U5P999      0.0000 
     27 H           4.4268   94.0911   44.9204 H         1 U5P999      0.0000 
     28 H           5.8184   92.2255   43.3457 H         1 U5P999      0.0000 
     29 H           5.0954   93.9739   42.0962 H         1 U5P999      0.0000 
     30 H           6.7867   94.4471   42.3318 H         1 U5P999      0.0000 
     31 H           6.3926   92.1457   47.5228 H         1 U5P999      0.0000 
     32 H           4.6526   91.6713   46.1065 H         1 U5P999      0.0000 
@<TRIPOS>BOND
     1    2    1 1    
     2    6    1 1    
     3    9    1 1    
     4    3    2 1    
     5    7    2 2    
     6    4    3 1    
     7   22    3 1    
     8    5    4 1    
     9    8    4 2    
    10    6    5 2    
    11   23    5 1    
    12   24    6 1    
    13   10    9 1    
    14   15    9 1    
    15   25    9 1    
    16   11   10 1    
    17   12   10 1    
    18   26   10 1    
    19   31   11 1    
    20   13   12 1    
    21   14   12 1    
    22   27   12 1    
    23   15   13 1    
    24   16   13 1    
    25   28   13 1    
    26   32   14 1    
    27   17   16 1    
    28   29   16 1    
    29   30   16 1    
    30   18   17 1    
    31   19   18 ar   
    32   20   18 ar   
    33   21   18 ar   
@<TRIPOS>SUBSTRUCTURE
     1 U5P999      1 GROUP   
@<TRIPOS>SET

