#    Name: 3keq_NAD_1_INTS_M
#    Modification time : Mon Mar 24 19:23:09 2014

@<TRIPOS>MOLECULE
3keq_NAD_1_INTS_M
   75     0     9     0     0
SMALL
NO_CHARGES


@<TRIPOS>ATOM
      1 N          27.1740  -17.0575  -14.7645 N.am      2 SEC2        0.0000 
      2 N          28.1950  -16.9570  -16.0870 N.am      8 SEL2        0.0000 
      3 N          26.1530  -17.1580  -13.4420 N.am      5 SEP2        0.0000 
      4 CA         24.4770  -21.7235  -17.9930 C.3       3 GLC5        0.0000 
      5 CA         26.3250  -20.8930  -18.0570 C.3       9 GLL5        0.0000 
      6 CA         22.6290  -22.5540  -17.9290 C.3       6 GLP5        0.0000 
      7 O          26.3680  -23.2605  -16.1700 O.2       1 ALC1        0.0000 
      8 O          27.1400  -22.2570  -16.2530 O.2       7 ALL1        0.0000 
      9 O          25.5960  -24.2640  -16.0870 O.2       4 ALP1        0.0000 
     10 O          27.1015  -23.9605  -16.6435 O.2       1 ALC1        0.0000 
     11 O          27.0630  -25.6640  -17.0340 O.2       4 ALP1        0.0000 
     12 O          27.8430  -24.6905  -17.4700 O.2       1 ALC1        0.0000 
     13 O          28.6230  -23.7170  -17.9060 O.2       7 ALL1        0.0000 
     14 CA         24.5790  -22.7705  -18.4885 C.3       3 GLC5        0.0000 
     15 CA         26.5290  -22.9870  -19.0480 C.3       9 GLL5        0.0000 
     16 CA         26.7250  -21.3400  -20.4580 C.3       3 GLC5        0.0000 
     17 CA         26.9210  -19.6930  -21.8680 C.3       6 GLP5        0.0000 
     18 CA         21.7755  -25.5100  -20.9505 C.3       3 GLC5        0.0000 
     19 CA         23.7930  -26.0130  -20.8820 C.3       9 GLL5        0.0000 
     20 CA         19.7580  -25.0070  -21.0190 C.3       6 GLP5        0.0000 
     21 CA         24.0380  -26.5615  -19.1350 C.3       3 GLC5        0.0000 
     22 CA         24.2830  -27.1100  -17.3880 C.3       6 GLP5        0.0000 
     23 CA         23.4780  -27.9285  -21.2830 C.3       3 GLC5        0.0000 
     24 CA         23.1630  -29.8440  -21.6840 C.3       6 GLP5        0.0000 
     25 CA         23.3025  -23.9395  -21.2330 C.3       3 GLC5        0.0000 
     26 CA         22.8120  -21.8660  -21.5840 C.3       6 GLP5        0.0000 
     27 CA         27.1385  -25.7225  -20.6530 C.3       3 GLC5        0.0000 
     28 CA         25.5880  -24.4930  -20.8150 C.3       9 GLL5        0.0000 
     29 CA         28.6890  -26.9520  -20.4910 C.3       6 GLP5        0.0000 
     30 N          24.4765  -15.6365  -15.0220 N.am      2 SEC2        0.0000 
     31 N          25.1580  -15.8190  -16.3330 N.am      8 SEL2        0.0000 
     32 N          23.7950  -15.4540  -13.7110 N.am      5 SEP2        0.0000 
     33 CA         23.7890  -14.2830  -17.4520 C.3       3 GLC5        0.0000 
     34 CA         23.8480  -15.2990  -19.0520 C.3       9 GLL5        0.0000 
     35 CA         23.7300  -13.2670  -15.8520 C.3       6 GLP5        0.0000 
     36 CA         22.3745  -16.8275  -19.1970 C.3       3 GLC5        0.0000 
     37 CA         20.9010  -18.3560  -19.3420 C.3       6 GLP5        0.0000 
     38 CA         21.2755  -14.2660  -19.9920 C.3       3 GLC5        0.0000 
     39 CA         23.4820  -14.5010  -20.2970 C.3       9 GLL5        0.0000 
     40 CA         19.0690  -14.0310  -19.6870 C.3       6 GLP5        0.0000 
     41 CA         22.3160  -14.0715  -22.1635 C.3       3 GLC5        0.0000 
     42 CA         21.1500  -13.6420  -24.0300 C.3       6 GLP5        0.0000 
     43 CA         25.6970  -15.7280  -21.9740 C.3       3 GLC5        0.0000 
     44 CA         24.6670  -14.0440  -21.1760 C.3       9 GLL5        0.0000 
     45 CA         26.7270  -17.4120  -22.7720 C.3       6 GLP5        0.0000 
     46 N          25.0025  -13.5875  -23.7920 N.am      2 SEC2        0.0000 
     47 N          24.1990  -13.9270  -22.5120 N.am      8 SEL2        0.0000 
     48 N          25.8060  -13.2480  -25.0720 N.am      5 SEP2        0.0000 
     49 N          23.3145  -14.7840  -23.3220 N.am      2 SEC2        0.0000 
     50 N          22.4300  -15.6410  -24.1320 N.am      5 SEP2        0.0000 
     51 CA         23.1980   -8.0265  -15.8475 C.3       3 GLC5        0.0000 
     52 CA         24.1430   -8.9720  -17.6010 C.3       9 GLL5        0.0000 
     53 CA         22.2530   -7.0810  -14.0940 C.3       6 GLP5        0.0000 
     54 CA         25.8225   -8.4390  -16.2885 C.3       3 GLC5        0.0000 
     55 CA         27.5020   -7.9060  -14.9760 C.3       6 GLP5        0.0000 
     56 CA         22.0815   -8.0475  -18.4765 C.3       3 GLC5        0.0000 
     57 CA         23.8510   -8.7490  -18.9510 C.3       9 GLL5        0.0000 
     58 CA         20.3120   -7.3460  -18.0020 C.3       6 GLP5        0.0000 
     59 CA         25.2060  -19.8623  -19.7815 C.3       3 GLC5        0.0000 
     60 CA         23.9310  -19.5670  -21.3340 C.3       6 GLP5        0.0000 
     61 CA         26.7010  -19.9252  -20.0485 C.3       3 GLC5        0.0000 
     62 CA         26.6370  -19.4220  -18.4010 C.3       9 GLL5        0.0000 
     63 CA         26.5367  -20.1541  -16.0395 C.3       3 GLC5        0.0000 
     64 CA         26.0710  -19.4240  -14.2380 C.3       6 GLP5        0.0000 
     65 CA         27.0222  -26.3672  -22.2092 C.3       3 GLC5        0.0000 
     66 CA         25.8910  -24.7940  -22.1140 C.3       9 GLL5        0.0000 
     67 CA         28.5190  -27.4870  -21.9470 C.3       6 GLP5        0.0000 
     68 CA         24.2758  -23.2547  -21.5243 C.3       3 GLC5        0.0000 
     69 CA         24.3453  -24.7787  -23.9688 C.3       3 GLC5        0.0000 
     70 CA         23.1650  -24.3100  -25.4660 C.3       6 GLP5        0.0000 
     71 CA         23.9492  -12.0392  -16.6977 C.3       3 GLC5        0.0000 
     72 CA         24.0870  -11.3590  -17.9800 C.3       9 GLL5        0.0000 
     73 CA         22.2272   -9.5010  -16.9085 C.3       3 GLC5        0.0000 
     74 CA         24.2500  -10.2640  -17.1070 C.3       9 GLL5        0.0000 
     75 CA         20.2580   -9.3840  -16.4630 C.3       6 GLP5        0.0000 
@<TRIPOS>BOND
@<TRIPOS>SUBSTRUCTURE
     1 ALC1        7 GROUP        1 X    ALC  0     ROOT ALC X 1
     2 SEC2        1 GROUP        1 X    SEC  0     **** SEC X 2
     3 GLC5        4 GROUP        1 X    GLC  0     **** GLC X 6
     4 ALP1        9 GROUP        1 Y    ALP  0     ROOT ALP Y 8
     5 SEP2        3 GROUP        1 Y    SEP  0     **** SEP Y 9
     6 GLP5        6 GROUP        1 Y    GLP  0     **** GLP Y 13
     7 ALL1        8 GROUP        1 Z    ALL  0     ROOT ALL Z 15
     8 SEL2        2 GROUP        1 Z    SEL  0     **** SEL Z 16
     9 GLL5        5 GROUP        1 Z    GLL  0     **** GLL Z 20
@<TRIPOS>SET

