#    Name: 3keq_NAD_1_ligand
#    Modification time : Mon Mar 24 19:23:09 2014

@<TRIPOS>MOLECULE
3keq_NAD_1_ligand
   70    74     1     0     0
SMALL
NO_CHARGES


@<TRIPOS>ATOM
      1 PA         27.7670  -17.3680  -17.4220 P.3       1 NAD213      0.0000 
      2 O1A        28.9040  -17.5980  -18.3360 O.co2     1 NAD213      0.0000 
      3 O2A        28.1950  -16.9570  -16.0870 O.co2     1 NAD213      0.0000 
      4 O5B        26.9050  -18.6880  -17.2450 O.3       1 NAD213      0.0000 
      5 C5B        26.6370  -19.4220  -18.4010 C.3       1 NAD213      0.0000 
      6 C4B        26.3250  -20.8930  -18.0570 C.3       1 NAD213      0.0000 
      7 O4B        25.9630  -21.6860  -19.1810 O.3       1 NAD213      0.0000 
      8 C3B        27.5240  -21.6110  -17.4530 C.3       1 NAD213      0.0000 
      9 O3B        27.1400  -22.2570  -16.2530 O.3       1 NAD213      0.0000 
     10 C2B        27.9080  -22.6410  -18.4890 C.3       1 NAD213      0.0000 
     11 O2B        28.6230  -23.7170  -17.9060 O.3       1 NAD213      0.0000 
     12 C1B        26.5290  -22.9870  -19.0480 C.3       1 NAD213      0.0000 
     13 N9A        26.5230  -23.5880  -20.3640 N.pl3     1 NAD213      0.0000 
     14 C8A        27.3980  -23.3180  -21.3930 C.2       1 NAD213      0.0000 
     15 N7A        26.9940  -24.0770  -22.4420 N.2       1 NAD213      0.0000 
     16 C5A        25.8910  -24.7940  -22.1140 C.ar      1 NAD213      0.0000 
     17 C6A        25.1600  -25.7010  -22.8290 C.ar      1 NAD213      0.0000 
     18 N6A        25.6490  -26.2200  -24.0050 N.pl3     1 NAD213      0.0000 
     19 N1A        24.0830  -26.3020  -22.1970 N.ar      1 NAD213      0.0000 
     20 C2A        23.7930  -26.0130  -20.8820 C.ar      1 NAD213      0.0000 
     21 N3A        24.5420  -25.0820  -20.1920 N.ar      1 NAD213      0.0000 
     22 C4A        25.5880  -24.4930  -20.8150 C.ar      1 NAD213      0.0000 
     23 O3         26.6790  -16.4190  -18.1690 O.3       1 NAD213      0.0000 
     24 PN         25.9460  -15.1900  -17.3970 P.3       1 NAD213      0.0000 
     25 O1N        26.9440  -14.1610  -17.1610 O.co2     1 NAD213      0.0000 
     26 O2N        25.1580  -15.8190  -16.3330 O.co2     1 NAD213      0.0000 
     27 O5D        24.9590  -14.6390  -18.5500 O.3       1 NAD213      0.0000 
     28 C5D        23.8480  -15.2990  -19.0520 C.3       1 NAD213      0.0000 
     29 C4D        23.4820  -14.5010  -20.2970 C.3       1 NAD213      0.0000 
     30 O4D        22.8720  -13.3060  -19.9080 O.3       1 NAD213      0.0000 
     31 C3D        24.6670  -14.0440  -21.1760 C.3       1 NAD213      0.0000 
     32 O3D        24.1990  -13.9270  -22.5120 O.3       1 NAD213      0.0000 
     33 C2D        25.0260  -12.6610  -20.7010 C.3       1 NAD213      0.0000 
     34 O2D        25.5870  -11.8010  -21.6950 O.3       1 NAD213      0.0000 
     35 C1D        23.6250  -12.1810  -20.3110 C.3       1 NAD213      0.0000 
     36 N1N        23.7800  -11.1050  -19.3050 N.pl3     1 NAD213      0.0000 
     37 C2N        24.0870  -11.3590  -17.9800 C.ar      1 NAD213      0.0000 
     38 C3N        24.2500  -10.2640  -17.1070 C.ar      1 NAD213      0.0000 
     39 C7N        24.8990  -10.4210  -15.7430 C.2       1 NAD213      0.0000 
     40 O7N        24.6370   -9.4710  -14.7320 O.2       1 NAD213      0.0000 
     41 N7N        25.7390  -11.4420  -15.5020 N.am      1 NAD213      0.0000 
     42 C4N        24.1430   -8.9720  -17.6010 C.ar      1 NAD213      0.0000 
     43 C5N        23.8510   -8.7490  -18.9510 C.ar      1 NAD213      0.0000 
     44 C6N        23.6830   -9.8220  -19.7990 C.ar      1 NAD213      0.0000 
     45 H          27.4875  -19.4333  -19.1043 H         1 NAD213      0.0000 
     46 H          25.7671  -19.0344  -18.9588 H         1 NAD213      0.0000 
     47 H          25.5347  -20.9152  -17.3082 H         1 NAD213      0.0000 
     48 H          28.3110  -20.9226  -17.3391 H         1 NAD213      0.0000 
     49 H          28.4433  -22.1197  -19.2598 H         1 NAD213      0.0000 
     50 H          25.9969  -23.5412  -18.3280 H         1 NAD213      0.0000 
     51 H          28.1295  -22.7211  -21.3616 H         1 NAD213      0.0000 
     52 H          25.0543  -26.8679  -24.4809 H         1 NAD213      0.0000 
     53 H          26.5566  -25.9042  -24.2816 H         1 NAD213      0.0000 
     54 H          23.0101  -26.4956  -20.4083 H         1 NAD213      0.0000 
     55 H          22.9995  -15.2752  -18.3861 H         1 NAD213      0.0000 
     56 H          24.0556  -16.3116  -19.3609 H         1 NAD213      0.0000 
     57 H          22.8172  -15.0792  -20.9177 H         1 NAD213      0.0000 
     58 H          25.4615  -14.6934  -21.0541 H         1 NAD213      0.0000 
     59 H          25.5829  -12.7400  -19.8073 H         1 NAD213      0.0000 
     60 H          23.2073  -11.7404  -21.2316 H         1 NAD213      0.0000 
     61 H          24.1949  -12.3069  -17.6328 H         1 NAD213      0.0000 
     62 H          26.1129  -11.4950  -14.5761 H         1 NAD213      0.0000 
     63 H          25.9151  -12.0576  -16.2701 H         1 NAD213      0.0000 
     64 H          24.2789   -8.1660  -16.9723 H         1 NAD213      0.0000 
     65 H          23.7643   -7.7869  -19.2989 H         1 NAD213      0.0000 
     66 H          23.4857   -9.6660  -20.7983 H         1 NAD213      0.0000 
     67 H          26.5578  -23.0166  -16.5430 H         1 NAD213      0.0000 
     68 H          27.9227  -24.3804  -17.6427 H         1 NAD213      0.0000 
     69 H          23.3403  -13.4193  -22.4418 H         1 NAD213      0.0000 
     70 H          25.5071  -12.3098  -22.5522 H         1 NAD213      0.0000 
@<TRIPOS>BOND
     1    2    1 ar   
     2    3    1 ar   
     3    4    1 1    
     4   23    1 1    
     5    5    4 1    
     6    6    5 1    
     7   45    5 1    
     8   46    5 1    
     9    7    6 1    
    10    8    6 1    
    11   47    6 1    
    12   12    7 1    
    13    9    8 1    
    14   10    8 1    
    15   48    8 1    
    16   67    9 1    
    17   11   10 1    
    18   12   10 1    
    19   49   10 1    
    20   68   11 1    
    21   13   12 1    
    22   50   12 1    
    23   14   13 1    
    24   22   13 1    
    25   15   14 2    
    26   51   14 1    
    27   16   15 1    
    28   17   16 ar   
    29   22   16 ar   
    30   18   17 1    
    31   19   17 ar   
    32   52   18 1    
    33   53   18 1    
    34   20   19 ar   
    35   21   20 ar   
    36   54   20 1    
    37   22   21 ar   
    38   24   23 1    
    39   25   24 ar   
    40   26   24 ar   
    41   27   24 1    
    42   28   27 1    
    43   29   28 1    
    44   55   28 1    
    45   56   28 1    
    46   30   29 1    
    47   31   29 1    
    48   57   29 1    
    49   35   30 1    
    50   32   31 1    
    51   33   31 1    
    52   58   31 1    
    53   69   32 1    
    54   34   33 1    
    55   35   33 1    
    56   59   33 1    
    57   70   34 1    
    58   36   35 1    
    59   60   35 1    
    60   37   36 ar   
    61   44   36 ar   
    62   38   37 ar   
    63   61   37 1    
    64   39   38 1    
    65   42   38 ar   
    66   40   39 2    
    67   41   39 am   
    68   62   41 1    
    69   63   41 1    
    70   43   42 ar   
    71   64   42 1    
    72   44   43 ar   
    73   65   43 1    
    74   66   44 1    
@<TRIPOS>SUBSTRUCTURE
     1 NAD213      1 GROUP   
@<TRIPOS>SET

