#    Name: 2udp_UPP_2_INTS_M
#    Modification time : Tue Mar 25 00:11:46 2014

@<TRIPOS>MOLECULE
2udp_UPP_2_INTS_M
   66     0    12     0     0
SMALL
NO_CHARGES


@<TRIPOS>ATOM
      1 O         -11.0950   25.8215  -21.4250 O.2       1 ALC1        0.0000 
      2 O          -9.7590   25.7980  -20.8850 O.2       9 ALL1        0.0000 
      3 O         -12.4310   25.8450  -21.9650 O.2       5 ALP1        0.0000 
      4 CA         -6.6445   24.2860  -18.0855 C.3       4 GLC5        0.0000 
      5 CA         -8.0840   25.3810  -19.2520 C.3      12 GLL5        0.0000 
      6 CA         -5.2050   23.1910  -16.9190 C.3       8 GLP5        0.0000 
      7 CA         -7.0465   24.1240  -19.9110 C.3       4 GLC5        0.0000 
      8 CA         -6.0090   22.8670  -20.5700 C.3       8 GLP5        0.0000 
      9 CA         -6.5250   25.1855  -20.6615 C.3       4 GLC5        0.0000 
     10 CA         -7.4770   26.4530  -19.6990 C.3      12 GLL5        0.0000 
     11 CA         -5.5730   23.9180  -21.6240 C.3       8 GLP5        0.0000 
     12 N         -10.6625   28.3420  -22.5700 N.am      2 SEC2        0.0000 
     13 N          -9.5220   27.4560  -22.4260 N.am     10 SEL2        0.0000 
     14 N         -11.8030   29.2280  -22.7140 N.am      6 SEP2        0.0000 
     15 CA         -8.9935   28.4700  -20.3415 C.3       4 GLC5        0.0000 
     16 CA         -7.1010   28.1510  -21.4810 C.3      12 GLL5        0.0000 
     17 CA        -10.8860   28.7890  -19.2020 C.3       8 GLP5        0.0000 
     18 CA         -6.9785   28.3465  -23.4855 C.3       4 GLC5        0.0000 
     19 CA         -6.8560   28.5420  -25.4900 C.3       8 GLP5        0.0000 
     20 N          -8.6940   31.7905  -20.6830 N.am      2 SEC2        0.0000 
     21 N          -7.6240   30.4250  -20.8090 N.am     10 SEL2        0.0000 
     22 N          -9.7640   33.1560  -20.5570 N.am      6 SEP2        0.0000 
     23 O          -7.6885   31.2370  -19.8715 O.2       1 ALC1        0.0000 
     24 O          -7.6240   30.4250  -20.8090 O.2       9 ALL1        0.0000 
     25 O          -7.7530   32.0490  -18.9340 O.2       5 ALP1        0.0000 
     26 CA         -5.0225   26.5075  -22.8920 C.3       4 GLC5        0.0000 
     27 CA         -4.8180   28.3710  -21.7990 C.3      12 GLL5        0.0000 
     28 CA         -5.2270   24.6440  -23.9850 C.3       8 GLP5        0.0000 
     29 CA         -4.7075   25.8110  -21.2310 C.3       4 GLC5        0.0000 
     30 CA         -3.8420   27.7040  -20.8380 C.3      12 GLL5        0.0000 
     31 CA         -2.4950   28.7180  -21.7815 C.3       4 GLC5        0.0000 
     32 CA         -1.1480   29.7320  -22.7250 C.3       8 GLP5        0.0000 
     33 CA         -2.5465   26.8400  -22.4550 C.3       4 GLC5        0.0000 
     34 CA         -1.2510   25.9760  -24.0720 C.3       8 GLP5        0.0000 
     35 N          -5.3445   28.6530  -18.4380 N.am      2 SEC2        0.0000 
     36 N          -4.3790   27.7960  -19.5090 N.am     10 SEL2        0.0000 
     37 N          -6.3100   29.5100  -17.3670 N.am      6 SEP2        0.0000 
     38 NZ         -5.5510   28.2125  -17.2670 N.4       3 LYC4        0.0000 
     39 NZ         -4.7920   26.9150  -17.1670 N.4      11 LYL4        0.0000 
     40 NZ         -7.4570   29.2520  -16.7720 N.4       7 LYP4        0.0000 
     41 N          -4.0840   25.9295  -16.2855 N.am      2 SEC2        0.0000 
     42 N          -4.7920   26.9150  -17.1670 N.am     10 SEL2        0.0000 
     43 N          -3.3760   24.9440  -15.4040 N.am      6 SEP2        0.0000 
     44 N          -6.2535   27.4675  -16.7490 N.am      2 SEC2        0.0000 
     45 N          -7.7150   28.0200  -16.3310 N.am      6 SEP2        0.0000 
     46 N          -5.5510   28.2125  -17.2670 N.am      2 SEC2        0.0000 
     47 N          -3.5095   25.2005  -17.1160 N.am      2 SEC2        0.0000 
     48 N          -3.6430   25.4570  -18.8280 N.am     10 SEL2        0.0000 
     49 N          -4.5400   24.3360  -19.0545 N.am      2 SEC2        0.0000 
     50 N          -5.4370   23.2150  -19.2810 N.am      6 SEP2        0.0000 
     51 NZ         -1.7445   30.4685  -20.0115 N.4       3 LYC4        0.0000 
     52 NZ         -1.7310   29.5200  -19.1060 N.4      11 LYL4        0.0000 
     53 NZ         -2.5810   32.4470  -21.1400 N.4       7 LYP4        0.0000 
     54 N          -0.8910   28.4900  -19.5990 N.am      2 SEC2        0.0000 
     55 N          -1.7310   29.5200  -19.1060 N.am     10 SEL2        0.0000 
     56 N          -0.0510   27.4600  -20.0920 N.am      6 SEP2        0.0000 
     57 N          -1.7445   30.4685  -20.0115 N.am      2 SEC2        0.0000 
     58 N          -1.7580   31.4170  -20.9170 N.am      6 SEP2        0.0000 
     59 CA         -9.4303   26.7870  -18.9432 C.3       4 GLC5        0.0000 
     60 CA        -11.0800   27.6570  -18.4110 C.3       8 GLP5        0.0000 
     61 CA         -3.1255   29.3945  -22.1713 C.3       4 GLC5        0.0000 
     62 CA         -5.3880   29.7430  -21.4360 C.3      12 GLL5        0.0000 
     63 CA         -5.9795   28.7995  -23.5538 C.3       4 GLC5        0.0000 
     64 CA         -1.5862   29.5192  -12.3955 C.3       4 GLC5        0.0000 
     65 CA         -0.4770   29.1700  -14.4450 C.3      12 GLL5        0.0000 
     66 CA         -2.8480   30.0970  -10.9990 C.3       8 GLP5        0.0000 
@<TRIPOS>BOND
@<TRIPOS>SUBSTRUCTURE
     1 ALC1        1 GROUP        1 X    ALC  0     ROOT ALC X 1
     2 SEC2       12 GROUP        1 X    SEC  0     **** SEC X 2
     3 LYC4       38 GROUP        1 X    LYC  0     **** LYC X 4
     4 GLC5        4 GROUP        1 X    GLC  0     **** GLC X 6
     5 ALP1        3 GROUP        1 Y    ALP  0     ROOT ALP Y 8
     6 SEP2       14 GROUP        1 Y    SEP  0     **** SEP Y 9
     7 LYP4       40 GROUP        1 Y    LYP  0     **** LYP Y 11
     8 GLP5        6 GROUP        1 Y    GLP  0     **** GLP Y 13
     9 ALL1        2 GROUP        1 Z    ALL  0     ROOT ALL Z 15
    10 SEL2       13 GROUP        1 Z    SEL  0     **** SEL Z 16
    11 LYL4       39 GROUP        1 Z    LYL  0     **** LYL Z 18
    12 GLL5        5 GROUP        1 Z    GLL  0     **** GLL Z 20
@<TRIPOS>SET

