#    Name: 2udp_UPP_2_ligand
#    Modification time : Tue Mar 25 00:11:47 2014

@<TRIPOS>MOLECULE
2udp_UPP_2_ligand
   47    49     1     0     0
SMALL
NO_CHARGES


@<TRIPOS>ATOM
      1 N1         -7.9250   27.1520  -20.8050 N.am      1 UPP341      0.0000 
      2 C2         -9.1020   26.8610  -21.4410 C.2       1 UPP341      0.0000 
      3 N3         -9.7590   25.7980  -20.8850 N.am      1 UPP341      0.0000 
      4 C4         -9.3450   25.0250  -19.8060 C.2       1 UPP341      0.0000 
      5 C5         -8.0840   25.3810  -19.2520 C.2       1 UPP341      0.0000 
      6 C6         -7.4770   26.4530  -19.6990 C.2       1 UPP341      0.0000 
      7 O2         -9.5220   27.4560  -22.4260 O.2       1 UPP341      0.0000 
      8 O4        -10.1250   24.1780  -19.4100 O.2       1 UPP341      0.0000 
      9 C1B        -7.1010   28.1510  -21.4810 C.3       1 UPP341      0.0000 
     10 C2B        -6.6710   29.3570  -20.6790 C.3       1 UPP341      0.0000 
     11 O2'        -7.6240   30.4250  -20.8090 O.3       1 UPP341      0.0000 
     12 C3B        -5.3880   29.7430  -21.4360 C.3       1 UPP341      0.0000 
     13 C4B        -4.8180   28.3710  -21.7990 C.3       1 UPP341      0.0000 
     14 O4'        -5.9570   27.5070  -21.9460 O.3       1 UPP341      0.0000 
     15 O3'        -5.6040   30.5870  -22.5850 O.3       1 UPP341      0.0000 
     16 C5B        -3.8420   27.7040  -20.8380 C.3       1 UPP341      0.0000 
     17 O5'        -4.3790   27.7960  -19.5090 O.3       1 UPP341      0.0000 
     18 PA         -3.8730   26.8430  -18.3400 P.3       1 UPP341      0.0000 
     19 O1A        -4.7920   26.9150  -17.1670 O.co2     1 UPP341      0.0000 
     20 O2A        -3.6430   25.4570  -18.8280 O.co2     1 UPP341      0.0000 
     21 O3A        -2.4050   27.4660  -17.9540 O.3       1 UPP341      0.0000 
     22 PB         -1.9230   28.9200  -17.6620 P.3       1 UPP341      0.0000 
     23 O1B        -1.7310   29.5200  -19.1060 O.co2     1 UPP341      0.0000 
     24 O2B        -2.8230   29.7990  -16.9190 O.co2     1 UPP341      0.0000 
     25 O3B        -0.6680   28.8260  -16.8900 O.3       1 UPP341      0.0000 
     26 C1'        -0.4690   28.2610  -15.5340 C.ar      1 UPP341      0.0000 
     27 C2'        -0.1290   26.8990  -15.3280 C.ar      1 UPP341      0.0000 
     28 C3'         0.1880   26.4460  -14.0220 C.ar      1 UPP341      0.0000 
     29 C4'         0.1920   27.3560  -12.9360 C.ar      1 UPP341      0.0000 
     30 C5'        -0.1720   28.7130  -13.1390 C.ar      1 UPP341      0.0000 
     31 C6'        -0.4770   29.1700  -14.4450 C.ar      1 UPP341      0.0000 
     32 H         -10.7076   25.5211  -21.3282 H         1 UPP341      0.0000 
     33 H          -7.6986   24.7737  -18.5153 H         1 UPP341      0.0000 
     34 H          -6.6085   26.8225  -19.2167 H         1 UPP341      0.0000 
     35 H          -7.6645   28.5313  -22.3628 H         1 UPP341      0.0000 
     36 H          -6.4260   29.0845  -19.7202 H         1 UPP341      0.0000 
     37 H          -4.7162   30.1756  -20.7095 H         1 UPP341      0.0000 
     38 H          -4.3364   28.4580  -22.7830 H         1 UPP341      0.0000 
     39 H          -2.8825   28.2148  -20.9204 H         1 UPP341      0.0000 
     40 H          -3.7146   26.6671  -21.1495 H         1 UPP341      0.0000 
     41 H          -0.1128   26.2523  -16.1115 H         1 UPP341      0.0000 
     42 H           0.4133   25.4638  -13.8649 H         1 UPP341      0.0000 
     43 H           0.4574   27.0358  -12.0038 H         1 UPP341      0.0000 
     44 H          -0.2133   29.3532  -12.3500 H         1 UPP341      0.0000 
     45 H          -0.7022   30.1513  -14.6027 H         1 UPP341      0.0000 
     46 H          -7.8846   30.6546  -19.8712 H         1 UPP341      0.0000 
     47 H          -6.5520   30.8953  -22.5050 H         1 UPP341      0.0000 
@<TRIPOS>BOND
     1    2    1 1    
     2    6    1 1    
     3    9    1 1    
     4    3    2 1    
     5    7    2 2    
     6    4    3 1    
     7   32    3 1    
     8    5    4 1    
     9    8    4 2    
    10    6    5 2    
    11   33    5 1    
    12   34    6 1    
    13   10    9 1    
    14   14    9 1    
    15   35    9 1    
    16   11   10 1    
    17   12   10 1    
    18   36   10 1    
    19   46   11 1    
    20   13   12 1    
    21   15   12 1    
    22   37   12 1    
    23   14   13 1    
    24   16   13 1    
    25   38   13 1    
    26   47   15 1    
    27   17   16 1    
    28   39   16 1    
    29   40   16 1    
    30   18   17 1    
    31   19   18 ar   
    32   20   18 ar   
    33   21   18 1    
    34   22   21 1    
    35   23   22 ar   
    36   24   22 ar   
    37   25   22 1    
    38   26   25 1    
    39   27   26 ar   
    40   31   26 ar   
    41   28   27 ar   
    42   41   27 1    
    43   29   28 ar   
    44   42   28 1    
    45   30   29 ar   
    46   43   29 1    
    47   31   30 ar   
    48   44   30 1    
    49   45   31 1    
@<TRIPOS>SUBSTRUCTURE
     1 UPP341      1 GROUP   
@<TRIPOS>SET

