#    Name: 1xp1_AIH_1_INTS_M
#    Modification time : Tue Mar 25 10:27:23 2014

@<TRIPOS>MOLECULE
1xp1_AIH_1_INTS_M
   99     0    12     0     0
SMALL
NO_CHARGES


@<TRIPOS>ATOM
      1 N          23.9190   -1.3980   27.7760 N.am      2 SEC2        0.0000 
      2 N          25.0100   -0.9830   26.6580 N.am     10 SEL2        0.0000 
      3 N          22.8280   -1.8130   28.8940 N.am      6 SEP2        0.0000 
      4 O          24.5575   -2.1270   26.0750 O.2       1 ALC1        0.0000 
      5 O          25.0100   -0.9830   26.6580 O.2       9 ALL1        0.0000 
      6 O          24.1050   -3.2710   25.4920 O.2       5 ALP1        0.0000 
      7 CA         28.9715   -0.3760   29.9180 C.3       4 GLC5        0.0000 
      8 CA         29.4850    0.5350   28.2710 C.3      12 GLL5        0.0000 
      9 CA         28.4580   -1.2870   31.5650 C.3       8 GLP5        0.0000 
     10 CA         31.5230    2.0060   25.7195 C.3       4 GLC5        0.0000 
     11 CA         32.5280    1.3640   27.4550 C.3      12 GLL5        0.0000 
     12 CA         30.5180    2.6480   23.9840 C.3       8 GLP5        0.0000 
     13 CA         33.5735    3.3810   29.0135 C.3       4 GLC5        0.0000 
     14 CA         33.7900    1.9610   27.3250 C.3      12 GLL5        0.0000 
     15 CA         33.3570    4.8010   30.7020 C.3       8 GLP5        0.0000 
     16 N          37.2140    1.8735   28.7185 N.am      2 SEC2        0.0000 
     17 N          36.0360    2.3080   28.1080 N.am     10 SEL2        0.0000 
     18 N          38.3920    1.4390   29.3290 N.am      6 SEP2        0.0000 
     19 O          36.4295    2.8840   26.6285 O.2       1 ALC1        0.0000 
     20 O          36.0360    2.3080   28.1080 O.2       9 ALL1        0.0000 
     21 O          36.8230    3.4600   25.1490 O.2       5 ALP1        0.0000 
     22 CA         35.1220    0.4375   31.2510 C.3       4 GLC5        0.0000 
     23 CA         34.6020    0.9470   29.4060 C.3      12 GLL5        0.0000 
     24 CA         35.6420   -0.0720   33.0960 C.3       8 GLP5        0.0000 
     25 CA         34.2900   -0.7025   31.0340 C.3       4 GLC5        0.0000 
     26 CA         33.3320    0.3420   29.5310 C.3      12 GLL5        0.0000 
     27 CA         35.2480   -1.7470   32.5370 C.3       8 GLP5        0.0000 
     28 CA         34.4260   -3.5470   27.4310 C.3       4 GLC5        0.0000 
     29 CA         32.5980   -2.7670   26.6020 C.3      12 GLL5        0.0000 
     30 CA         36.2540   -4.3270   28.2600 C.3       8 GLP5        0.0000 
     31 CA         35.0345   -3.3670   24.5080 C.3       4 GLC5        0.0000 
     32 CA         33.0380   -3.0360   25.3010 C.3      12 GLL5        0.0000 
     33 CA         37.0310   -3.6980   23.7150 C.3       8 GLP5        0.0000 
     34 CA         29.5690   -0.9260   23.6810 C.3       4 GLC5        0.0000 
     35 CA         31.4720   -1.3810   24.4850 C.3      12 GLL5        0.0000 
     36 CA         27.6660   -0.4710   22.8770 C.3       8 GLP5        0.0000 
     37 CA         34.3190   -1.6545   23.1300 C.3       4 GLC5        0.0000 
     38 CA         33.6620   -3.7020   22.6190 C.3      12 GLL5        0.0000 
     39 CA         34.9760    0.3930   23.6410 C.3       8 GLP5        0.0000 
     40 OD1        31.8625   -5.1695   20.3675 O.co2     3 ASC3        0.0000 
     41 OD1        32.6000   -4.0420   20.3000 O.co2    11 ASL3        0.0000 
     42 OD1        31.1250   -6.2970   20.4350 O.co2     7 ASP3        0.0000 
     43 O          31.8625   -5.1695   20.3675 O.2       1 ALC1        0.0000 
     44 O          32.6000   -4.0420   20.3000 O.2       9 ALL1        0.0000 
     45 O          31.1250   -6.2970   20.4350 O.2       5 ALP1        0.0000 
     46 CA         33.7220   -5.9180   18.3540 C.3       4 GLC5        0.0000 
     47 CA         33.0510   -4.0280   18.8880 C.3      12 GLL5        0.0000 
     48 CA         34.3930   -7.8080   17.8200 C.3       8 GLP5        0.0000 
     49 CA         31.8490   -2.6460   15.2845 C.3       4 GLC5        0.0000 
     50 CA         31.8860   -3.5740   16.6460 C.3      12 GLL5        0.0000 
     51 CA         31.8120   -1.7180   13.9230 C.3       8 GLP5        0.0000 
     52 CA         31.3490   -4.6485   15.0090 C.3       4 GLC5        0.0000 
     53 CA         30.8120   -5.7230   13.3720 C.3       8 GLP5        0.0000 
     54 CA         29.6765   -0.9445   19.4310 C.3       4 GLC5        0.0000 
     55 CA         29.5960   -2.6780   18.7890 C.3      12 GLL5        0.0000 
     56 CA         29.7570    0.7890   20.0730 C.3       8 GLP5        0.0000 
     57 CA         29.7912   -1.0837   30.0917 C.3       4 GLC5        0.0000 
     58 CA         31.2290   -1.6020   28.3540 C.3      12 GLL5        0.0000 
     59 CA         26.3272   -4.2858   28.1895 C.3       4 GLC5        0.0000 
     60 CA         27.8770   -2.9010   27.8170 C.3      12 GLL5        0.0000 
     61 CA         25.4060   -5.8230   28.8220 C.3       8 GLP5        0.0000 
     62 CA         28.1212   -3.3472   25.7800 C.3       4 GLC5        0.0000 
     63 CA         26.6200   -2.5960   27.2970 C.3      12 GLL5        0.0000 
     64 CA         28.9940   -3.9460   24.0030 C.3       8 GLP5        0.0000 
     65 CA         26.4668    0.2812   25.6160 C.3       4 GLC5        0.0000 
     66 CA         26.2510   -1.2290   27.1610 C.3      12 GLL5        0.0000 
     67 CA         26.2200    1.2900   23.9090 C.3       8 GLP5        0.0000 
     68 CA         27.6511    0.7769   29.4899 C.3       4 GLC5        0.0000 
     69 CA         27.1760   -0.2260   27.4850 C.3      12 GLL5        0.0000 
     70 CA         26.6480    1.4760   30.9980 C.3       8 GLP5        0.0000 
     71 CA         32.1755    3.3498   27.3645 C.3       4 GLC5        0.0000 
     72 CA         31.1920    5.0370   27.3390 C.3       8 GLP5        0.0000 
     73 CA         34.6170    0.4958   26.5105 C.3       4 GLC5        0.0000 
     74 CA         36.0750   -0.6710   25.6310 C.3       8 GLP5        0.0000 
     75 CA         34.9300    3.4973   27.0440 C.3       4 GLC5        0.0000 
     76 CA         35.5560    5.1410   26.2870 C.3       8 GLP5        0.0000 
     77 CA         35.2745    2.9518   29.8972 C.3       4 GLC5        0.0000 
     78 CA         34.8180    1.7460   28.2770 C.3      12 GLL5        0.0000 
     79 CA         35.8390    4.5570   30.9530 C.3       8 GLP5        0.0000 
     80 CA         35.3925    0.3377   27.2362 C.3       4 GLC5        0.0000 
     81 CA         31.7386   -3.7655   28.3485 C.3       4 GLC5        0.0000 
     82 CA         31.4710   -5.2980   29.5890 C.3       8 GLP5        0.0000 
     83 CA         32.4840   -4.8823   25.6777 C.3       4 GLC5        0.0000 
     84 CA         32.1500   -6.8630   25.4040 C.3       8 GLP5        0.0000 
     85 CA         34.4465   -1.7862   25.7913 C.3       4 GLC5        0.0000 
     86 CA         33.4630   -0.7340   23.9980 C.3       4 GLC5        0.0000 
     87 CA         32.4280   -2.3410   24.2250 C.3      12 GLL5        0.0000 
     88 CA         30.8893    0.7067   24.5680 C.3       4 GLC5        0.0000 
     89 CA         33.8192   -5.4470   22.7175 C.3       4 GLC5        0.0000 
     90 CA         33.8910   -7.1380   23.5800 C.3       8 GLP5        0.0000 
     91 CA         35.3893   -3.7270   22.7850 C.3       4 GLC5        0.0000 
     92 CA         29.9075   -3.6397   16.6525 C.3       4 GLC5        0.0000 
     93 CA         31.7120   -3.8610   18.1380 C.3      12 GLL5        0.0000 
     94 CA         28.0160   -3.5620   15.9130 C.3       8 GLP5        0.0000 
     95 CA         29.1870   -3.1195   17.3835 C.3       4 GLC5        0.0000 
     96 CA         31.0663   -1.2565   20.2500 C.3       4 GLC5        0.0000 
     97 CA         31.1200   -2.6760   18.9190 C.3      12 GLL5        0.0000 
     98 CA         30.7670    0.2930   20.8560 C.3       8 GLP5        0.0000 
     99 CA         30.5298   -2.9980   24.5462 C.3       4 GLC5        0.0000 
@<TRIPOS>BOND
@<TRIPOS>SUBSTRUCTURE
     1 ALC1        4 GROUP        1 X    ALC  0     ROOT ALC X 1
     2 SEC2        1 GROUP        1 X    SEC  0     **** SEC X 2
     3 ASC3       40 GROUP        1 X    ASC  0     **** ASC X 3
     4 GLC5        7 GROUP        1 X    GLC  0     **** GLC X 6
     5 ALP1        6 GROUP        1 Y    ALP  0     ROOT ALP Y 8
     6 SEP2        3 GROUP        1 Y    SEP  0     **** SEP Y 9
     7 ASP3       42 GROUP        1 Y    ASP  0     **** ASP Y 10
     8 GLP5        9 GROUP        1 Y    GLP  0     **** GLP Y 13
     9 ALL1        5 GROUP        1 Z    ALL  0     ROOT ALL Z 15
    10 SEL2        2 GROUP        1 Z    SEL  0     **** SEL Z 16
    11 ASL3       41 GROUP        1 Z    ASL  0     **** ASL Z 17
    12 GLL5        8 GROUP        1 Z    GLL  0     **** GLL Z 20
@<TRIPOS>SET

