#    Name: 1xp1_AIH_1_ligand
#    Modification time : Tue Mar 25 10:27:23 2014

@<TRIPOS>MOLECULE
1xp1_AIH_1_ligand
   66    70     1     0     0
SMALL
NO_CHARGES


@<TRIPOS>ATOM
      1 C1         31.0200   -0.1590   28.8830 C.3       1 AIH600      0.0000 
      2 C2         31.2290   -1.6020   28.3540 C.3       1 AIH600      0.0000 
      3 O3         29.9990   -2.3260   28.6030 O.3       1 AIH600      0.0000 
      4 C4         28.7870   -1.9020   28.1250 C.ar      1 AIH600      0.0000 
      5 C5         27.8770   -2.9010   27.8170 C.ar      1 AIH600      0.0000 
      6 C6         26.6200   -2.5960   27.2970 C.ar      1 AIH600      0.0000 
      7 C7         26.2510   -1.2290   27.1610 C.ar      1 AIH600      0.0000 
      8 O8         25.0100   -0.9830   26.6580 O.3       1 AIH600      0.0000 
      9 C9         27.1760   -0.2260   27.4850 C.ar      1 AIH600      0.0000 
     10 C10        28.4710   -0.5330   27.9000 C.ar      1 AIH600      0.0000 
     11 S11        29.4850    0.5350   28.2710 S.3       1 AIH600      0.0000 
     12 C12        32.3210    0.5570   28.5810 C.ar      1 AIH600      0.0000 
     13 C13        32.5280    1.3640   27.4550 C.ar      1 AIH600      0.0000 
     14 C14        33.7900    1.9610   27.3250 C.ar      1 AIH600      0.0000 
     15 C15        34.8180    1.7460   28.2770 C.ar      1 AIH600      0.0000 
     16 O16        36.0360    2.3080   28.1080 O.3       1 AIH600      0.0000 
     17 C17        34.6020    0.9470   29.4060 C.ar      1 AIH600      0.0000 
     18 C18        33.3320    0.3420   29.5310 C.ar      1 AIH600      0.0000 
     19 C19        31.6000   -1.7960   26.8740 C.ar      1 AIH600      0.0000 
     20 C20        32.5980   -2.7670   26.6020 C.ar      1 AIH600      0.0000 
     21 C21        33.0380   -3.0360   25.3010 C.ar      1 AIH600      0.0000 
     22 C22        32.4280   -2.3410   24.2250 C.ar      1 AIH600      0.0000 
     23 C23        31.4720   -1.3810   24.4850 C.ar      1 AIH600      0.0000 
     24 C24        31.0490   -1.0880   25.8190 C.ar      1 AIH600      0.0000 
     25 O25        32.8320   -2.5750   22.9510 O.3       1 AIH600      0.0000 
     26 C26        33.6620   -3.7020   22.6190 C.3       1 AIH600      0.0000 
     27 C27        33.8330   -3.8100   21.0910 C.3       1 AIH600      0.0000 
     28 N28        32.6000   -4.0420   20.3000 N.4       1 AIH600      0.0000 
     29 C29        33.0510   -4.0280   18.8880 C.3       1 AIH600      0.0000 
     30 C30        31.7120   -3.8610   18.1380 C.3       1 AIH600      0.0000 
     31 C31        31.8860   -3.5740   16.6460 C.3       1 AIH600      0.0000 
     32 C32        31.1200   -2.6760   18.9190 C.3       1 AIH600      0.0000 
     33 C33        29.5960   -2.6780   18.7890 C.3       1 AIH600      0.0000 
     34 C34        31.6110   -2.9360   20.3690 C.3       1 AIH600      0.0000 
     35 H          30.8655   -0.2334   29.9595 H         1 AIH600      0.0000 
     36 H          32.0181   -2.0664   28.9671 H         1 AIH600      0.0000 
     37 H          28.1321   -3.8932   27.9747 H         1 AIH600      0.0000 
     38 H          25.9730   -3.3239   27.0178 H         1 AIH600      0.0000 
     39 H          26.8863    0.7671   27.4130 H         1 AIH600      0.0000 
     40 H          31.8070    1.5086   26.7727 H         1 AIH600      0.0000 
     41 H          33.9824    2.5754   26.5156 H         1 AIH600      0.0000 
     42 H          35.3132    0.8068   30.0982 H         1 AIH600      0.0000 
     43 H          33.1464   -0.2718   30.3408 H         1 AIH600      0.0000 
     44 H          33.0093   -3.2894   27.3977 H         1 AIH600      0.0000 
     45 H          33.7721   -3.7077   25.1229 H         1 AIH600      0.0000 
     46 H          31.0378   -0.8485   23.7110 H         1 AIH600      0.0000 
     47 H          30.3502   -0.3641   25.9701 H         1 AIH600      0.0000 
     48 H          33.2249   -4.6439   22.9698 H         1 AIH600      0.0000 
     49 H          34.6622   -3.6112   23.0577 H         1 AIH600      0.0000 
     50 H          34.5704   -4.6259   20.8912 H         1 AIH600      0.0000 
     51 H          34.3372   -2.8757   20.7414 H         1 AIH600      0.0000 
     52 H          32.1635   -4.9675   20.5129 H         1 AIH600      0.0000 
     53 H          33.4822   -4.9513   18.6132 H         1 AIH600      0.0000 
     54 H          33.6603   -3.1898   18.6875 H         1 AIH600      0.0000 
     55 H          31.1206   -4.7119   18.3243 H         1 AIH600      0.0000 
     56 H          31.5472   -1.7881   18.5622 H         1 AIH600      0.0000 
     57 H          32.0652   -2.0343   20.7386 H         1 AIH600      0.0000 
     58 H          30.7626   -3.2135   20.9682 H         1 AIH600      0.0000 
     59 H          32.4025   -2.7325   16.4874 H         1 AIH600      0.0000 
     60 H          32.3763   -4.3110   16.1807 H         1 AIH600      0.0000 
     61 H          31.0059   -3.4694   16.1828 H         1 AIH600      0.0000 
     62 H          29.3045   -2.5992   17.8357 H         1 AIH600      0.0000 
     63 H          29.1936   -3.5193   19.1500 H         1 AIH600      0.0000 
     64 H          29.1798   -1.9170   19.2866 H         1 AIH600      0.0000 
     65 H          24.9161   -1.6087   25.8835 H         1 AIH600      0.0000 
     66 H          36.0469    2.6212   27.1584 H         1 AIH600      0.0000 
@<TRIPOS>BOND
     1    2    1 1    
     2   11    1 1    
     3   12    1 1    
     4   35    1 1    
     5    3    2 1    
     6   19    2 1    
     7   36    2 1    
     8    4    3 1    
     9    5    4 ar   
    10   10    4 ar   
    11    6    5 ar   
    12   37    5 1    
    13    7    6 ar   
    14   38    6 1    
    15    8    7 1    
    16    9    7 ar   
    17   65    8 1    
    18   10    9 ar   
    19   39    9 1    
    20   11   10 1    
    21   13   12 ar   
    22   18   12 ar   
    23   14   13 ar   
    24   40   13 1    
    25   15   14 ar   
    26   41   14 1    
    27   16   15 1    
    28   17   15 ar   
    29   66   16 1    
    30   18   17 ar   
    31   42   17 1    
    32   43   18 1    
    33   20   19 ar   
    34   24   19 ar   
    35   21   20 ar   
    36   44   20 1    
    37   22   21 ar   
    38   45   21 1    
    39   23   22 ar   
    40   25   22 1    
    41   24   23 ar   
    42   46   23 1    
    43   47   24 1    
    44   26   25 1    
    45   27   26 1    
    46   48   26 1    
    47   49   26 1    
    48   28   27 1    
    49   50   27 1    
    50   51   27 1    
    51   29   28 1    
    52   34   28 1    
    53   52   28 1    
    54   30   29 1    
    55   53   29 1    
    56   54   29 1    
    57   31   30 1    
    58   32   30 1    
    59   55   30 1    
    60   59   31 1    
    61   60   31 1    
    62   61   31 1    
    63   33   32 1    
    64   34   32 1    
    65   56   32 1    
    66   62   33 1    
    67   63   33 1    
    68   64   33 1    
    69   57   34 1    
    70   58   34 1    
@<TRIPOS>SUBSTRUCTURE
     1 AIH600      1 GROUP   
@<TRIPOS>SET

