#    Name: 3k47_D09_1_INTS_M
#    Modification time : Mon Mar 24 18:10:35 2014

@<TRIPOS>MOLECULE
3k47_D09_1_INTS_M
   53     0     9     0     0
SMALL
NO_CHARGES


@<TRIPOS>ATOM
      1 CA         -9.8570   -0.5605   14.1830 C.3       3 GLC5        0.0000 
      2 CA         -8.8100    1.0490   14.5860 C.3       9 GLL5        0.0000 
      3 CA        -10.9040   -2.1700   13.7800 C.3       6 GLP5        0.0000 
      4 CA         -4.6535   -2.4860   13.4905 C.3       3 GLC5        0.0000 
      5 CA         -4.8480   -0.6710   13.0480 C.3       9 GLL5        0.0000 
      6 CA         -4.4590   -4.3010   13.9330 C.3       6 GLP5        0.0000 
      7 CA         -6.8340   -1.5120   12.6365 C.3       3 GLC5        0.0000 
      8 CA         -8.8200   -2.3530   12.2250 C.3       6 GLP5        0.0000 
      9 CA         -3.5655   -1.6165   11.4625 C.3       3 GLC5        0.0000 
     10 CA         -2.2830   -2.5620    9.8770 C.3       6 GLP5        0.0000 
     11 CA         -3.4365   -1.2425   14.4815 C.3       3 GLC5        0.0000 
     12 CA         -2.0250   -1.8140   15.9150 C.3       6 GLP5        0.0000 
     13 CA         -7.8175   -2.4855   16.9185 C.3       3 GLC5        0.0000 
     14 CA         -6.9180   -0.9120   16.3950 C.3       9 GLL5        0.0000 
     15 CA         -8.7170   -4.0590   17.4420 C.3       6 GLP5        0.0000 
     16 CA          1.1425    4.2855   12.2565 C.3       3 GLC5        0.0000 
     17 CA          0.0510    4.6490   13.8750 C.3       9 GLL5        0.0000 
     18 CA          2.2340    3.9220   10.6380 C.3       6 GLP5        0.0000 
     19 CA          1.5005    3.4185   14.4085 C.3       3 GLC5        0.0000 
     20 CA          2.9500    2.1880   14.9420 C.3       6 GLP5        0.0000 
     21 CA          0.4970    5.2205   15.7425 C.3       3 GLC5        0.0000 
     22 CA          0.9430    5.7920   17.6100 C.3       6 GLP5        0.0000 
     23 CA         -1.0505    5.2550   12.2580 C.3       3 GLC5        0.0000 
     24 CA         -2.1520    5.8610   10.6410 C.3       6 GLP5        0.0000 
     25 O           2.3230    5.0155   14.5065 O.2       1 ALC1        0.0000 
     26 O           1.0290    5.5040   13.9220 O.2       7 ALL1        0.0000 
     27 O           3.6170    4.5270   15.0910 O.2       4 ALP1        0.0000 
     28 O           0.7390    6.8285   13.9940 O.2       1 ALC1        0.0000 
     29 O           0.4490    8.1530   14.0660 O.2       4 ALP1        0.0000 
     30 N          -1.3640    6.4010   14.4515 N.am      2 SEC2        0.0000 
     31 N          -1.2070    5.0990   14.0440 N.am      8 SEL2        0.0000 
     32 N          -1.5210    7.7030   14.8590 N.am      5 SEP2        0.0000 
     33 CA         -1.5990   -0.4200   11.6740 C.3       3 GLC5        0.0000 
     34 CA         -2.1020    0.7010   13.3120 C.3       9 GLL5        0.0000 
     35 CA         -1.0960   -1.5410   10.0360 C.3       6 GLP5        0.0000 
     36 CA          0.7585    3.1815   12.0855 C.3       3 GLC5        0.0000 
     37 CA         -0.7170    2.4410   13.5330 C.3       9 GLL5        0.0000 
     38 CA          1.1165    2.3145   14.2375 C.3       3 GLC5        0.0000 
     39 CA        -10.8987    0.8047   14.2015 C.3       3 GLC5        0.0000 
     40 CA        -12.6580    0.3350   14.3980 C.3       6 GLP5        0.0000 
     41 CA        -10.0470    0.1175   12.0517 C.3       3 GLC5        0.0000 
     42 CA         -9.4690    1.5000   13.4240 C.3       9 GLL5        0.0000 
     43 CA        -10.9730   -1.3710   11.2850 C.3       6 GLP5        0.0000 
     44 CA         -8.1418    0.8530   10.3910 C.3       3 GLC5        0.0000 
     45 CA         -8.7730    1.7120   12.2130 C.3       9 GLL5        0.0000 
     46 CA         -8.2070    0.1180    8.5850 C.3       6 GLP5        0.0000 
     47 CA         -8.0228   -0.5841   12.6442 C.3       3 GLC5        0.0000 
     48 CA         -7.3800    1.4640   12.1810 C.3       9 GLL5        0.0000 
     49 CA         -4.1082    1.5995   11.5675 C.3       3 GLC5        0.0000 
     50 CA         -5.3310    0.7620   13.3440 C.3       9 GLL5        0.0000 
     51 CA         -3.3530    1.8710    9.5950 C.3       6 GLP5        0.0000 
     52 CA         -2.1520    4.7133   12.2498 C.3       3 GLC5        0.0000 
     53 CA         -2.0390    2.8800   13.7270 C.3       9 GLL5        0.0000 
@<TRIPOS>BOND
@<TRIPOS>SUBSTRUCTURE
     1 ALC1       25 GROUP        1 X    ALC  0     ROOT ALC X 1
     2 SEC2       30 GROUP        1 X    SEC  0     **** SEC X 2
     3 GLC5        1 GROUP        1 X    GLC  0     **** GLC X 6
     4 ALP1       27 GROUP        1 Y    ALP  0     ROOT ALP Y 8
     5 SEP2       32 GROUP        1 Y    SEP  0     **** SEP Y 9
     6 GLP5        3 GROUP        1 Y    GLP  0     **** GLP Y 13
     7 ALL1       26 GROUP        1 Z    ALL  0     ROOT ALL Z 15
     8 SEL2       31 GROUP        1 Z    SEL  0     **** SEL Z 16
     9 GLL5        2 GROUP        1 Z    GLL  0     **** GLL Z 20
@<TRIPOS>SET

