#    Name: 3k47_D09_1_ligand
#    Modification time : Mon Mar 24 18:10:35 2014

@<TRIPOS>MOLECULE
3k47_D09_1_ligand
   40    42     1     0     0
SMALL
NO_CHARGES


@<TRIPOS>ATOM
      1 C'1        -6.7100    1.0210   13.3430 C.ar      1 D09188      0.0000 
      2 C'2        -7.4320    0.7900   14.5490 C.ar      1 D09188      0.0000 
      3 C'3        -8.8100    1.0490   14.5860 C.ar      1 D09188      0.0000 
      4 C'4        -9.4690    1.5000   13.4240 C.ar      1 D09188      0.0000 
      5 C'5        -8.7730    1.7120   12.2130 C.ar      1 D09188      0.0000 
      6 C'6        -7.3800    1.4640   12.1810 C.ar      1 D09188      0.0000 
      7 N1'         0.2930    3.3510   13.6210 N.ar      1 D09188      0.0000 
      8 C10        -4.8480   -0.6710   13.0480 C.3       1 D09188      0.0000 
      9 C11        -5.3310    0.7620   13.3440 C.3       1 D09188      0.0000 
     10 C13        -6.9180   -0.9120   16.3950 C.3       1 D09188      0.0000 
     11 O13        -6.7390    0.3700   15.6780 O.3       1 D09188      0.0000 
     12 C2'         0.0510    4.6490   13.8750 C.ar      1 D09188      0.0000 
     13 N2'         1.0290    5.5040   13.9220 N.pl3     1 D09188      0.0000 
     14 N3'        -1.2070    5.0990   14.0440 N.ar      1 D09188      0.0000 
     15 C4'        -2.2650    4.2510   13.9900 C.ar      1 D09188      0.0000 
     16 N4'        -3.4840    4.7630   14.2020 N.pl3     1 D09188      0.0000 
     17 C5'        -2.0390    2.8800   13.7270 C.ar      1 D09188      0.0000 
     18 C6'        -2.8750    1.7640   13.6000 C.2       1 D09188      0.0000 
     19 C7'        -2.1020    0.7010   13.3120 C.2       1 D09188      0.0000 
     20 C8'        -0.7170    2.4410   13.5330 C.ar      1 D09188      0.0000 
     21 O8'        -0.7570    1.0640   13.2760 O.3       1 D09188      0.0000 
     22 C9'        -4.3960    1.8940   13.7360 C.3       1 D09188      0.0000 
     23 H          -9.3372    0.9124   15.4501 H         1 D09188      0.0000 
     24 H         -10.4855    1.6802   13.4577 H         1 D09188      0.0000 
     25 H          -9.2580    2.0336   11.3873 H         1 D09188      0.0000 
     26 H          -6.8582    1.6062   11.3138 H         1 D09188      0.0000 
     27 H          -5.2210    1.1092   11.9699 H         1 D09188      0.0000 
     28 H           0.8032    6.4450   13.6701 H         1 D09188      0.0000 
     29 H           1.9168    5.1418   14.2057 H         1 D09188      0.0000 
     30 H          -3.5189    5.7357   14.4315 H         1 D09188      0.0000 
     31 H          -4.2502    4.1268   14.1118 H         1 D09188      0.0000 
     32 H          -2.4133   -0.2063   13.1473 H         1 D09188      0.0000 
     33 H          -4.6216    2.1810   14.8143 H         1 D09188      0.0000 
     34 H          -4.7136    2.8275   13.1670 H         1 D09188      0.0000 
     35 H          -3.8506   -0.7389   13.0711 H         1 D09188      0.0000 
     36 H          -5.2020   -1.3273   13.7143 H         1 D09188      0.0000 
     37 H          -5.1422   -0.9829   12.1446 H         1 D09188      0.0000 
     38 H          -6.7349   -1.6971   15.8034 H         1 D09188      0.0000 
     39 H          -6.3036   -0.9872   17.1804 H         1 D09188      0.0000 
     40 H          -7.8503   -1.0169   16.7411 H         1 D09188      0.0000 
@<TRIPOS>BOND
     1    2    1 ar   
     2    6    1 ar   
     3    9    1 1    
     4    3    2 ar   
     5   11    2 1    
     6    4    3 ar   
     7   23    3 1    
     8    5    4 ar   
     9   24    4 1    
    10    6    5 ar   
    11   25    5 1    
    12   26    6 1    
    13   12    7 ar   
    14   20    7 ar   
    15    9    8 1    
    16   35    8 1    
    17   36    8 1    
    18   37    8 1    
    19   22    9 1    
    20   27    9 1    
    21   11   10 1    
    22   38   10 1    
    23   39   10 1    
    24   40   10 1    
    25   13   12 1    
    26   14   12 ar   
    27   28   13 1    
    28   29   13 1    
    29   15   14 ar   
    30   16   15 1    
    31   17   15 ar   
    32   30   16 1    
    33   31   16 1    
    34   18   17 1    
    35   20   17 ar   
    36   19   18 2    
    37   22   18 1    
    38   21   19 1    
    39   32   19 1    
    40   21   20 1    
    41   33   22 1    
    42   34   22 1    
@<TRIPOS>SUBSTRUCTURE
     1 D09188      1 GROUP   
@<TRIPOS>SET

