#    Name: 3jrx_S1A_1_INTS_M
#    Modification time : Tue Mar 25 17:51:10 2014

@<TRIPOS>MOLECULE
3jrx_S1A_1_INTS_M
   96     0     9     0     0
SMALL
NO_CHARGES


@<TRIPOS>ATOM
      1 CA        -43.2875   26.9070  -15.4890 C.3       3 GLC5        0.0000 
      2 CA        -43.0360   25.4650  -17.0210 C.3       9 GLL5        0.0000 
      3 CA        -43.5390   28.3490  -13.9570 C.3       6 GLP5        0.0000 
      4 CA        -40.1475   24.3365  -17.9565 C.3       3 GLC5        0.0000 
      5 CA        -41.7590   24.5840  -19.1540 C.3       9 GLL5        0.0000 
      6 CA        -38.5360   24.0890  -16.7590 C.3       6 GLP5        0.0000 
      7 CA        -42.1340   21.7950  -21.4935 C.3       3 GLC5        0.0000 
      8 CA        -41.9300   23.7530  -20.5000 C.3       9 GLL5        0.0000 
      9 CA        -42.3380   19.8370  -22.4870 C.3       6 GLP5        0.0000 
     10 CA        -40.3390   23.8825  -21.8555 C.3       3 GLC5        0.0000 
     11 CA        -38.7480   24.0120  -23.2110 C.3       6 GLP5        0.0000 
     12 CA        -43.4430   22.0710  -22.2225 C.3       3 GLC5        0.0000 
     13 CA        -43.3720   23.8570  -21.0900 C.3       9 GLL5        0.0000 
     14 CA        -43.5140   20.2850  -23.3550 C.3       6 GLP5        0.0000 
     15 CA        -48.1105   20.8275  -20.6135 C.3       3 GLC5        0.0000 
     16 CA        -47.2590   22.0820  -18.9900 C.3       9 GLL5        0.0000 
     17 CA        -48.9620   19.5730  -22.2370 C.3       6 GLP5        0.0000 
     18 CA        -48.7285   19.8750  -15.4755 C.3       3 GLC5        0.0000 
     19 CA        -47.9140   20.5050  -17.0590 C.3       9 GLL5        0.0000 
     20 CA        -49.5430   19.2450  -13.8920 C.3       6 GLP5        0.0000 
     21 CA        -45.2430   19.5350  -17.2125 C.3       3 GLC5        0.0000 
     22 CA        -46.5260   20.6350  -16.3780 C.3       9 GLL5        0.0000 
     23 CA        -43.9600   18.4350  -18.0470 C.3       6 GLP5        0.0000 
     24 CA        -47.4735   19.6460  -14.8790 C.3       3 GLC5        0.0000 
     25 CA        -48.4210   18.6570  -13.3800 C.3       6 GLP5        0.0000 
     26 CA        -44.0490   20.5995  -16.1475 C.3       3 GLC5        0.0000 
     27 CA        -45.1070   21.6290  -14.6050 C.3       9 GLL5        0.0000 
     28 CA        -42.9910   19.5700  -17.6900 C.3       6 GLP5        0.0000 
     29 CA        -44.7770   21.6605  -11.6850 C.3       3 GLC5        0.0000 
     30 CA        -44.9050   22.6990  -13.5500 C.3       9 GLL5        0.0000 
     31 CA        -44.6490   20.6220   -9.8200 C.3       6 GLP5        0.0000 
     32 CA        -40.1335   24.7865  -16.4800 C.3       3 GLC5        0.0000 
     33 CA        -41.7310   25.4840  -16.2010 C.3       9 GLL5        0.0000 
     34 CA        -40.5170   26.6305  -15.3215 C.3       3 GLC5        0.0000 
     35 CA        -39.3030   27.7770  -14.4420 C.3       6 GLP5        0.0000 
     36 CA        -39.3670   25.2395  -18.1020 C.3       3 GLC5        0.0000 
     37 CA        -40.1980   26.3900  -19.4450 C.3       9 GLL5        0.0000 
     38 CA        -39.0865   25.1045  -20.6785 C.3       3 GLC5        0.0000 
     39 CA        -37.9750   23.8190  -21.9120 C.3       6 GLP5        0.0000 
     40 CA        -44.1180   25.3865  -23.6555 C.3       3 GLC5        0.0000 
     41 CA        -43.5590   25.2460  -21.7550 C.3       9 GLL5        0.0000 
     42 CA        -44.6770   25.5270  -25.5560 C.3       6 GLP5        0.0000 
     43 CA        -46.8900   20.8210  -21.9300 C.3       3 GLC5        0.0000 
     44 CA        -46.1710   22.7650  -21.7270 C.3       9 GLL5        0.0000 
     45 CA        -47.6090   18.8770  -22.1330 C.3       6 GLP5        0.0000 
     46 CA        -44.8425   21.5250  -22.5410 C.3       3 GLC5        0.0000 
     47 CA        -45.7950   23.4690  -23.6695 C.3       3 GLC5        0.0000 
     48 CA        -45.4190   24.1730  -25.6120 C.3       6 GLP5        0.0000 
     49 CA        -48.0425   16.5630  -16.0030 C.3       3 GLC5        0.0000 
     50 CA        -47.9660   18.1030  -17.2720 C.3       9 GLL5        0.0000 
     51 CA        -48.1190   15.0230  -14.7340 C.3       6 GLP5        0.0000 
     52 CA        -48.8445   16.7740  -18.2650 C.3       3 GLC5        0.0000 
     53 CA        -49.7230   15.4450  -19.2580 C.3       6 GLP5        0.0000 
     54 CA        -46.5950   17.1235  -18.3455 C.3       3 GLC5        0.0000 
     55 CA        -45.2240   16.1440  -19.4190 C.3       6 GLP5        0.0000 
     56 CA        -48.7545   18.6740  -15.5820 C.3       3 GLC5        0.0000 
     57 CA        -42.3690   23.2625  -12.9380 C.3       3 GLC5        0.0000 
     58 CA        -43.3360   25.0970  -12.2360 C.3       9 GLL5        0.0000 
     59 CA        -41.4020   21.4280  -13.6400 C.3       6 GLP5        0.0000 
     60 CA        -41.4285   26.7500  -10.1445 C.3       3 GLC5        0.0000 
     61 CA        -43.0540   25.8000  -11.0500 C.3       9 GLL5        0.0000 
     62 CA        -39.8030   27.7000   -9.2390 C.3       6 GLP5        0.0000 
     63 CA        -43.8355   28.3010   -9.9040 C.3       3 GLC5        0.0000 
     64 CA        -44.1070   26.4110  -10.3270 C.3       9 GLL5        0.0000 
     65 CA        -43.5640   30.1910   -9.4810 C.3       6 GLP5        0.0000 
     66 CA        -47.4150   24.6320  -11.7860 C.3       3 GLC5        0.0000 
     67 CA        -45.7440   25.6080  -12.0010 C.3       9 GLL5        0.0000 
     68 CA        -49.0860   23.6560  -11.5710 C.3       6 GLP5        0.0000 
     69 N         -42.1220   21.2240  -20.6790 N.am      2 SEC2        0.0000 
     70 N         -41.6270   22.3800  -20.2420 N.am      8 SEL2        0.0000 
     71 N         -42.6170   20.0680  -21.1160 N.am      5 SEP2        0.0000 
     72 O         -40.3700   22.0660  -19.7210 O.2       1 ALC1        0.0000 
     73 O         -41.6270   22.3800  -20.2420 O.2       7 ALL1        0.0000 
     74 O         -39.1130   21.7520  -19.2000 O.2       4 ALP1        0.0000 
     75 N         -49.9310   20.3215  -19.3280 N.am      2 SEC2        0.0000 
     76 N         -49.5960   21.6190  -18.4420 N.am      8 SEL2        0.0000 
     77 N         -50.2660   19.0240  -20.2140 N.am      5 SEP2        0.0000 
     78 N         -50.4475   20.2880  -18.3075 N.am      2 SEC2        0.0000 
     79 N         -51.2990   18.9570  -18.1730 N.am      5 SEP2        0.0000 
     80 N         -49.0870   19.2030  -19.0985 N.am      2 SEC2        0.0000 
     81 N         -47.9080   19.3820  -17.9830 N.am      8 SEL2        0.0000 
     82 N         -49.6035   19.1695  -18.0780 N.am      2 SEC2        0.0000 
     83 CA        -43.2040   21.7960  -13.8588 C.3       3 GLC5        0.0000 
     84 CA        -46.5886   21.4240  -13.1867 C.3       3 GLC5        0.0000 
     85 CA        -47.8470   20.6520  -12.1080 C.3       6 GLP5        0.0000 
     86 CA        -44.3597   24.0508  -10.8120 C.3       3 GLC5        0.0000 
     87 CA        -44.6950   24.9940  -12.7240 C.3       9 GLL5        0.0000 
     88 CA        -44.7040   23.0560   -9.1440 C.3       6 GLP5        0.0000 
     89 CA        -43.3670   26.8987  -12.8000 C.3       3 GLC5        0.0000 
     90 CA        -44.1423   24.5808   -9.9163 C.3       3 GLC5        0.0000 
     91 CA        -44.1598   27.3568  -12.2595 C.3       3 GLC5        0.0000 
     92 CA        -44.9288   26.6158   -8.5090 C.3       3 GLC5        0.0000 
     93 CA        -45.0770   26.8670   -6.4560 C.3       6 GLP5        0.0000 
     94 CA        -45.1515   24.5095  -10.2715 C.3       3 GLC5        0.0000 
     95 CA        -45.4540   26.3180  -10.7970 C.3       9 GLL5        0.0000 
     96 CA        -44.4149   26.7215  -13.3202 C.3       3 GLC5        0.0000 
@<TRIPOS>BOND
@<TRIPOS>SUBSTRUCTURE
     1 ALC1       72 GROUP        1 X    ALC  0     ROOT ALC X 1
     2 SEC2       69 GROUP        1 X    SEC  0     **** SEC X 2
     3 GLC5        1 GROUP        1 X    GLC  0     **** GLC X 6
     4 ALP1       74 GROUP        1 Y    ALP  0     ROOT ALP Y 8
     5 SEP2       71 GROUP        1 Y    SEP  0     **** SEP Y 9
     6 GLP5        3 GROUP        1 Y    GLP  0     **** GLP Y 13
     7 ALL1       73 GROUP        1 Z    ALL  0     ROOT ALL Z 15
     8 SEL2       70 GROUP        1 Z    SEL  0     **** SEL Z 16
     9 GLL5        2 GROUP        1 Z    GLL  0     **** GLL Z 20
@<TRIPOS>SET

