#    Name: 3jrx_S1A_1_ligand
#    Modification time : Tue Mar 25 17:51:11 2014

@<TRIPOS>MOLECULE
3jrx_S1A_1_ligand
   81    83     1     0     0
SMALL
NO_CHARGES


@<TRIPOS>ATOM
      1 C1        -44.2290   25.2330  -16.0730 C.2       1 S1A1000     0.0000 
      2 C2        -43.0360   25.4650  -17.0210 C.3       1 S1A1000     0.0000 
      3 C3        -43.0030   24.3820  -18.1640 C.3       1 S1A1000     0.0000 
      4 C4        -41.7590   24.5840  -19.1540 C.3       1 S1A1000     0.0000 
      5 C5        -41.9300   23.7530  -20.5000 C.3       1 S1A1000     0.0000 
      6 C6        -43.3720   23.8570  -21.0900 C.3       1 S1A1000     0.0000 
      7 C7        -44.4530   23.5540  -19.9770 C.3       1 S1A1000     0.0000 
      8 C8        -45.9070   23.7030  -20.5330 C.3       1 S1A1000     0.0000 
      9 C9        -46.9490   23.3900  -19.3810 C.2       1 S1A1000     0.0000 
     10 C10       -47.2590   22.0820  -18.9900 C.2       1 S1A1000     0.0000 
     11 C11       -48.2920   21.7990  -17.8550 C.3       1 S1A1000     0.0000 
     12 C12       -47.9140   20.5050  -17.0590 C.3       1 S1A1000     0.0000 
     13 C13       -46.5260   20.6350  -16.3780 C.3       1 S1A1000     0.0000 
     14 C14       -46.4040   21.7570  -15.3570 C.3       1 S1A1000     0.0000 
     15 C15       -45.1070   21.6290  -14.6050 C.3       1 S1A1000     0.0000 
     16 C16       -44.9050   22.6990  -13.5500 C.3       1 S1A1000     0.0000 
     17 C17       -44.9800   24.1660  -14.0080 C.3       1 S1A1000     0.0000 
     18 C19       -41.7310   25.4840  -16.2010 C.3       1 S1A1000     0.0000 
     19 C20       -40.1980   26.3900  -19.4450 C.3       1 S1A1000     0.0000 
     20 C21       -43.5590   25.2460  -21.7550 C.3       1 S1A1000     0.0000 
     21 C22       -46.1710   22.7650  -21.7270 C.3       1 S1A1000     0.0000 
     22 C23       -50.5980   22.3730  -17.7070 C.3       1 S1A1000     0.0000 
     23 C24       -47.9660   18.1030  -17.2720 C.3       1 S1A1000     0.0000 
     24 C25       -44.6950   24.9940  -12.7240 C.ar      1 S1A1000     0.0000 
     25 C26       -43.3360   25.0970  -12.2360 C.ar      1 S1A1000     0.0000 
     26 C27       -43.0540   25.8000  -11.0500 C.ar      1 S1A1000     0.0000 
     27 C28       -44.1070   26.4110  -10.3270 C.ar      1 S1A1000     0.0000 
     28 C29       -45.4540   26.3180  -10.7970 C.ar      1 S1A1000     0.0000 
     29 C30       -45.7440   25.6080  -12.0010 C.ar      1 S1A1000     0.0000 
     30 O1        -45.3970   25.6870  -16.1590 O.2       1 S1A1000     0.0000 
     31 O3        -42.8940   23.0670  -17.5630 O.3       1 S1A1000     0.0000 
     32 O4        -41.6040   25.9910  -19.4730 O.3       1 S1A1000     0.0000 
     33 O5        -41.6270   22.3800  -20.2420 O.3       1 S1A1000     0.0000 
     34 O7        -44.2830   24.4680  -18.8540 O.3       1 S1A1000     0.0000 
     35 O11       -49.5960   21.6190  -18.4420 O.3       1 S1A1000     0.0000 
     36 O12       -47.9080   19.3820  -17.9830 O.3       1 S1A1000     0.0000 
     37 O18       -43.9250   24.4360  -15.0020 O.3       1 S1A1000     0.0000 
     38 H         -43.1610   26.4366  -17.4872 H         1 S1A1000     0.0000 
     39 H         -40.8859   24.2014  -18.6490 H         1 S1A1000     0.0000 
     40 H         -41.2440   24.1739  -21.2209 H         1 S1A1000     0.0000 
     41 H         -43.4639   23.0944  -21.8588 H         1 S1A1000     0.0000 
     42 H         -44.3219   22.5333  -19.6626 H         1 S1A1000     0.0000 
     43 H         -46.0596   24.7204  -20.8362 H         1 S1A1000     0.0000 
     44 H         -47.3633   24.2151  -18.9607 H         1 S1A1000     0.0000 
     45 H         -46.8437   21.2611  -19.4078 H         1 S1A1000     0.0000 
     46 H         -48.2784   22.6239  -17.1746 H         1 S1A1000     0.0000 
     47 H         -48.6575   20.3632  -16.2941 H         1 S1A1000     0.0000 
     48 H         -45.7663   20.7777  -17.1700 H         1 S1A1000     0.0000 
     49 H         -46.2905   19.6700  -15.8900 H         1 S1A1000     0.0000 
     50 H         -47.2402   21.6996  -14.6626 H         1 S1A1000     0.0000 
     51 H         -46.4379   22.7144  -15.8736 H         1 S1A1000     0.0000 
     52 H         -44.2650   21.6690  -15.3197 H         1 S1A1000     0.0000 
     53 H         -45.0623   20.6369  -14.1202 H         1 S1A1000     0.0000 
     54 H         -43.9141   22.5402  -13.0578 H         1 S1A1000     0.0000 
     55 H         -45.6565   22.5516  -12.7358 H         1 S1A1000     0.0000 
     56 H         -45.9372   24.3821  -14.3487 H         1 S1A1000     0.0000 
     57 H         -42.5895   24.6505  -12.7685 H         1 S1A1000     0.0000 
     58 H         -42.0955   25.8714  -10.7091 H         1 S1A1000     0.0000 
     59 H         -43.9099   26.9212   -9.4663 H         1 S1A1000     0.0000 
     60 H         -46.2050   26.7580  -10.2728 H         1 S1A1000     0.0000 
     61 H         -46.7030   25.5473  -12.3326 H         1 S1A1000     0.0000 
     62 H         -40.9304   25.6361  -16.7806 H         1 S1A1000     0.0000 
     63 H         -41.7359   26.2086  -15.5119 H         1 S1A1000     0.0000 
     64 H         -41.5834   24.6210  -15.7178 H         1 S1A1000     0.0000 
     65 H         -39.7878   26.2421  -18.5451 H         1 S1A1000     0.0000 
     66 H         -39.6521   25.8732  -20.1045 H         1 S1A1000     0.0000 
     67 H         -40.0824   27.3588  -19.6641 H         1 S1A1000     0.0000 
     68 H         -43.4297   25.9913  -21.1010 H         1 S1A1000     0.0000 
     69 H         -42.9069   25.3924  -22.4989 H         1 S1A1000     0.0000 
     70 H         -44.4747   25.3519  -22.1428 H         1 S1A1000     0.0000 
     71 H         -45.5474   22.9470  -22.4872 H         1 S1A1000     0.0000 
     72 H         -46.0554   21.8037  -21.4768 H         1 S1A1000     0.0000 
     73 H         -47.1011   22.8661  -22.0802 H         1 S1A1000     0.0000 
     74 H         -50.6553   22.0819  -16.7520 H         1 S1A1000     0.0000 
     75 H         -50.3969   23.3526  -17.7033 H         1 S1A1000     0.0000 
     76 H         -51.5099   22.2625  -18.1023 H         1 S1A1000     0.0000 
     77 H         -47.9622   17.3270  -17.9027 H         1 S1A1000     0.0000 
     78 H         -47.1867   17.9845  -16.6567 H         1 S1A1000     0.0000 
     79 H         -48.7933   18.0245  -16.7157 H         1 S1A1000     0.0000 
     80 H         -42.4531   22.5002  -18.2590 H         1 S1A1000     0.0000 
     81 H         -40.6788   22.3796  -19.9242 H         1 S1A1000     0.0000 
@<TRIPOS>BOND
     1    2    1 1    
     2   30    1 2    
     3   37    1 1    
     4    3    2 1    
     5   18    2 1    
     6   38    2 1    
     7    4    3 1    
     8   31    3 1    
     9   34    3 1    
    10    5    4 1    
    11   32    4 1    
    12   39    4 1    
    13    6    5 1    
    14   33    5 1    
    15   40    5 1    
    16    7    6 1    
    17   20    6 1    
    18   41    6 1    
    19    8    7 1    
    20   34    7 1    
    21   42    7 1    
    22    9    8 1    
    23   21    8 1    
    24   43    8 1    
    25   10    9 2    
    26   44    9 1    
    27   11   10 1    
    28   45   10 1    
    29   12   11 1    
    30   35   11 1    
    31   46   11 1    
    32   13   12 1    
    33   36   12 1    
    34   47   12 1    
    35   14   13 1    
    36   48   13 1    
    37   49   13 1    
    38   15   14 1    
    39   50   14 1    
    40   51   14 1    
    41   16   15 1    
    42   52   15 1    
    43   53   15 1    
    44   17   16 1    
    45   54   16 1    
    46   55   16 1    
    47   24   17 1    
    48   37   17 1    
    49   56   17 1    
    50   62   18 1    
    51   63   18 1    
    52   64   18 1    
    53   32   19 1    
    54   65   19 1    
    55   66   19 1    
    56   67   19 1    
    57   68   20 1    
    58   69   20 1    
    59   70   20 1    
    60   71   21 1    
    61   72   21 1    
    62   73   21 1    
    63   35   22 1    
    64   74   22 1    
    65   75   22 1    
    66   76   22 1    
    67   36   23 1    
    68   77   23 1    
    69   78   23 1    
    70   79   23 1    
    71   25   24 ar   
    72   29   24 ar   
    73   26   25 ar   
    74   57   25 1    
    75   27   26 ar   
    76   58   26 1    
    77   28   27 ar   
    78   59   27 1    
    79   29   28 ar   
    80   60   28 1    
    81   61   29 1    
    82   80   31 1    
    83   81   33 1    
@<TRIPOS>SUBSTRUCTURE
     1 S1A1000     1 GROUP   
@<TRIPOS>SET

