#    Name: 2flh_ZEA_9_INTS_M
#    Modification time : Tue Mar 25 12:52:47 2014

@<TRIPOS>MOLECULE
2flh_ZEA_9_INTS_M
   30     0     3     0     0
SMALL
NO_CHARGES


@<TRIPOS>ATOM
      1 CA         66.4480   66.0755   -5.8435 C.3       1 GLC5        0.0000 
      2 CA         65.5210   67.0070   -4.6960 C.3       3 GLL5        0.0000 
      3 CA         67.3750   65.1440   -6.9910 C.3       2 GLP5        0.0000 
      4 CA         67.1045   68.2190   -3.9220 C.3       1 GLC5        0.0000 
      5 CA         68.6880   69.4310   -3.1480 C.3       2 GLP5        0.0000 
      6 CA         65.4020   66.4595   -2.4950 C.3       1 GLC5        0.0000 
      7 CA         64.9110   68.6210   -2.7320 C.3       3 GLL5        0.0000 
      8 CA         65.8930   64.2980   -2.2580 C.3       2 GLP5        0.0000 
      9 CA         66.7180   68.5985   -2.3180 C.3       1 GLC5        0.0000 
     10 CA         68.5250   68.5760   -1.9040 C.3       2 GLP5        0.0000 
     11 CA         65.3965   68.3705   -1.0530 C.3       1 GLC5        0.0000 
     12 CA         65.8820   68.1200    0.6260 C.3       2 GLP5        0.0000 
     13 CA         63.5110   69.9180   -2.0410 C.3       1 GLC5        0.0000 
     14 CA         62.1110   71.2150   -1.3500 C.3       2 GLP5        0.0000 
     15 CA         62.2355   68.7435   -2.9035 C.3       1 GLC5        0.0000 
     16 CA         63.2040   66.8160   -3.5260 C.3       3 GLL5        0.0000 
     17 CA         61.2670   70.6710   -2.2810 C.3       2 GLP5        0.0000 
     18 CA         61.0935   68.6180   -2.2160 C.3       1 GLC5        0.0000 
     19 CA         62.1230   67.1750   -2.5540 C.3       3 GLL5        0.0000 
     20 CA         60.0640   70.0610   -1.8780 C.3       2 GLP5        0.0000 
     21 CA         58.3305   61.9930   -4.0530 C.3       1 GLC5        0.0000 
     22 CA         58.9150   63.5720   -3.0360 C.3       3 GLL5        0.0000 
     23 CA         57.7460   60.4140   -5.0700 C.3       2 GLP5        0.0000 
     24 CA         57.8190   66.5285   -5.1780 C.3       1 GLC5        0.0000 
     25 CA         59.1630   65.0730   -4.6240 C.3       3 GLL5        0.0000 
     26 CA         56.4750   67.9840   -5.7320 C.3       2 GLP5        0.0000 
     27 CA         65.4522   65.7648   -3.2155 C.3       1 GLC5        0.0000 
     28 CA         64.5020   67.4560   -3.6500 C.3       3 GLL5        0.0000 
     29 CA         63.6437   65.3858   -2.6105 C.3       1 GLC5        0.0000 
     30 CA         64.6240   63.7760   -2.1810 C.3       2 GLP5        0.0000 
@<TRIPOS>BOND
@<TRIPOS>SUBSTRUCTURE
     1 GLC5        1 GROUP        1 X    GLC  0     ROOT GLC X 6
     2 GLP5        3 GROUP        1 Y    GLP  0     ROOT GLP Y 13
     3 GLL5        2 GROUP        1 Z    GLL  0     ROOT GLL Z 20
@<TRIPOS>SET

