#    Name: 2flh_ZEA_9_ligand
#    Modification time : Tue Mar 25 12:52:47 2014

@<TRIPOS>MOLECULE
2flh_ZEA_9_ligand
   29    30     1     0     0
SMALL
NO_CHARGES


@<TRIPOS>ATOM
      1 O16        64.8220   66.5800   -5.8440 O.3       1 ZEA707      0.0000 
      2 C14        65.5210   67.0070   -4.6960 C.3       1 ZEA707      0.0000 
      3 C13        64.5020   67.4560   -3.6500 C.2       1 ZEA707      0.0000 
      4 C15        64.9110   68.6210   -2.7320 C.3       1 ZEA707      0.0000 
      5 C12        63.2040   66.8160   -3.5260 C.2       1 ZEA707      0.0000 
      6 C11        62.1230   67.1750   -2.5540 C.3       1 ZEA707      0.0000 
      7 N10        61.4150   66.0340   -2.0400 N.pl3     1 ZEA707      0.0000 
      8 C6         60.5220   65.3060   -2.7460 C.ar      1 ZEA707      0.0000 
      9 C5         59.8390   64.1950   -2.2140 C.ar      1 ZEA707      0.0000 
     10 N9         60.0450   63.4400   -1.0480 N.2       1 ZEA707      0.0000 
     11 C4         58.9150   63.5720   -3.0360 C.ar      1 ZEA707      0.0000 
     12 N7         58.4620   62.4630   -2.3290 N.pl3     1 ZEA707      0.0000 
     13 C8         59.1630   62.4550   -1.1880 C.2       1 ZEA707      0.0000 
     14 N3         58.4510   64.0350   -4.2020 N.ar      1 ZEA707      0.0000 
     15 C2         59.1630   65.0730   -4.6240 C.ar      1 ZEA707      0.0000 
     16 N1         60.1720   65.7000   -3.9680 N.ar      1 ZEA707      0.0000 
     17 H          66.1792   67.8551   -4.9014 H         1 ZEA707      0.0000 
     18 H          66.1196   66.2074   -4.2522 H         1 ZEA707      0.0000 
     19 H          62.9859   66.0207   -4.1750 H         1 ZEA707      0.0000 
     20 H          61.4209   67.8771   -3.0577 H         1 ZEA707      0.0000 
     21 H          62.5811   67.7583   -1.7236 H         1 ZEA707      0.0000 
     22 H          61.6323   65.7742   -1.0361 H         1 ZEA707      0.0000 
     23 H          57.7985   61.8620   -2.6199 H         1 ZEA707      0.0000 
     24 H          59.0259   61.7393   -0.4772 H         1 ZEA707      0.0000 
     25 H          58.9169   65.4769   -5.6114 H         1 ZEA707      0.0000 
     26 H          65.7272   68.4033   -2.1969 H         1 ZEA707      0.0000 
     27 H          65.1144   69.4503   -3.2525 H         1 ZEA707      0.0000 
     28 H          64.1876   68.8531   -2.0818 H         1 ZEA707      0.0000 
     29 H          65.5971   66.8504   -5.2728 H         1 ZEA707      0.0000 
@<TRIPOS>BOND
     1    2    1 1    
     2   29    1 1    
     3    3    2 1    
     4   17    2 1    
     5   18    2 1    
     6    4    3 1    
     7    5    3 2    
     8   26    4 1    
     9   27    4 1    
    10   28    4 1    
    11    6    5 1    
    12   19    5 1    
    13    7    6 1    
    14   20    6 1    
    15   21    6 1    
    16    8    7 1    
    17   22    7 1    
    18    9    8 ar   
    19   16    8 ar   
    20   10    9 1    
    21   11    9 ar   
    22   13   10 2    
    23   12   11 1    
    24   14   11 ar   
    25   13   12 1    
    26   23   12 1    
    27   24   13 1    
    28   15   14 ar   
    29   16   15 ar   
    30   25   15 1    
@<TRIPOS>SUBSTRUCTURE
     1 ZEA707      1 GROUP   
@<TRIPOS>SET

