#    Name: 3qql_X03_1_INTS_M
#    Modification time : Tue Mar 25 10:01:27 2014

@<TRIPOS>MOLECULE
3qql_X03_1_INTS_M
   49     0     9     0     0
SMALL
NO_CHARGES


@<TRIPOS>ATOM
      1 N          50.2885  -67.4225 -102.5595 N.am      2 SEC2        0.0000 
      2 N          51.2360  -66.3880 -102.0390 N.am      8 SEL2        0.0000 
      3 N          49.3410  -68.4570 -103.0800 N.am      5 SEP2        0.0000 
      4 O          52.6625  -68.4310 -101.9495 O.2       1 ALC1        0.0000 
      5 O          52.3000  -67.1620 -101.4930 O.2       7 ALL1        0.0000 
      6 O          53.0250  -69.7000 -102.4060 O.2       4 ALP1        0.0000 
      7 O          48.6140  -65.2115 -102.9310 O.2       1 ALC1        0.0000 
      8 O          49.3720  -64.2140 -102.7510 O.2       7 ALL1        0.0000 
      9 O          47.8560  -66.2090 -103.1110 O.2       4 ALP1        0.0000 
     10 CA         54.5190  -66.5390 -101.7905 C.3       3 GLC5        0.0000 
     11 CA         54.3370  -66.6920  -99.8840 C.3       9 GLL5        0.0000 
     12 CA         54.7010  -66.3860 -103.6970 C.3       6 GLP5        0.0000 
     13 CA         53.9905  -68.7170  -99.3375 C.3       3 GLC5        0.0000 
     14 CA         53.6440  -70.7420  -98.7910 C.3       6 GLP5        0.0000 
     15 CA         55.4210  -67.9670 -100.6100 C.3       3 GLC5        0.0000 
     16 CA         56.5050  -69.2420 -101.3360 C.3       6 GLP5        0.0000 
     17 CA         52.5465  -66.9745  -99.1945 C.3       3 GLC5        0.0000 
     18 CA         50.7560  -67.2570  -98.5050 C.3       6 GLP5        0.0000 
     19 CA         56.5685  -66.5650  -99.6675 C.3       3 GLC5        0.0000 
     20 CA         54.9920  -65.4640  -99.0900 C.3       9 GLL5        0.0000 
     21 CA         58.1450  -67.6660 -100.2450 C.3       6 GLP5        0.0000 
     22 CA         54.2925  -66.5495  -97.2915 C.3       3 GLC5        0.0000 
     23 CA         53.5930  -67.6350  -95.4930 C.3       6 GLP5        0.0000 
     24 CA         52.7590  -62.4565 -101.3315 C.3       3 GLC5        0.0000 
     25 CA         53.1150  -63.8930  -99.9150 C.3       9 GLL5        0.0000 
     26 CA         52.4030  -61.0200 -102.7480 C.3       6 GLP5        0.0000 
     27 CA         54.6820  -63.2325 -101.3160 C.3       3 GLC5        0.0000 
     28 CA         56.2490  -62.5720 -102.7170 C.3       6 GLP5        0.0000 
     29 CA         52.8795  -63.5220  -94.7595 C.3       3 GLC5        0.0000 
     30 CA         54.0240  -62.9410  -96.3090 C.3       9 GLL5        0.0000 
     31 CA         51.7350  -64.1030  -93.2100 C.3       6 GLP5        0.0000 
     32 CA         53.7735  -64.2855  -94.1385 C.3       3 GLC5        0.0000 
     33 CA         54.4120  -64.2200  -95.6690 C.3       9 GLL5        0.0000 
     34 CA         53.1350  -64.3510  -92.6080 C.3       6 GLP5        0.0000 
     35 CA         54.0025  -65.9275  -95.5810 C.3       3 GLC5        0.0000 
     36 CA         55.9020  -65.1260  -94.4240 C.3       3 GLC5        0.0000 
     37 CA         57.3920  -66.0320  -93.1790 C.3       6 GLP5        0.0000 
     38 CA         55.9090  -61.5450  -99.7670 C.3       3 GLC5        0.0000 
     39 CA         54.2230  -61.6700  -98.5910 C.3       9 GLL5        0.0000 
     40 CA         57.5950  -61.4200 -100.9430 C.3       6 GLP5        0.0000 
     41 CA         56.8700  -62.2380  -99.3420 C.3       3 GLC5        0.0000 
     42 CA         56.1450  -63.0560  -97.7410 C.3       9 GLL5        0.0000 
     43 CA         57.9500  -63.1205  -98.0900 C.3       3 GLC5        0.0000 
     44 CA         59.7550  -63.1850  -98.4390 C.3       6 GLP5        0.0000 
     45 CA         53.7428  -66.0457 -102.1990 C.3       3 GLC5        0.0000 
     46 CA         52.5100  -65.0730 -100.7070 C.3       9 GLL5        0.0000 
     47 CA         51.7702  -66.4812  -99.6030 C.3       3 GLC5        0.0000 
     48 CA         53.0590  -66.3380 -100.6950 C.3       9 GLL5        0.0000 
     49 CA         52.1448  -65.6810  -98.8847 C.3       3 GLC5        0.0000 
@<TRIPOS>BOND
@<TRIPOS>SUBSTRUCTURE
     1 ALC1        4 GROUP        1 X    ALC  0     ROOT ALC X 1
     2 SEC2        1 GROUP        1 X    SEC  0     **** SEC X 2
     3 GLC5       10 GROUP        1 X    GLC  0     **** GLC X 6
     4 ALP1        6 GROUP        1 Y    ALP  0     ROOT ALP Y 8
     5 SEP2        3 GROUP        1 Y    SEP  0     **** SEP Y 9
     6 GLP5       12 GROUP        1 Y    GLP  0     **** GLP Y 13
     7 ALL1        5 GROUP        1 Z    ALL  0     ROOT ALL Z 15
     8 SEL2        2 GROUP        1 Z    SEL  0     **** SEL Z 16
     9 GLL5       11 GROUP        1 Z    GLL  0     **** GLL Z 20
@<TRIPOS>SET

