#    Name: 3qql_X03_1_ligand
#    Modification time : Tue Mar 25 10:01:27 2014

@<TRIPOS>MOLECULE
3qql_X03_1_ligand
   38    39     1     0     0
SMALL
NO_CHARGES


@<TRIPOS>ATOM
      1 N1         51.2360  -66.3880 -102.0390 N.2       1 X03299      0.0000 
      2 N2         52.3000  -67.1620 -101.4930 N.pl3     1 X03299      0.0000 
      3 C3         53.0590  -66.3380 -100.6950 C.2       1 X03299      0.0000 
      4 C4         52.5100  -65.0730 -100.7070 C.2       1 X03299      0.0000 
      5 C5         51.3220  -65.1270 -101.5860 C.2       1 X03299      0.0000 
      6 C6         50.4050  -64.0100 -101.9080 C.2       1 X03299      0.0000 
      7 N7         49.3720  -64.2140 -102.7510 N.am      1 X03299      0.0000 
      8 N8         48.4630  -63.1580 -103.0930 N.3       1 X03299      0.0000 
      9 O9         50.5850  -62.8870 -101.4060 O.2       1 X03299      0.0000 
     10 C10        54.3370  -66.6920  -99.8840 C.3       1 X03299      0.0000 
     11 C11        54.9920  -65.4640  -99.0900 C.3       1 X03299      0.0000 
     12 C12        53.9520  -64.3170  -98.6140 C.3       1 X03299      0.0000 
     13 C13        53.1150  -63.8930  -99.9150 C.3       1 X03299      0.0000 
     14 C14        54.5860  -63.0010  -97.8260 C.3       1 X03299      0.0000 
     15 C15        54.0240  -62.9410  -96.3090 C.3       1 X03299      0.0000 
     16 C16        54.4120  -64.2200  -95.6690 C.3       1 X03299      0.0000 
     17 C17        54.2230  -61.6700  -98.5910 C.3       1 X03299      0.0000 
     18 C18        56.1450  -63.0560  -97.7410 C.3       1 X03299      0.0000 
     19 H          52.4361  -68.0794 -101.6661 H         1 X03299      0.0000 
     20 H          49.1991  -65.1438 -103.1819 H         1 X03299      0.0000 
     21 H          55.0996  -67.0907 -100.5622 H         1 X03299      0.0000 
     22 H          54.0985  -67.4698  -99.1501 H         1 X03299      0.0000 
     23 H          55.7372  -64.9939  -99.7323 H         1 X03299      0.0000 
     24 H          55.4911  -65.8522  -98.2017 H         1 X03299      0.0000 
     25 H          53.2385  -64.7923  -97.9384 H         1 X03299      0.0000 
     26 H          52.3142  -63.2218  -99.5838 H         1 X03299      0.0000 
     27 H          53.7875  -63.3196 -100.5635 H         1 X03299      0.0000 
     28 H          52.9651  -62.8306  -96.3794 H         1 X03299      0.0000 
     29 H          54.4884  -62.1005  -95.8440 H         1 X03299      0.0000 
     30 H          55.3998  -64.3704  -95.7085 H         1 X03299      0.0000 
     31 H          54.1498  -64.2472  -94.7044 H         1 X03299      0.0000 
     32 H          53.9781  -65.0040  -96.1129 H         1 X03299      0.0000 
     33 H          54.5943  -60.8638  -98.1304 H         1 X03299      0.0000 
     34 H          54.5843  -61.6672  -99.5234 H         1 X03299      0.0000 
     35 H          53.2340  -61.5389  -98.6595 H         1 X03299      0.0000 
     36 H          56.5659  -63.0760  -98.6479 H         1 X03299      0.0000 
     37 H          56.5190  -62.2621  -97.2617 H         1 X03299      0.0000 
     38 H          56.4619  -63.8692  -97.2528 H         1 X03299      0.0000 
@<TRIPOS>BOND
     1    2    1 1    
     2    5    1 2    
     3    3    2 1    
     4   19    2 1    
     5    4    3 2    
     6   10    3 1    
     7    5    4 1    
     8   13    4 1    
     9    6    5 1    
    10    7    6 am   
    11    9    6 2    
    12    8    7 1    
    13   20    7 1    
    14   11   10 1    
    15   21   10 1    
    16   22   10 1    
    17   12   11 1    
    18   23   11 1    
    19   24   11 1    
    20   13   12 1    
    21   14   12 1    
    22   25   12 1    
    23   26   13 1    
    24   27   13 1    
    25   15   14 1    
    26   17   14 1    
    27   18   14 1    
    28   16   15 1    
    29   28   15 1    
    30   29   15 1    
    31   30   16 1    
    32   31   16 1    
    33   32   16 1    
    34   33   17 1    
    35   34   17 1    
    36   35   17 1    
    37   36   18 1    
    38   37   18 1    
    39   38   18 1    
@<TRIPOS>SUBSTRUCTURE
     1 X03299      1 GROUP   
@<TRIPOS>SET

