#    Name: 2IOA_2_CAVITY_N1_6.mol2
#    Modification time : Mon Mar 10 19:48:10 2014

@<TRIPOS>MOLECULE
2IOA_2_CAVITY_N1_6.mol2
  111     0     7     0     0
SMALL
NO_CHARGES


@<TRIPOS>ATOM
      1 CA         -0.6866  -23.4959   49.2192 C.3       6 GLY6        0.0000 
      2 NZ         -1.3971  -24.1172   48.0534 N.2       4 LYS4        0.0000 
      3 CA         -0.2134  -23.8289   47.1783 C.3       6 GLY6        0.0000 
      4 CA          0.9702  -23.5406   46.3032 C.3       6 GLY6        0.0000 
      5 NZ         -2.1076  -24.7385   46.8876 N.2       4 LYS4        0.0000 
      6 OD1        -0.9240  -24.4502   46.0125 O.3       3 ASP3        0.0000 
      7 DU          0.2597  -24.1619   45.1374 H         7 CUB7        0.0000 
      8 O           1.4434  -23.8736   44.2623 O.2       2 ALA2        0.0000 
      9 CA         -2.8182  -25.3599   45.7217 C.3       6 GLY6        0.0000 
     10 NZ         -1.6345  -25.0715   44.8467 N.2       4 LYS4        0.0000 
     11 NZ         -0.4508  -24.7832   43.9716 N.2       4 LYS4        0.0000 
     12 O           0.7329  -24.4949   43.0965 O.2       2 ALA2        0.0000 
     13 O           1.9166  -24.2065   42.2214 O.2       2 ALA2        0.0000 
     14 NZ         -1.1613  -25.4045   42.8058 N.2       4 LYS4        0.0000 
     15 O           1.2060  -24.8279   41.0556 O.2       2 ALA2        0.0000 
     16 CA          1.4328  -26.8308   45.8448 C.3       6 GLY6        0.0000 
     17 O           2.6165  -26.5425   44.9697 O.2       2 ALA2        0.0000 
     18 O           3.8002  -26.2542   44.0947 O.2       2 ALA2        0.0000 
     19 NZ          0.7223  -27.4522   44.6790 N.2       4 LYS4        0.0000 
     20 NZ          1.9060  -27.1638   43.8039 N.2       4 LYS4        0.0000 
     21 O           3.0897  -26.8755   42.9289 O.2       2 ALA2        0.0000 
     22 NZ          1.1955  -27.7851   42.6381 N.2       4 LYS4        0.0000 
     23 NZ          2.3792  -27.4968   41.7630 N.2       4 LYS4        0.0000 
     24 OG          3.5628  -27.2085   40.8880 O.2       1 SER1        0.0000 
     25 NZ          1.6686  -28.1181   40.5972 N.2       4 LYS4        0.0000 
     26 CZ          2.8523  -27.8298   39.7221 C.ar      5 PHE5        0.0000 
     27 CA          3.5644  -24.9669   49.3423 C.3       6 GLY6        0.0000 
     28 CA          4.7481  -24.6786   48.4672 C.3       6 GLY6        0.0000 
     29 O           5.9318  -24.3902   47.5921 O.2       2 ALA2        0.0000 
     30 O           4.0376  -25.2999   47.3014 O.2       2 ALA2        0.0000 
     31 O           3.3270  -25.9212   46.1356 O.2       2 ALA2        0.0000 
     32 CA          3.9136  -27.2557   46.4893 C.3       6 GLY6        0.0000 
     33 O           5.0973  -26.9673   45.6142 O.2       2 ALA2        0.0000 
     34 O           6.2810  -26.6790   44.7391 O.2       2 ALA2        0.0000 
     35 CA          2.0194  -28.1653   46.1985 C.3       6 GLY6        0.0000 
     36 DU          3.2031  -27.8770   45.3235 H         7 CUB7        0.0000 
     37 O           4.3868  -27.5887   44.4484 O.2       2 ALA2        0.0000 
     38 O           5.5704  -27.3003   43.5733 O.2       2 ALA2        0.0000 
     39 NZ          1.3089  -28.7866   45.0327 N.2       4 LYS4        0.0000 
     40 NZ          2.4926  -28.4983   44.1576 N.2       4 LYS4        0.0000 
     41 NZ          3.6762  -28.2100   43.2826 N.2       4 LYS4        0.0000 
     42 O           4.8599  -27.9216   42.4075 O.2       2 ALA2        0.0000 
     43 NZ          2.9657  -28.8313   42.1168 N.2       4 LYS4        0.0000 
     44 DU          3.7896  -29.2115   45.6772 H         7 CUB7        0.0000 
     45 DU          4.9733  -28.9231   44.8021 H         7 CUB7        0.0000 
     46 DU          6.1570  -28.6348   43.9270 H         7 CUB7        0.0000 
     47 CA          1.5568  -24.8750   46.6569 C.3       6 GLY6        0.0000 
     48 CA          2.7405  -24.5867   45.7818 C.3       6 GLY6        0.0000 
     49 OD1        -0.3374  -25.7847   46.3662 O.3       3 ASP3        0.0000 
     50 OD1         0.8463  -25.4964   45.4911 O.3       3 ASP3        0.0000 
     51 O           2.0300  -25.2080   44.6160 O.2       2 ALA2        0.0000 
     52 NZ          0.1358  -26.1177   44.3253 N.2       4 LYS4        0.0000 
     53 NZ          1.3194  -25.8293   43.4502 N.2       4 LYS4        0.0000 
     54 O           2.5031  -25.5410   42.5751 O.2       2 ALA2        0.0000 
     55 NZ          0.6089  -26.4507   42.2844 N.2       4 LYS4        0.0000 
     56 O           1.7926  -26.1623   41.4093 O.2       2 ALA2        0.0000 
     57 CA          2.9763  -25.8740   40.5342 C.3       6 GLY6        0.0000 
     58 NZ         -0.1016  -27.0720   41.1186 N.2       4 LYS4        0.0000 
     59 CA          1.0821  -26.7836   40.2435 C.3       6 GLY6        0.0000 
     60 O           2.2658  -26.4953   39.3684 O.2       2 ALA2        0.0000 
     61 CA          0.1479  -20.9188   51.1971 C.3       6 GLY6        0.0000 
     62 N          -1.7463  -21.8285   50.9064 N.2       2 ALA2        0.0000 
     63 CA         -0.5626  -21.5401   50.0313 C.3       6 GLY6        0.0000 
     64 NZ         -2.4568  -22.4498   49.7405 N.2       4 LYS4        0.0000 
     65 NZ         -1.2732  -22.1614   48.8655 N.2       4 LYS4        0.0000 
     66 CA         -0.0895  -21.8731   47.9904 C.3       6 GLY6        0.0000 
     67 CA          1.0942  -21.5848   47.1153 C.3       6 GLY6        0.0000 
     68 OG         -1.9837  -22.7828   47.6997 O.2       1 SER1        0.0000 
     69 CA         -0.8000  -22.4944   46.8246 C.3       6 GLY6        0.0000 
     70 CA          0.3837  -22.2061   45.9495 C.3       6 GLY6        0.0000 
     71 OG         -2.6942  -23.4041   46.5338 O.2       1 SER1        0.0000 
     72 OG         -1.5105  -23.1157   45.6588 O.2       1 SER1        0.0000 
     73 DU         -0.3268  -22.8274   44.7837 H         7 CUB7        0.0000 
     74 CA          0.8568  -22.5391   43.9086 C.3       6 GLY6        0.0000 
     75 OG         -3.4047  -24.0254   45.3680 O.2       1 SER1        0.0000 
     76 DU         -2.2210  -23.7371   44.4929 H         7 CUB7        0.0000 
     77 OG         -1.0374  -23.4487   43.6179 O.2       1 SER1        0.0000 
     78 OG          0.1463  -23.1604   42.7428 O.2       1 SER1        0.0000 
     79 CA         -4.1153  -24.6467   44.2022 C.3       6 GLY6        0.0000 
     80 N          -2.9316  -24.3584   43.3271 N.2       2 ALA2        0.0000 
     81 O          -1.0252  -18.2499   50.4897 O.2       2 ALA2        0.0000 
     82 O           0.1585  -17.9615   49.6146 O.2       2 ALA2        0.0000 
     83 O          -2.9194  -19.1595   50.1989 O.2       2 ALA2        0.0000 
     84 O          -1.7358  -18.8712   49.3239 O.2       2 ALA2        0.0000 
     85 O          -0.5521  -18.5828   48.4488 O.2       2 ALA2        0.0000 
     86 N           0.6316  -18.2945   47.5737 N.2       2 ALA2        0.0000 
     87 OG         -3.6300  -19.7808   49.0331 O.2       1 SER1        0.0000 
     88 O          -2.4463  -19.4925   48.1580 O.2       2 ALA2        0.0000 
     89 O          -1.2626  -19.2042   47.2830 O.2       2 ALA2        0.0000 
     90 N          -0.0789  -18.9158   46.4079 N.2       2 ALA2        0.0000 
     91 N           1.1048  -18.6275   45.5328 N.2       2 ALA2        0.0000 
     92 O          -0.4387  -19.5843   50.8434 O.2       2 ALA2        0.0000 
     93 O           0.7450  -19.2960   49.9683 O.2       2 ALA2        0.0000 
     94 O          -2.3329  -20.4940   50.5526 O.2       2 ALA2        0.0000 
     95 O          -1.1492  -20.2056   49.6776 O.2       2 ALA2        0.0000 
     96 CA          0.0345  -19.9173   48.8025 C.3       6 GLY6        0.0000 
     97 O           1.2182  -19.6290   47.9274 O.2       2 ALA2        0.0000 
     98 OG         -3.0434  -21.1153   49.3868 O.2       1 SER1        0.0000 
     99 OG         -1.8597  -20.8270   48.5118 O.2       1 SER1        0.0000 
    100 DU         -0.6760  -20.5386   47.6367 H         7 CUB7        0.0000 
    101 CA          0.5076  -20.2503   46.7616 C.3       6 GLY6        0.0000 
    102 CA          1.6913  -19.9620   45.8865 C.3       6 GLY6        0.0000 
    103 OG         -1.3866  -21.1599   46.4709 O.2       1 SER1        0.0000 
    104 N          -0.2029  -20.8716   45.5958 N.2       2 ALA2        0.0000 
    105 CA          0.9808  -20.5833   44.7207 C.3       6 GLY6        0.0000 
    106 OG         -2.0971  -21.7813   45.3050 O.2       1 SER1        0.0000 
    107 N          -0.9134  -21.4929   44.4300 N.2       2 ALA2        0.0000 
    108 OG         -2.8076  -22.4026   44.1392 O.2       1 SER1        0.0000 
    109 N          -1.6239  -22.1142   43.2642 N.2       2 ALA2        0.0000 
    110 CA         -4.7018  -23.3122   43.8485 C.3       6 GLY6        0.0000 
    111 OG         -3.5181  -23.0239   42.9734 O.2       1 SER1        0.0000 
@<TRIPOS>BOND
@<TRIPOS>SUBSTRUCTURE
     1 SER1       24 GROUP   
     2 ALA2        8 GROUP   
     3 ASP3        6 GROUP   
     4 LYS4        2 GROUP   
     5 PHE5       26 GROUP   
     6 GLY6        1 GROUP   
     7 CUB7        7 GROUP   
@<TRIPOS>SET

