#    Name: 2ioa_GGA_2_INTS_M
#    Modification time : Tue Mar 25 18:25:41 2014

@<TRIPOS>MOLECULE
2ioa_GGA_2_INTS_M
   85     0    15     0     0
SMALL
NO_CHARGES


@<TRIPOS>ATOM
      1 N           4.5390  -27.2710   39.3380 N.am      2 SEC2        0.0000 
      2 N           3.2860  -28.3150   39.8160 N.am     12 SEL2        0.0000 
      3 N           5.7920  -26.2270   38.8600 N.am      7 SEP2        0.0000 
      4 N           2.0960  -25.1785   38.7845 N.am      2 SEC2        0.0000 
      5 N           3.0470  -26.1250   39.3470 N.am     12 SEL2        0.0000 
      6 N           1.1450  -24.2320   38.2220 N.am      7 SEP2        0.0000 
      7 N           4.4195  -26.1760   39.1035 N.am      2 SEC2        0.0000 
      8 CA          0.5010  -28.8560   40.8805 C.3       5 GLC5        0.0000 
      9 CA          1.7050  -27.1050   41.2100 C.3      15 GLL5        0.0000 
     10 CA         -0.7030  -30.6070   40.5510 C.3      10 GLP5        0.0000 
     11 CA          1.4795  -28.0825   39.3795 C.3       5 GLC5        0.0000 
     12 CA          1.2540  -29.0600   37.5490 C.3      10 GLP5        0.0000 
     13 OD1         0.9545  -29.5080   41.4210 O.co2     3 ASC3        0.0000 
     14 OD1         0.6450  -28.1090   41.0030 O.co2    13 ASL3        0.0000 
     15 OD1         1.2640  -30.9070   41.8390 O.co2     8 ASP3        0.0000 
     16 OD1        -1.2085  -28.1825   41.4000 O.co2     3 ASC3        0.0000 
     17 OD1        -3.0620  -28.2560   41.7970 O.co2     8 ASP3        0.0000 
     18 OD1        -0.4815  -28.0860   42.2190 O.co2     3 ASC3        0.0000 
     19 OD1        -1.6080  -28.0630   43.4350 O.co2     8 ASP3        0.0000 
     20 O           0.9545  -29.5080   41.4210 O.2       1 ALC1        0.0000 
     21 O           0.6450  -28.1090   41.0030 O.2      11 ALL1        0.0000 
     22 O           1.2640  -30.9070   41.8390 O.2       6 ALP1        0.0000 
     23 O          -0.4815  -28.0860   42.2190 O.2       1 ALC1        0.0000 
     24 O          -1.6080  -28.0630   43.4350 O.2       6 ALP1        0.0000 
     25 CA          0.1625  -25.6825   39.6115 C.3       5 GLC5        0.0000 
     26 CA          1.1170  -25.7080   41.3530 C.3      15 GLL5        0.0000 
     27 CA         -0.7920  -25.6570   37.8700 C.3      10 GLP5        0.0000 
     28 CA          1.9990  -24.3160   40.3340 C.3       5 GLC5        0.0000 
     29 CA          2.8810  -22.9240   39.3150 C.3      10 GLP5        0.0000 
     30 N          -1.1920  -22.5730   41.4035 N.am      2 SEC2        0.0000 
     31 N           0.1280  -23.2500   42.1660 N.am     12 SEL2        0.0000 
     32 N          -2.5120  -21.8960   40.6410 N.am      7 SEP2        0.0000 
     33 CA         -1.8380  -21.5640   42.0480 C.3       5 GLC5        0.0000 
     34 CA         -2.1560  -22.1990   43.7710 C.3      15 GLL5        0.0000 
     35 CA         -1.5200  -20.9290   40.3250 C.3      10 GLP5        0.0000 
     36 CA         -2.8965  -20.3775   43.8230 C.3       5 GLC5        0.0000 
     37 CA         -3.6370  -18.5560   43.8750 C.3      10 GLP5        0.0000 
     38 CA          2.2240  -19.8940   46.3475 C.3       5 GLC5        0.0000 
     39 CA          0.1610  -19.6630   46.3800 C.3      15 GLL5        0.0000 
     40 CA          4.2870  -20.1250   46.3150 C.3      10 GLP5        0.0000 
     41 CA         -2.8615  -19.1950   45.8625 C.3       5 GLC5        0.0000 
     42 CA         -2.0860  -19.8340   47.8500 C.3      15 GLL5        0.0000 
     43 CA         -4.1225  -20.0670   46.9885 C.3       5 GLC5        0.0000 
     44 CA         -6.1590  -20.3000   46.1270 C.3      10 GLP5        0.0000 
     45 CA          0.5380  -21.7350   48.9020 C.3       5 GLC5        0.0000 
     46 CA         -1.4790  -20.7820   48.8980 C.3      15 GLL5        0.0000 
     47 CA          2.5550  -22.6880   48.9060 C.3      10 GLP5        0.0000 
     48 CA         -4.2250  -21.7510   47.9000 C.3       5 GLC5        0.0000 
     49 CA         -2.5770  -21.7120   49.4110 C.3      15 GLL5        0.0000 
     50 CA         -5.8730  -21.7900   46.3890 C.3      10 GLP5        0.0000 
     51 CA         -4.2905  -20.2470   51.0220 C.3       5 GLC5        0.0000 
     52 CA         -2.7370  -21.6350   50.9370 C.3      15 GLL5        0.0000 
     53 CA         -5.8440  -18.8590   51.1070 C.3      10 GLP5        0.0000 
     54 CA         -0.9640  -22.5125   51.8800 C.3       5 GLC5        0.0000 
     55 CA          0.8090  -23.3900   52.8230 C.3      10 GLP5        0.0000 
     56 OD1        -3.8465  -24.3085   51.0620 O.co2     3 ASC3        0.0000 
     57 OD1        -3.7380  -22.6460   51.2800 O.co2    13 ASL3        0.0000 
     58 OD1        -3.9550  -25.9710   50.8440 O.co2     8 ASP3        0.0000 
     59 OD1        -4.0025  -23.5855   50.2485 O.co2     3 ASC3        0.0000 
     60 OD1        -4.2670  -24.5250   49.2170 O.co2     8 ASP3        0.0000 
     61 CA         -2.9995  -24.4230   55.2095 C.3       5 GLC5        0.0000 
     62 CA         -5.0800  -23.9600   54.5100 C.3      15 GLL5        0.0000 
     63 CA         -0.9190  -24.8860   55.9090 C.3      10 GLP5        0.0000 
     64 OD1        -5.8660  -24.7145   57.7230 O.co2     3 ASC3        0.0000 
     65 OD1        -6.1510  -25.2450   56.2860 O.co2    13 ASL3        0.0000 
     66 OD1        -5.5810  -24.1840   59.1600 O.co2     8 ASP3        0.0000 
     67 N          -2.7035  -17.4530   47.1865 N.am      2 SEC2        0.0000 
     68 N          -1.6890  -18.1160   46.3920 N.am     12 SEL2        0.0000 
     69 N          -3.7180  -16.7900   47.9810 N.am      7 SEP2        0.0000 
     70 N          -2.0890  -17.3800   48.2040 N.am      2 SEC2        0.0000 
     71 N          -0.4600  -17.9700   48.4270 N.am     12 SEL2        0.0000 
     72 N          -1.1940  -16.9930   48.8230 N.am      2 SEC2        0.0000 
     73 N          -1.9280  -16.0160   49.2190 N.am      7 SEP2        0.0000 
     74 N           2.7925  -19.6620   49.3470 N.am      2 SEC2        0.0000 
     75 N           1.5970  -19.1570   49.3780 N.am     12 SEL2        0.0000 
     76 N           3.9880  -20.1670   49.3160 N.am      7 SEP2        0.0000 
     77 Zn          2.4590  -16.9745   47.2705 Zn        4 ZIC7        0.0000 
     78 Zn          1.8380  -17.4130   47.9670 Zn       14 ZIL7        0.0000 
     79 Zn          3.0800  -16.5360   46.5740 Zn        9 ZIP7        0.0000 
     80 Zn          1.4955  -16.0140   50.3040 Zn        4 ZIC7        0.0000 
     81 Zn          1.0170  -16.8700   50.0990 Zn       14 ZIL7        0.0000 
     82 Zn          1.9740  -15.1580   50.5090 Zn        9 ZIP7        0.0000 
     83 N           0.7225  -15.1960   50.0325 N.am      2 SEC2        0.0000 
     84 N           1.0170  -16.8700   50.0990 N.am     12 SEL2        0.0000 
     85 N           0.4280  -13.5220   49.9660 N.am      7 SEP2        0.0000 
@<TRIPOS>BOND
@<TRIPOS>SUBSTRUCTURE
     1 ALC1       20 GROUP        1 X    ALC  0     ROOT ALC X 1
     2 SEC2        1 GROUP        1 X    SEC  0     **** SEC X 2
     3 ASC3       13 GROUP        1 X    ASC  0     **** ASC X 3
     4 ZIC7       77 GROUP        1 X    ZIC  0     **** ZIC X 5
     5 GLC5        8 GROUP        1 X    GLC  0     **** GLC X 6
     6 ALP1       22 GROUP        1 Y    ALP  0     ROOT ALP Y 8
     7 SEP2        3 GROUP        1 Y    SEP  0     **** SEP Y 9
     8 ASP3       15 GROUP        1 Y    ASP  0     **** ASP Y 10
     9 ZIP7       79 GROUP        1 Y    ZIP  0     **** ZIP Y 12
    10 GLP5       10 GROUP        1 Y    GLP  0     **** GLP Y 13
    11 ALL1       21 GROUP        1 Z    ALL  0     ROOT ALL Z 15
    12 SEL2        2 GROUP        1 Z    SEL  0     **** SEL Z 16
    13 ASL3       14 GROUP        1 Z    ASL  0     **** ASL Z 17
    14 ZIL7       78 GROUP        1 Z    ZIL  0     **** ZIL Z 19
    15 GLL5        9 GROUP        1 Z    GLL  0     **** GLL Z 20
@<TRIPOS>SET

