#    Name: 2ioa_GGA_2_ligand
#    Modification time : Tue Mar 25 18:25:41 2014

@<TRIPOS>MOLECULE
2ioa_GGA_2_ligand
   68    67     1     0     0
SMALL
NO_CHARGES


@<TRIPOS>ATOM
      1 C1          2.6830  -27.0430   40.0220 C.2       1 GGA6002     0.0000 
      2 O2          3.2860  -28.3150   39.8160 O.co2     1 GGA6002     0.0000 
      3 O4          3.0470  -26.1250   39.3470 O.co2     1 GGA6002     0.0000 
      4 C6          1.7050  -27.1050   41.2100 C.3       1 GGA6002     0.0000 
      5 N8          0.6450  -28.1090   41.0030 N.4       1 GGA6002     0.0000 
      6 C10         1.1170  -25.7080   41.3530 C.3       1 GGA6002     0.0000 
      7 C12         0.9220  -25.4080   42.8270 C.3       1 GGA6002     0.0000 
      8 C14         0.2110  -24.1170   43.0410 C.2       1 GGA6002     0.0000 
      9 O16         0.1280  -23.2500   42.1660 O.2       1 GGA6002     0.0000 
     10 N18        -0.3870  -23.9660   44.2950 N.am      1 GGA6002     0.0000 
     11 C20        -1.1680  -22.8680   44.7620 C.3       1 GGA6002     0.0000 
     12 C22        -2.1560  -22.1990   43.7710 C.3       1 GGA6002     0.0000 
     13 C24        -0.2990  -21.8630   45.4930 C.2       1 GGA6002     0.0000 
     14 O26         0.7270  -22.3630   45.9490 O.2       1 GGA6002     0.0000 
     15 N30        -0.6520  -20.5690   45.6490 N.am      1 GGA6002     0.0000 
     16 C29         0.1610  -19.6630   46.3800 C.3       1 GGA6002     0.0000 
     17 P34        -0.9470  -18.8350   47.2190 P.3       1 GGA6002     0.0000 
     18 C33        -2.0860  -19.8340   47.8500 C.3       1 GGA6002     0.0000 
     19 C35        -1.4790  -20.7820   48.8980 C.3       1 GGA6002     0.0000 
     20 C37        -2.5770  -21.7120   49.4110 C.3       1 GGA6002     0.0000 
     21 C39        -2.7370  -21.6350   50.9370 C.3       1 GGA6002     0.0000 
     22 N44        -3.7380  -22.6460   51.2800 N.4       1 GGA6002     0.0000 
     23 C43        -3.9420  -22.6940   52.7050 C.3       1 GGA6002     0.0000 
     24 C45        -4.9260  -23.8210   52.9970 C.3       1 GGA6002     0.0000 
     25 C47        -5.0800  -23.9600   54.5100 C.3       1 GGA6002     0.0000 
     26 C49        -6.0300  -25.1180   54.8250 C.3       1 GGA6002     0.0000 
     27 N54        -6.1510  -25.2450   56.2860 N.4       1 GGA6002     0.0000 
     28 O56        -1.6890  -18.1160   46.3920 O.2       1 GGA6002     0.0000 
     29 O58        -0.4600  -17.9700   48.4270 O.3       1 GGA6002     0.0000 
     30 P60         1.0200  -17.8370   48.9460 P.3       1 GGA6002     0.0000 
     31 O62         1.5970  -19.1570   49.3780 O.co2     1 GGA6002     0.0000 
     32 O64         1.8380  -17.4130   47.9670 O.co2     1 GGA6002     0.0000 
     33 O66         1.0170  -16.8700   50.0990 O.co2     1 GGA6002     0.0000 
     34 H           2.2773  -27.3186   42.0960 H         1 GGA6002     0.0000 
     35 H           0.1630  -25.6655   40.8440 H         1 GGA6002     0.0000 
     36 H           1.7975  -24.9856   40.9218 H         1 GGA6002     0.0000 
     37 H           1.9057  -25.3784   43.3154 H         1 GGA6002     0.0000 
     38 H           0.3516  -26.2289   43.2829 H         1 GGA6002     0.0000 
     39 H          -0.2476  -24.7684   44.9998 H         1 GGA6002     0.0000 
     40 H          -1.8569  -23.2821   45.6052 H         1 GGA6002     0.0000 
     41 H          -1.5325  -20.1987   45.2365 H         1 GGA6002     0.0000 
     42 H           0.6610  -18.9511   45.7785 H         1 GGA6002     0.0000 
     43 H           0.7830  -20.1262   47.0992 H         1 GGA6002     0.0000 
     44 H          -2.5002  -20.3911   47.0250 H         1 GGA6002     0.0000 
     45 H          -2.8383  -19.2031   48.2955 H         1 GGA6002     0.0000 
     46 H          -1.0849  -20.2005   49.7166 H         1 GGA6002     0.0000 
     47 H          -0.6961  -21.3646   48.4384 H         1 GGA6002     0.0000 
     48 H          -2.3374  -22.7418   49.1311 H         1 GGA6002     0.0000 
     49 H          -3.5270  -21.4424   48.9408 H         1 GGA6002     0.0000 
     50 H          -3.0719  -20.6474   51.1947 H         1 GGA6002     0.0000 
     51 H          -1.7877  -21.8526   51.3902 H         1 GGA6002     0.0000 
     52 H          -4.3663  -21.7665   53.0806 H         1 GGA6002     0.0000 
     53 H          -3.0169  -22.9045   53.2354 H         1 GGA6002     0.0000 
     54 H          -4.5468  -24.7466   52.5880 H         1 GGA6002     0.0000 
     55 H          -5.8852  -23.5857   52.5584 H         1 GGA6002     0.0000 
     56 H          -5.4869  -23.0422   54.9169 H         1 GGA6002     0.0000 
     57 H          -4.1123  -24.1598   54.9541 H         1 GGA6002     0.0000 
     58 H          -5.6226  -26.0260   54.3899 H         1 GGA6002     0.0000 
     59 H          -6.9947  -24.9047   54.3738 H         1 GGA6002     0.0000 
     60 H           0.9098  -29.0066   41.3554 H         1 GGA6002     0.0000 
     61 H          -0.2047  -27.8523   41.4635 H         1 GGA6002     0.0000 
     62 H           0.4291  -28.2267   40.0337 H         1 GGA6002     0.0000 
     63 H          -1.6848  -21.8260   42.9717 H         1 GGA6002     0.0000 
     64 H          -2.8386  -22.8469   43.4329 H         1 GGA6002     0.0000 
     65 H          -2.6543  -21.4436   44.1965 H         1 GGA6002     0.0000 
     66 H          -5.3164  -24.9550   56.7543 H         1 GGA6002     0.0000 
     67 H          -6.8985  -24.6871   56.6466 H         1 GGA6002     0.0000 
     68 H          -6.3296  -26.1891   56.5632 H         1 GGA6002     0.0000 
@<TRIPOS>BOND
     1    2    1 ar   
     2    3    1 ar   
     3    4    1 1    
     4    5    4 1    
     5    6    4 1    
     6   34    4 1    
     7   60    5 1    
     8   61    5 1    
     9   62    5 1    
    10    7    6 1    
    11   35    6 1    
    12   36    6 1    
    13    8    7 1    
    14   37    7 1    
    15   38    7 1    
    16    9    8 2    
    17   10    8 am   
    18   11   10 1    
    19   39   10 1    
    20   12   11 1    
    21   13   11 1    
    22   40   11 1    
    23   63   12 1    
    24   64   12 1    
    25   65   12 1    
    26   14   13 2    
    27   15   13 am   
    28   16   15 1    
    29   41   15 1    
    30   17   16 1    
    31   42   16 1    
    32   43   16 1    
    33   18   17 1    
    34   28   17 2    
    35   29   17 1    
    36   19   18 1    
    37   44   18 1    
    38   45   18 1    
    39   20   19 1    
    40   46   19 1    
    41   47   19 1    
    42   21   20 1    
    43   48   20 1    
    44   49   20 1    
    45   22   21 1    
    46   50   21 1    
    47   51   21 1    
    48   23   22 1    
    49   24   23 1    
    50   52   23 1    
    51   53   23 1    
    52   25   24 1    
    53   54   24 1    
    54   55   24 1    
    55   26   25 1    
    56   56   25 1    
    57   57   25 1    
    58   27   26 1    
    59   58   26 1    
    60   59   26 1    
    61   66   27 1    
    62   67   27 1    
    63   68   27 1    
    64   30   29 1    
    65   31   30 ar   
    66   32   30 ar   
    67   33   30 ar   
@<TRIPOS>SUBSTRUCTURE
     1 GGA6002     1 GROUP   
@<TRIPOS>SET

