#    Name: 3ens_ENS_2_INTS_M
#    Modification time : Tue Mar 25 02:13:18 2014

@<TRIPOS>MOLECULE
3ens_ENS_2_INTS_M
   92     0     9     0     0
SMALL
NO_CHARGES


@<TRIPOS>ATOM
      1 CA         48.8880    2.7735    1.8405 C.3       3 GLC5        0.0000 
      2 CA         49.8260    1.5570    0.3110 C.3       9 GLL5        0.0000 
      3 CA         47.9500    3.9900    3.3700 C.3       6 GLP5        0.0000 
      4 CA         48.9445   -0.0650   -1.1790 C.3       3 GLC5        0.0000 
      5 CA         49.9740    1.5040   -2.0770 C.3       9 GLL5        0.0000 
      6 CA         47.9150   -1.6340   -0.2810 C.3       6 GLP5        0.0000 
      7 CA         53.7250    2.0495   -1.8405 C.3       3 GLC5        0.0000 
      8 CA         51.9880    1.1510   -0.7810 C.3       9 GLL5        0.0000 
      9 CA         55.4620    2.9480   -2.9000 C.3       6 GLP5        0.0000 
     10 CA         55.3425    1.3730   -1.3875 C.3       3 GLC5        0.0000 
     11 CA         55.2230   -0.2020    0.1250 C.3       9 GLL5        0.0000 
     12 CA         53.0685   -2.9895    6.5230 C.3       3 GLC5        0.0000 
     13 CA         53.4610   -3.1980    4.4900 C.3       9 GLL5        0.0000 
     14 CA         52.6760   -2.7810    8.5560 C.3       6 GLP5        0.0000 
     15 CA         48.2260   -9.5035   -0.1400 C.3       3 GLC5        0.0000 
     16 CA         48.0100   -8.2370    1.4890 C.3       9 GLL5        0.0000 
     17 CA         48.4420  -10.7700   -1.7690 C.3       6 GLP5        0.0000 
     18 CA         47.6760   -6.6155    0.2215 C.3       3 GLC5        0.0000 
     19 CA         47.3420   -4.9940   -1.0460 C.3       6 GLP5        0.0000 
     20 CA         45.9325   -8.7160    3.2720 C.3       3 GLC5        0.0000 
     21 CA         47.6460   -7.6010    2.8300 C.3       9 GLL5        0.0000 
     22 CA         44.2190   -9.8310    3.7140 C.3       6 GLP5        0.0000 
     23 CA         46.6575   -6.5320    4.1135 C.3       3 GLC5        0.0000 
     24 CA         45.6690   -5.4630    5.3970 C.3       6 GLP5        0.0000 
     25 CA         49.9965   -8.6025   -0.3565 C.3       3 GLC5        0.0000 
     26 CA         49.3310   -7.5960    1.0820 C.3       9 GLL5        0.0000 
     27 CA         50.6620   -9.6090   -1.7950 C.3       6 GLP5        0.0000 
     28 CA         48.9345   -6.4635   -0.3045 C.3       3 GLC5        0.0000 
     29 CA         48.5380   -5.3310   -1.6910 C.3       6 GLP5        0.0000 
     30 CA         46.8045   -5.5190    3.5270 C.3       3 GLC5        0.0000 
     31 CA         48.3390   -6.2440    2.8080 C.3       9 GLL5        0.0000 
     32 CA         45.2700   -4.7940    4.2460 C.3       6 GLP5        0.0000 
     33 CA         47.6565   -5.1165    1.3585 C.3       3 GLC5        0.0000 
     34 CA         46.9740   -3.9890   -0.0910 C.3       6 GLP5        0.0000 
     35 CA         58.0705    3.9620    0.7830 C.3       3 GLC5        0.0000 
     36 CA         58.0370    1.9320    0.1580 C.3       9 GLL5        0.0000 
     37 CA         58.1040    5.9920    1.4080 C.3       6 GLP5        0.0000 
     38 CA         58.7250    1.5235   -1.3755 C.3       3 GLC5        0.0000 
     39 CA         59.4130    1.1150   -2.9090 C.3       6 GLP5        0.0000 
     40 CA         56.8515    3.3890   -1.0245 C.3       3 GLC5        0.0000 
     41 CA         55.6660    4.8460   -2.2070 C.3       6 GLP5        0.0000 
     42 CA         56.2460    2.7685    1.2190 C.3       3 GLC5        0.0000 
     43 CA         54.4550    3.6050    2.2800 C.3       6 GLP5        0.0000 
     44 CA         56.7495    2.4400   -1.3710 C.3       3 GLC5        0.0000 
     45 CA         48.8250   -3.8220    3.7980 C.3       3 GLC5        0.0000 
     46 CA         50.7000   -4.5330    2.9060 C.3       9 GLL5        0.0000 
     47 CA         46.9500   -3.1110    4.6900 C.3       6 GLP5        0.0000 
     48 CA         49.2830   -3.7435    1.7070 C.3       3 GLC5        0.0000 
     49 CA         47.8660   -2.9540    0.5080 C.3       6 GLP5        0.0000 
     50 N          55.6775   -2.6170   -1.4855 N.am      2 SEC2        0.0000 
     51 N          56.2180   -2.5880    0.0290 N.am      8 SEL2        0.0000 
     52 N          55.1370   -2.6460   -3.0000 N.am      5 SEP2        0.0000 
     53 O          52.9520    0.3835   -3.6705 O.2       1 ALC1        0.0000 
     54 O          51.8400    1.1460   -3.2580 O.2       7 ALL1        0.0000 
     55 O          54.0640   -0.3790   -4.0830 O.2       4 ALP1        0.0000 
     56 N          50.3105   -2.3210   -0.2950 N.am      2 SEC2        0.0000 
     57 N          50.8630   -2.3870    1.1130 N.am      8 SEL2        0.0000 
     58 N          49.7580   -2.2550   -1.7030 N.am      5 SEP2        0.0000 
     59 N          54.4635    3.1815    0.0115 N.am      2 SEC2        0.0000 
     60 N          55.5180    2.1080   -0.1370 N.am      8 SEL2        0.0000 
     61 N          53.4090    4.2550    0.1600 N.am      5 SEP2        0.0000 
     62 CA         48.5485    3.5925   -4.1575 C.3       3 GLC5        0.0000 
     63 CA         48.0270    1.8350   -4.0650 C.3       9 GLL5        0.0000 
     64 CA         49.0700    5.3500   -4.2500 C.3       6 GLP5        0.0000 
     65 CA         47.3555    2.9970   -2.5800 C.3       3 GLC5        0.0000 
     66 CA         46.6840    4.1590   -1.0950 C.3       6 GLP5        0.0000 
     67 CA         47.9720    0.8820   -5.2865 C.3       3 GLC5        0.0000 
     68 CA         47.9170   -0.0710   -6.5080 C.3       6 GLP5        0.0000 
     69 CA         46.3380    2.0640   -5.3060 C.3       3 GLC5        0.0000 
     70 CA         44.6490    2.2930   -6.5470 C.3       6 GLP5        0.0000 
     71 CA         52.4303    2.7535    0.7070 C.3       3 GLC5        0.0000 
     72 CA         51.2070    1.3070    0.3970 C.3       9 GLL5        0.0000 
     73 CA         53.2630    4.2780    1.6060 C.3       6 GLP5        0.0000 
     74 CA         49.1368   -0.0882   -0.1195 C.3       3 GLC5        0.0000 
     75 CA         49.6455    3.3960   -4.0060 C.3       3 GLC5        0.0000 
     76 CA         49.6330    1.5540   -3.4080 C.3       9 GLL5        0.0000 
     77 CA         49.0690    0.6855   -5.1350 C.3       3 GLC5        0.0000 
     78 CA         50.8090    1.3300   -4.1160 C.3       9 GLL5        0.0000 
     79 CA         48.2130    2.8575   -1.1450 C.3       3 GLC5        0.0000 
     80 CA         52.0834    3.0728   -1.7663 C.3       3 GLC5        0.0000 
     81 CA         52.8490    4.8800   -2.1190 C.3       6 GLP5        0.0000 
     82 CA         54.4847    1.7317    1.1832 C.3       3 GLC5        0.0000 
     83 CA         53.8060   -0.0810    0.0480 C.3       9 GLL5        0.0000 
     84 CA         55.3330   -0.9888   -1.6394 C.3       3 GLC5        0.0000 
     85 CA         56.0260   -1.5540   -3.3490 C.3       6 GLP5        0.0000 
     86 CA         55.2340   -2.7052    5.6335 C.3       3 GLC5        0.0000 
     87 CA         54.2210   -1.9850    3.9380 C.3       9 GLL5        0.0000 
     88 CA         56.6270   -2.8190    7.0530 C.3       6 GLP5        0.0000 
     89 CA         53.9525   -5.0497    5.1547 C.3       3 GLC5        0.0000 
     90 CA         54.6060   -6.3850    6.3620 C.3       6 GLP5        0.0000 
     91 CA         50.4461   -0.5430   -2.9235 C.3       3 GLC5        0.0000 
     92 CA         50.4580   -2.4970   -2.9430 C.3       6 GLP5        0.0000 
@<TRIPOS>BOND
@<TRIPOS>SUBSTRUCTURE
     1 ALC1       53 GROUP        1 X    ALC  0     ROOT ALC X 1
     2 SEC2       50 GROUP        1 X    SEC  0     **** SEC X 2
     3 GLC5        1 GROUP        1 X    GLC  0     **** GLC X 6
     4 ALP1       55 GROUP        1 Y    ALP  0     ROOT ALP Y 8
     5 SEP2       52 GROUP        1 Y    SEP  0     **** SEP Y 9
     6 GLP5        3 GROUP        1 Y    GLP  0     **** GLP Y 13
     7 ALL1       54 GROUP        1 Z    ALL  0     ROOT ALL Z 15
     8 SEL2       51 GROUP        1 Z    SEL  0     **** SEL Z 16
     9 GLL5        2 GROUP        1 Z    GLL  0     **** GLL Z 20
@<TRIPOS>SET

