#    Name: 3ens_ENS_2_ligand
#    Modification time : Tue Mar 25 02:13:18 2014

@<TRIPOS>MOLECULE
3ens_ENS_2_ligand
   64    67     1     0     0
SMALL
NO_CHARGES


@<TRIPOS>ATOM
      1 C1         55.7250   -1.3300    0.0600 C.1       1 ENS301      0.0000 
      2 C2         49.8260    1.5570    0.3110 C.ar      1 ENS301      0.0000 
      3 C3         49.1940    1.6590   -0.9370 C.ar      1 ENS301      0.0000 
      4 C4         51.2070    1.3070    0.3970 C.ar      1 ENS301      0.0000 
      5 C5         49.6330    1.5540   -3.4080 C.2       1 ENS301      0.0000 
      6 C6         50.8090    1.3300   -4.1160 C.2       1 ENS301      0.0000 
      7 C7         49.9740    1.5040   -2.0770 C.ar      1 ENS301      0.0000 
      8 C8         51.3210    1.2560   -2.0150 C.ar      1 ENS301      0.0000 
      9 C9         51.9880    1.1510   -0.7810 C.ar      1 ENS301      0.0000 
     10 C10        51.9740   -2.7150    1.8260 C.2       1 ENS301      0.0000 
     11 C11        55.2230   -0.2020    0.1250 C.2       1 ENS301      0.0000 
     12 C12        53.8060   -0.0810    0.0480 C.2       1 ENS301      0.0000 
     13 C13        56.0380    0.8850    0.1600 C.2       1 ENS301      0.0000 
     14 C14        50.5270   -5.6620    1.9110 C.2       1 ENS301      0.0000 
     15 C15        54.2210   -1.9850    3.9380 C.3       1 ENS301      0.0000 
     16 C16        53.4610   -3.1980    4.4900 C.3       1 ENS301      0.0000 
     17 C17        48.0100   -8.2370    1.4890 C.3       1 ENS301      0.0000 
     18 C18        47.6460   -7.6010    2.8300 C.3       1 ENS301      0.0000 
     19 C19        53.4360   -1.1660    2.9000 C.3       1 ENS301      0.0000 
     20 C20        53.1370   -4.2310    3.4050 C.3       1 ENS301      0.0000 
     21 C21        49.3310   -7.5960    1.0820 C.3       1 ENS301      0.0000 
     22 C22        48.3390   -6.2440    2.8080 C.3       1 ENS301      0.0000 
     23 C23        53.1310   -1.9780    1.6200 C.3       1 ENS301      0.0000 
     24 C24        58.0370    1.9320    0.1580 C.3       1 ENS301      0.0000 
     25 C25        50.7000   -4.5330    2.9060 C.3       1 ENS301      0.0000 
     26 N26        56.2180   -2.5880    0.0290 N.1       1 ENS301      0.0000 
     27 N27        51.8400    1.1460   -3.2580 N.pl3     1 ENS301      0.0000 
     28 N28        51.9540   -3.8170    2.6520 N.am      1 ENS301      0.0000 
     29 N29        49.4910   -6.4570    1.9570 N.am      1 ENS301      0.0000 
     30 N30        53.3240    0.8600   -0.7270 N.pl3     1 ENS301      0.0000 
     31 N31        52.9550   -1.0950    0.4590 N.4       1 ENS301      0.0000 
     32 O32        50.8630   -2.3870    1.1130 O.2       1 ENS301      0.0000 
     33 O33        55.5180    2.1080   -0.1370 O.2       1 ENS301      0.0000 
     34 O34        51.5620   -5.9270    1.0730 O.2       1 ENS301      0.0000 
     35 O35        57.3000    0.7170    0.1760 O.3       1 ENS301      0.0000 
     36 CL36       48.0270    1.8350   -4.0650 Cl        1 ENS301      0.0000 
     37 H          49.2752    1.6659    1.1726 H         1 ENS301      0.0000 
     38 H          48.2002    1.8400   -0.9993 H         1 ENS301      0.0000 
     39 H          51.6608    1.2354    1.3126 H         1 ENS301      0.0000 
     40 H          50.8612    1.3122   -5.0821 H         1 ENS301      0.0000 
     41 H          55.1608   -2.3316    3.4787 H         1 ENS301      0.0000 
     42 H          54.4959   -1.3245    4.7762 H         1 ENS301      0.0000 
     43 H          52.5275   -2.8558    4.9482 H         1 ENS301      0.0000 
     44 H          54.0662   -3.6743    5.2680 H         1 ENS301      0.0000 
     45 H          47.2586   -8.0069    0.7672 H         1 ENS301      0.0000 
     46 H          48.1416   -9.2884    1.6147 H         1 ENS301      0.0000 
     47 H          48.0337   -8.1921    3.6242 H         1 ENS301      0.0000 
     48 H          46.5928   -7.4682    2.8897 H         1 ENS301      0.0000 
     49 H          54.0167   -0.2823    2.6268 H         1 ENS301      0.0000 
     50 H          52.4930   -0.8368    3.3416 H         1 ENS301      0.0000 
     51 H          52.9734   -5.1961    3.8916 H         1 ENS301      0.0000 
     52 H          54.0070   -4.3204    2.7493 H         1 ENS301      0.0000 
     53 H          49.2630   -7.2988    0.0491 H         1 ENS301      0.0000 
     54 H          50.1182   -8.3180    1.2195 H         1 ENS301      0.0000 
     55 H          48.6252   -5.9892    3.8076 H         1 ENS301      0.0000 
     56 H          47.6662   -5.5224    2.3926 H         1 ENS301      0.0000 
     57 H          53.9874   -2.6272    1.4513 H         1 ENS301      0.0000 
     58 H          50.6950   -4.9539    3.9171 H         1 ENS301      0.0000 
     59 H          49.8447   -3.8547    2.8177 H         1 ENS301      0.0000 
     60 H          52.7467    0.9740   -3.4857 H         1 ENS301      0.0000 
     61 H          53.9729    1.4302   -1.3438 H         1 ENS301      0.0000 
     62 H          59.0234    1.7682    0.1705 H         1 ENS301      0.0000 
     63 H          57.8401    2.4737   -0.6592 H         1 ENS301      0.0000 
     64 H          57.8253    2.5066    0.9486 H         1 ENS301      0.0000 
@<TRIPOS>BOND
     1   11    1 1    
     2   26    1 3    
     3    3    2 ar   
     4    4    2 ar   
     5   37    2 1    
     6    7    3 ar   
     7   38    3 1    
     8    9    4 ar   
     9   39    4 1    
    10    6    5 2    
    11    7    5 1    
    12   36    5 1    
    13   27    6 1    
    14   40    6 1    
    15    8    7 ar   
    16    9    8 ar   
    17   27    8 1    
    18   30    9 1    
    19   23   10 1    
    20   28   10 am   
    21   32   10 2    
    22   12   11 2    
    23   13   11 1    
    24   30   12 1    
    25   31   12 1    
    26   33   13 2    
    27   35   13 1    
    28   25   14 1    
    29   29   14 am   
    30   34   14 2    
    31   16   15 1    
    32   19   15 1    
    33   41   15 1    
    34   42   15 1    
    35   20   16 1    
    36   43   16 1    
    37   44   16 1    
    38   18   17 1    
    39   21   17 1    
    40   45   17 1    
    41   46   17 1    
    42   22   18 1    
    43   47   18 1    
    44   48   18 1    
    45   23   19 1    
    46   49   19 1    
    47   50   19 1    
    48   28   20 1    
    49   51   20 1    
    50   52   20 1    
    51   29   21 1    
    52   53   21 1    
    53   54   21 1    
    54   29   22 1    
    55   55   22 1    
    56   56   22 1    
    57   31   23 1    
    58   57   23 1    
    59   35   24 1    
    60   62   24 1    
    61   63   24 1    
    62   64   24 1    
    63   28   25 1    
    64   58   25 1    
    65   59   25 1    
    66   60   27 1    
    67   61   30 1    
@<TRIPOS>SUBSTRUCTURE
     1 ENS301      1 GROUP   
@<TRIPOS>SET

