#    Name: 3ziu_LSS_1_INTS_M
#    Modification time : Tue Mar 25 03:27:12 2014

@<TRIPOS>MOLECULE
3ziu_LSS_1_INTS_M
   93     0    12     0     0
SMALL
NO_CHARGES


@<TRIPOS>ATOM
      1 N         -23.0795    3.6750   83.5495 N.am      2 SEC2        0.0000 
      2 N         -23.8370    4.1270   82.3270 N.am     10 SEL2        0.0000 
      3 N         -22.3220    3.2230   84.7720 N.am      6 SEP2        0.0000 
      4 N         -30.3850   11.5415   78.6110 N.am      2 SEC2        0.0000 
      5 N         -29.7260   10.7730   77.6180 N.am     10 SEL2        0.0000 
      6 N         -31.0440   12.3100   79.6040 N.am      6 SEP2        0.0000 
      7 CA        -23.8750    3.0610   80.8245 C.3       4 GLC5        0.0000 
      8 CA        -25.1310    3.7830   82.2340 C.3      12 GLL5        0.0000 
      9 CA        -22.6190    2.3390   79.4150 C.3       8 GLP5        0.0000 
     10 CA        -25.6990    1.6555   82.0380 C.3       4 GLC5        0.0000 
     11 CA        -26.2670   -0.4720   81.8420 C.3       8 GLP5        0.0000 
     12 CA        -26.9775    3.3530   83.0345 C.3       4 GLC5        0.0000 
     13 CA        -28.8240    2.9230   83.8350 C.3       8 GLP5        0.0000 
     14 CA        -24.9075    5.5570   83.1545 C.3       4 GLC5        0.0000 
     15 CA        -24.6840    7.3310   84.0750 C.3       8 GLP5        0.0000 
     16 N         -28.6460    6.4445   82.0135 N.am      2 SEC2        0.0000 
     17 N         -28.5150    7.7470   81.2650 N.am     10 SEL2        0.0000 
     18 N         -28.7770    5.1420   82.7620 N.am      6 SEP2        0.0000 
     19 O         -28.3835    9.0525   81.4260 O.2       1 ALC1        0.0000 
     20 O         -28.5150    7.7470   81.2650 O.2       9 ALL1        0.0000 
     21 O         -28.2520   10.3580   81.5870 O.2       5 ALP1        0.0000 
     22 N         -27.3945    4.7920   82.1095 N.am      2 SEC2        0.0000 
     23 N         -26.0120    4.4420   81.4570 N.am     10 SEL2        0.0000 
     24 N         -30.9435    7.1825   81.3910 N.am      2 SEC2        0.0000 
     25 N         -30.6640    6.7320   79.8640 N.am     10 SEL2        0.0000 
     26 N         -31.2230    7.6330   82.9180 N.am      6 SEP2        0.0000 
     27 CA        -25.6300    4.1625   78.9280 C.3       4 GLC5        0.0000 
     28 CA        -25.6090    5.5020   80.7230 C.3      12 GLL5        0.0000 
     29 CA        -25.6510    2.8230   77.1330 C.3       8 GLP5        0.0000 
     30 OD1       -32.3095   12.2940   73.9645 O.co2     3 ASC3        0.0000 
     31 OD1       -31.4620   11.3460   74.5220 O.co2    11 ASL3        0.0000 
     32 OD1       -33.1570   13.2420   73.4070 O.co2     7 ASP3        0.0000 
     33 O         -31.8505   10.0820   74.3300 O.2       1 ALC1        0.0000 
     34 O         -31.4620   11.3460   74.5220 O.2       9 ALL1        0.0000 
     35 O         -32.2390    8.8180   74.1380 O.2       5 ALP1        0.0000 
     36 O         -32.3095   12.2940   73.9645 O.2       1 ALC1        0.0000 
     37 O         -33.1570   13.2420   73.4070 O.2       5 ALP1        0.0000 
     38 O         -21.0335    4.9285   82.6760 O.2       1 ALC1        0.0000 
     39 O         -22.0260    5.5130   81.6820 O.2       9 ALL1        0.0000 
     40 O         -20.0410    4.3440   83.6700 O.2       5 ALP1        0.0000 
     41 O         -21.0440    6.5380   81.0610 O.2       1 ALC1        0.0000 
     42 O         -20.0620    7.5630   80.4400 O.2       5 ALP1        0.0000 
     43 CA        -34.8490   11.1885   74.7405 C.3       4 GLC5        0.0000 
     44 CA        -33.8850   11.5790   76.4020 C.3      12 GLL5        0.0000 
     45 CA        -35.8130   10.7980   73.0790 C.3       8 GLP5        0.0000 
     46 N         -23.1600    7.8975   79.4480 N.am      2 SEC2        0.0000 
     47 N         -24.1740    6.9650   79.9170 N.am     10 SEL2        0.0000 
     48 N         -22.1460    8.8300   78.9790 N.am      6 SEP2        0.0000 
     49 CA        -33.1345    9.1160   77.4515 C.3       4 GLC5        0.0000 
     50 CA        -32.5790   10.7850   76.6600 C.3      12 GLL5        0.0000 
     51 CA        -33.6900    7.4470   78.2430 C.3       8 GLP5        0.0000 
     52 CA        -32.1260   11.3465   78.6950 C.3       4 GLC5        0.0000 
     53 CA        -31.6730   11.9080   80.7300 C.3       8 GLP5        0.0000 
     54 CA        -30.3440   12.7455   75.5920 C.3       4 GLC5        0.0000 
     55 CA        -31.3520   11.4350   75.9720 C.3      12 GLL5        0.0000 
     56 CA        -29.3360   14.0560   75.2120 C.3       8 GLP5        0.0000 
     57 CA        -34.8490    9.4025   78.1485 C.3       4 GLC5        0.0000 
     58 CA        -35.0900   10.8050   76.9460 C.3      12 GLL5        0.0000 
     59 CA        -34.6080    8.0000   79.3510 C.3       8 GLP5        0.0000 
     60 CA        -35.1740   10.1770   75.1010 C.3       4 GLC5        0.0000 
     61 CA        -35.2580    9.5490   73.2560 C.3       8 GLP5        0.0000 
     62 CA        -36.8795   10.3755   76.1535 C.3       4 GLC5        0.0000 
     63 CA        -38.6690    9.9460   75.3610 C.3       8 GLP5        0.0000 
     64 CA        -36.0435   11.5110   78.3630 C.3       4 GLC5        0.0000 
     65 CA        -36.9970   12.2170   79.7800 C.3       8 GLP5        0.0000 
     66 CA        -33.4395   14.7775   77.6125 C.3       4 GLC5        0.0000 
     67 CA        -33.8280   12.9740   77.0560 C.3      12 GLL5        0.0000 
     68 CA        -33.0510   16.5810   78.1690 C.3       8 GLP5        0.0000 
     69 CA        -33.1220   12.9810   79.1280 C.3       4 GLC5        0.0000 
     70 CA        -32.4160   12.9880   81.2000 C.3       8 GLP5        0.0000 
     71 CA        -34.8425   13.7775   78.3485 C.3       4 GLC5        0.0000 
     72 CA        -35.8570   14.5810   79.6410 C.3       8 GLP5        0.0000 
     73 CA        -26.5455    6.0735   77.8230 C.3       4 GLC5        0.0000 
     74 CA        -27.6920    6.2090   79.6130 C.3      12 GLL5        0.0000 
     75 CA        -25.3990    5.9380   76.0330 C.3       8 GLP5        0.0000 
     76 CA        -31.6695    7.4240   78.6690 C.3       4 GLC5        0.0000 
     77 CA        -29.6490    7.4010   79.0950 C.3      12 GLL5        0.0000 
     78 CA        -30.1915    4.7235   77.1105 C.3       4 GLC5        0.0000 
     79 CA        -29.2380    6.5280   77.9080 C.3      12 GLL5        0.0000 
     80 CA        -31.1450    2.9190   76.3130 C.3       8 GLP5        0.0000 
     81 CA        -29.6120    7.6335   74.6175 C.3       4 GLC5        0.0000 
     82 CA        -29.0820    7.3080   76.6060 C.3      12 GLL5        0.0000 
     83 CA        -30.1420    7.9590   72.6290 C.3       8 GLP5        0.0000 
     84 N         -28.3080    9.4550   73.3030 N.am      2 SEC2        0.0000 
     85 N         -27.5390    8.8470   74.5670 N.am     10 SEL2        0.0000 
     86 N         -29.0770   10.0630   72.0390 N.am      6 SEP2        0.0000 
     87 CA        -23.2183    3.9402   80.3007 C.3       4 GLC5        0.0000 
     88 CA        -24.2920    5.9140   80.7580 C.3      12 GLL5        0.0000 
     89 CA        -24.4154    6.3848   82.6264 C.3       4 GLC5        0.0000 
     90 CA        -23.3430    5.1690   81.6150 C.3      12 GLL5        0.0000 
     91 CA        -35.4274   13.1050   75.7575 C.3       4 GLC5        0.0000 
     92 CA        -36.6970   14.1270   74.6500 C.3       8 GLP5        0.0000 
     93 CA        -27.2795    6.4280   76.6450 C.3       4 GLC5        0.0000 
@<TRIPOS>BOND
@<TRIPOS>SUBSTRUCTURE
     1 ALC1       19 GROUP        1 X    ALC  0     ROOT ALC X 1
     2 SEC2        1 GROUP        1 X    SEC  0     **** SEC X 2
     3 ASC3       30 GROUP        1 X    ASC  0     **** ASC X 3
     4 GLC5        7 GROUP        1 X    GLC  0     **** GLC X 6
     5 ALP1       21 GROUP        1 Y    ALP  0     ROOT ALP Y 8
     6 SEP2        3 GROUP        1 Y    SEP  0     **** SEP Y 9
     7 ASP3       32 GROUP        1 Y    ASP  0     **** ASP Y 10
     8 GLP5        9 GROUP        1 Y    GLP  0     **** GLP Y 13
     9 ALL1       20 GROUP        1 Z    ALL  0     ROOT ALL Z 15
    10 SEL2        2 GROUP        1 Z    SEL  0     **** SEL Z 16
    11 ASL3       31 GROUP        1 Z    ASL  0     **** ASL Z 17
    12 GLL5        8 GROUP        1 Z    GLL  0     **** GLL Z 20
@<TRIPOS>SET

