#    Name: 3ziu_LSS_1_ligand
#    Modification time : Tue Mar 25 03:27:12 2014

@<TRIPOS>MOLECULE
3ziu_LSS_1_ligand
   57    59     1     0     0
SMALL
NO_CHARGES


@<TRIPOS>ATOM
      1 C1        -30.0880   10.7550   76.4260 C.2       1 LSS1638     0.0000 
      2 N1        -23.8370    4.1270   82.3270 N.ar      1 LSS1638     0.0000 
      3 O1        -29.7260   10.7730   77.6180 O.2       1 LSS1638     0.0000 
      4 S1        -28.0570    9.4620   75.7740 S.o2      1 LSS1638     0.0000 
      5 C2        -25.1310    3.7830   82.2340 C.ar      1 LSS1638     0.0000 
      6 N2        -29.3780   10.1680   75.4440 N.am      1 LSS1638     0.0000 
      7 O2        -28.5150    7.7470   81.2650 O.3       1 LSS1638     0.0000 
      8 N3        -26.0120    4.4420   81.4570 N.ar      1 LSS1638     0.0000 
      9 O3        -30.6640    6.7320   79.8640 O.3       1 LSS1638     0.0000 
     10 C4        -25.6090    5.5020   80.7230 C.ar      1 LSS1638     0.0000 
     11 N4        -31.4620   11.3460   74.5220 N.4       1 LSS1638     0.0000 
     12 O4        -28.0010    5.9170   78.2800 O.3       1 LSS1638     0.0000 
     13 C5        -24.2920    5.9140   80.7580 C.ar      1 LSS1638     0.0000 
     14 O5        -28.2000    8.3810   76.8580 O.3       1 LSS1638     0.0000 
     15 C6        -23.3430    5.1690   81.6150 C.ar      1 LSS1638     0.0000 
     16 N6        -22.0260    5.5130   81.6820 N.pl3     1 LSS1638     0.0000 
     17 C7        -33.8850   11.5790   76.4020 C.3       1 LSS1638     0.0000 
     18 N7        -24.1740    6.9650   79.9170 N.2       1 LSS1638     0.0000 
     19 C8        -25.4060    7.2250   79.3860 C.2       1 LSS1638     0.0000 
     20 C9        -32.5790   10.7850   76.6600 C.3       1 LSS1638     0.0000 
     21 N9        -26.2590    6.3060   79.8650 N.pl3     1 LSS1638     0.0000 
     22 CA        -31.3520   11.4350   75.9720 C.3       1 LSS1638     0.0000 
     23 C10       -35.0900   10.8050   76.9460 C.3       1 LSS1638     0.0000 
     24 C11       -33.8280   12.9740   77.0560 C.3       1 LSS1638     0.0000 
     25 O1A       -27.0690   10.3210   76.3900 O.2       1 LSS1638     0.0000 
     26 C21       -27.6920    6.2090   79.6130 C.3       1 LSS1638     0.0000 
     27 C22       -28.3550    7.5580   79.8730 C.3       1 LSS1638     0.0000 
     28 C23       -29.6490    7.4010   79.0950 C.3       1 LSS1638     0.0000 
     29 C24       -29.2380    6.5280   77.9080 C.3       1 LSS1638     0.0000 
     30 C25       -29.0820    7.3080   76.6060 C.3       1 LSS1638     0.0000 
     31 O2A       -27.5390    8.8470   74.5670 O.2       1 LSS1638     0.0000 
     32 H         -25.4790    2.9513   82.7996 H         1 LSS1638     0.0000 
     33 H         -29.6443   10.1471   74.4656 H         1 LSS1638     0.0000 
     34 H         -21.4434    4.9178   82.2355 H         1 LSS1638     0.0000 
     35 H         -21.7582    6.3303   81.1718 H         1 LSS1638     0.0000 
     36 H         -34.0065   11.7022   75.3383 H         1 LSS1638     0.0000 
     37 H         -25.6101    7.9402   78.7802 H         1 LSS1638     0.0000 
     38 H         -32.7011    9.7703   76.2811 H         1 LSS1638     0.0000 
     39 H         -32.3994   10.7387   77.7341 H         1 LSS1638     0.0000 
     40 H         -31.3157   12.4724   76.2836 H         1 LSS1638     0.0000 
     41 H         -28.1545    5.5052   80.2873 H         1 LSS1638     0.0000 
     42 H         -27.7586    8.2940   79.3901 H         1 LSS1638     0.0000 
     43 H         -29.9454    8.3429   78.7235 H         1 LSS1638     0.0000 
     44 H         -30.0014    5.7706   77.7769 H         1 LSS1638     0.0000 
     45 H         -28.6969    6.6224   75.8522 H         1 LSS1638     0.0000 
     46 H         -30.0713    7.6468   76.3012 H         1 LSS1638     0.0000 
     47 H         -30.6870   11.7807   74.0634 H         1 LSS1638     0.0000 
     48 H         -31.4926   10.3966   74.2094 H         1 LSS1638     0.0000 
     49 H         -32.2905   11.7926   74.1843 H         1 LSS1638     0.0000 
     50 H         -35.1855    9.9110   76.5083 H         1 LSS1638     0.0000 
     51 H         -35.0140   10.6430   77.9299 H         1 LSS1638     0.0000 
     52 H         -35.9469   11.2981   76.7955 H         1 LSS1638     0.0000 
     53 H         -33.7032   12.9150   78.0464 H         1 LSS1638     0.0000 
     54 H         -33.0721   13.5217   76.6974 H         1 LSS1638     0.0000 
     55 H         -34.6676   13.4934   76.8968 H         1 LSS1638     0.0000 
     56 H         -28.9020    8.6643   81.3587 H         1 LSS1638     0.0000 
     57 H         -30.4601    5.7576   79.7694 H         1 LSS1638     0.0000 
@<TRIPOS>BOND
     1    3    1 2    
     2    6    1 am   
     3   22    1 1    
     4    5    2 ar   
     5   15    2 ar   
     6    6    4 1    
     7   14    4 1    
     8   25    4 2    
     9   31    4 2    
    10    8    5 ar   
    11   32    5 1    
    12   33    6 1    
    13   27    7 1    
    14   56    7 1    
    15   10    8 ar   
    16   28    9 1    
    17   57    9 1    
    18   13   10 ar   
    19   21   10 1    
    20   22   11 1    
    21   47   11 1    
    22   48   11 1    
    23   49   11 1    
    24   26   12 1    
    25   29   12 1    
    26   15   13 ar   
    27   18   13 1    
    28   30   14 1    
    29   16   15 1    
    30   34   16 1    
    31   35   16 1    
    32   20   17 1    
    33   23   17 1    
    34   24   17 1    
    35   36   17 1    
    36   19   18 2    
    37   21   19 1    
    38   37   19 1    
    39   22   20 1    
    40   38   20 1    
    41   39   20 1    
    42   26   21 1    
    43   40   22 1    
    44   50   23 1    
    45   51   23 1    
    46   52   23 1    
    47   53   24 1    
    48   54   24 1    
    49   55   24 1    
    50   27   26 1    
    51   41   26 1    
    52   28   27 1    
    53   42   27 1    
    54   29   28 1    
    55   43   28 1    
    56   30   29 1    
    57   44   29 1    
    58   45   30 1    
    59   46   30 1    
@<TRIPOS>SUBSTRUCTURE
     1 LSS1638     1 GROUP   
@<TRIPOS>SET

