#    Name: 4kbk_1QG_3_INTS_M
#    Modification time : Tue Mar 25 07:42:10 2014

@<TRIPOS>MOLECULE
4kbk_1QG_3_INTS_M
   67     0     6     0     0
SMALL
NO_CHARGES


@<TRIPOS>ATOM
      1 N          -3.9275  -17.2155  -54.3190 N.am      1 SEC2        0.0000 
      2 N          -4.7660  -18.3710  -53.9950 N.am      5 SEL2        0.0000 
      3 N          -3.0890  -16.0600  -54.6430 N.am      3 SEP2        0.0000 
      4 CA        -11.4930  -18.9010  -53.7815 C.3       2 GLC5        0.0000 
      5 CA        -10.1840  -19.0770  -52.0310 C.3       6 GLL5        0.0000 
      6 CA        -12.8020  -18.7250  -55.5320 C.3       4 GLP5        0.0000 
      7 CA         -5.1530  -16.5175  -54.4115 C.3       2 GLC5        0.0000 
      8 CA         -5.5040  -18.1050  -52.8970 C.3       6 GLL5        0.0000 
      9 CA         -4.8020  -14.9300  -55.9260 C.3       4 GLP5        0.0000 
     10 CA         -4.1740  -16.9090  -52.2380 C.3       2 GLC5        0.0000 
     11 CA         -2.8440  -15.7130  -51.5790 C.3       4 GLP5        0.0000 
     12 CA         -4.9770  -20.7180  -59.0570 C.3       2 GLC5        0.0000 
     13 CA         -3.6790  -21.1690  -57.6210 C.3       6 GLL5        0.0000 
     14 CA         -6.2750  -20.2670  -60.4930 C.3       4 GLP5        0.0000 
     15 CA         -4.2790  -19.2980  -57.8190 C.3       2 GLC5        0.0000 
     16 CA         -4.8790  -17.4270  -58.0170 C.3       4 GLP5        0.0000 
     17 CA         -8.4170  -24.5010  -50.6020 C.3       2 GLC5        0.0000 
     18 CA         -6.4230  -24.6860  -49.8220 C.3       6 GLL5        0.0000 
     19 CA        -10.4110  -24.3160  -51.3820 C.3       4 GLP5        0.0000 
     20 CA         -5.6575  -23.3155  -48.8300 C.3       2 GLC5        0.0000 
     21 CA         -4.8920  -21.9450  -47.8380 C.3       4 GLP5        0.0000 
     22 CA         -3.2705  -18.1535  -53.3785 C.3       2 GLC5        0.0000 
     23 CA         -4.5310  -19.6790  -54.2800 C.3       6 GLL5        0.0000 
     24 CA         -2.0100  -16.6280  -52.4770 C.3       4 GLP5        0.0000 
     25 CA         -0.5435  -19.3470  -55.0215 C.3       2 GLC5        0.0000 
     26 CA         -2.3750  -20.6000  -55.1650 C.3       6 GLL5        0.0000 
     27 CA          1.2880  -18.0940  -54.8780 C.3       4 GLP5        0.0000 
     28 CA         -2.2945  -20.5340  -53.1945 C.3       2 GLC5        0.0000 
     29 CA         -2.2140  -20.4680  -51.2240 C.3       4 GLP5        0.0000 
     30 CA         -9.7978  -21.4320  -52.2195 C.3       2 GLC5        0.0000 
     31 CA         -9.1050  -19.9470  -52.0270 C.3       6 GLL5        0.0000 
     32 CA         -9.9510  -23.3520  -52.4100 C.3       4 GLP5        0.0000 
     33 CA         -8.8808  -18.7705  -53.5610 C.3       2 GLC5        0.0000 
     34 CA         -8.1170  -18.0290  -55.0930 C.3       4 GLP5        0.0000 
     35 CA         -8.1387  -18.3475  -50.7475 C.3       2 GLC5        0.0000 
     36 CA         -7.4130  -16.4910  -50.0700 C.3       4 GLP5        0.0000 
     37 CA        -11.4465  -20.7718  -49.3263 C.3       2 GLC5        0.0000 
     38 CA         -9.1990  -20.0810  -49.6120 C.3       6 GLL5        0.0000 
     39 CA        -13.1550  -21.8990  -49.0500 C.3       4 GLP5        0.0000 
     40 CA         -9.1040  -18.1223  -49.1227 C.3       2 GLC5        0.0000 
     41 CA        -10.2770  -19.2080  -49.5930 C.3       6 GLL5        0.0000 
     42 CA         -8.4700  -16.6000  -48.6430 C.3       4 GLP5        0.0000 
     43 CA         -6.9440  -18.3145  -53.7880 C.3       2 GLC5        0.0000 
     44 CA         -6.0380  -19.0950  -52.0690 C.3       6 GLL5        0.0000 
     45 CA         -6.5920  -17.5455  -51.2765 C.3       2 GLC5        0.0000 
     46 CA         -3.9925  -19.5340  -51.8535 C.3       2 GLC5        0.0000 
     47 CA         -4.7172  -22.4818  -57.2592 C.3       2 GLC5        0.0000 
     48 CA         -6.4410  -23.5100  -57.1020 C.3       4 GLP5        0.0000 
     49 CA         -4.5025  -18.6170  -56.4605 C.3       2 GLC5        0.0000 
     50 CA         -3.7210  -19.9350  -55.5280 C.3       6 GLL5        0.0000 
     51 CA         -7.9915  -22.7180  -51.9142 C.3       2 GLC5        0.0000 
     52 CA         -6.3340  -21.4710  -51.5640 C.3       6 GLL5        0.0000 
     53 CA         -4.1230  -21.2760  -51.3212 C.3       2 GLC5        0.0000 
     54 CA         -5.4620  -22.0145  -49.6283 C.3       2 GLC5        0.0000 
     55 CA         -5.7300  -22.6970  -51.2730 C.3       6 GLL5        0.0000 
     56 CA         -9.4313  -21.8115  -51.3137 C.3       2 GLC5        0.0000 
     57 CA         -8.6240  -20.4610  -50.8230 C.3       6 GLL5        0.0000 
     58 CA        -12.3849  -19.6218  -51.1946 C.3       2 GLC5        0.0000 
     59 CA        -13.6220  -20.8380  -51.2740 C.3       4 GLP5        0.0000 
     60 CA        -12.2510  -18.2946  -49.1739 C.3       2 GLC5        0.0000 
     61 CA        -11.8180  -17.9100  -50.8100 C.3       6 GLL5        0.0000 
     62 CA        -13.3310  -18.1510  -47.8420 C.3       4 GLP5        0.0000 
     63 CA        -10.2949  -16.8738  -51.3886 C.3       2 GLC5        0.0000 
     64 CA         -9.4420  -15.3420  -51.6620 C.3       4 GLP5        0.0000 
     65 CA         -6.5424  -19.0796  -54.3538 C.3       2 GLC5        0.0000 
     66 CA         -5.7930  -20.4280  -52.3900 C.3       6 GLL5        0.0000 
     67 CA         -3.5909  -20.2991  -52.4192 C.3       2 GLC5        0.0000 
@<TRIPOS>BOND
@<TRIPOS>SUBSTRUCTURE
     1 SEC2        1 GROUP        1 X    SEC  0     ROOT SEC X 2
     2 GLC5        4 GROUP        1 X    GLC  0     **** GLC X 6
     3 SEP2        3 GROUP        1 Y    SEP  0     ROOT SEP Y 9
     4 GLP5        6 GROUP        1 Y    GLP  0     **** GLP Y 13
     5 SEL2        2 GROUP        1 Z    SEL  0     ROOT SEL Z 16
     6 GLL5        5 GROUP        1 Z    GLL  0     **** GLL Z 20
@<TRIPOS>SET

