#    Name: 4kbk_1QG_3_ligand
#    Modification time : Tue Mar 25 07:42:10 2014

@<TRIPOS>MOLECULE
4kbk_1QG_3_ligand
   43    46     1     0     0
SMALL
NO_CHARGES


@<TRIPOS>ATOM
      1 N3         -4.7660  -18.3710  -53.9950 N.ar      1 1QG401      0.0000 
      2 C4         -7.5620  -21.4510  -50.8320 C.2       1 1QG401      0.0000 
      3 N2         -7.6990  -22.6050  -50.1100 N.2       1 1QG401      0.0000 
      4 C7        -10.1840  -19.0770  -52.0310 C.ar      1 1QG401      0.0000 
      5 C6         -9.1050  -19.9470  -52.0270 C.ar      1 1QG401      0.0000 
      6 C9        -10.2770  -19.2080  -49.5930 C.ar      1 1QG401      0.0000 
      7 C13        -5.5040  -18.1050  -52.8970 C.ar      1 1QG401      0.0000 
      8 C8        -10.7710  -18.7250  -50.8100 C.ar      1 1QG401      0.0000 
      9 C18        -2.3080  -21.7380  -57.2120 C.3       1 1QG401      0.0000 
     10 C16        -3.7210  -19.9350  -55.5280 C.3       1 1QG401      0.0000 
     11 C19        -3.6790  -21.1690  -57.6210 C.3       1 1QG401      0.0000 
     12 C1         -6.4230  -24.6860  -49.8220 C.3       1 1QG401      0.0000 
     13 N1         -6.5930  -23.3460  -50.3970 N.pl3     1 1QG401      0.0000 
     14 C2         -5.7300  -22.6970  -51.2730 C.2       1 1QG401      0.0000 
     15 C3         -6.3340  -21.4710  -51.5640 C.2       1 1QG401      0.0000 
     16 C5         -8.6240  -20.4610  -50.8230 C.ar      1 1QG401      0.0000 
     17 C10        -9.1990  -20.0810  -49.6120 C.ar      1 1QG401      0.0000 
     18 F1        -11.8180  -17.9100  -50.8100 F         1 1QG401      0.0000 
     19 C11        -5.7930  -20.4280  -52.3900 C.ar      1 1QG401      0.0000 
     20 C12        -6.0380  -19.0950  -52.0690 C.ar      1 1QG401      0.0000 
     21 C14        -4.5310  -19.6790  -54.2800 C.ar      1 1QG401      0.0000 
     22 C15        -5.0160  -20.7350  -53.5080 C.ar      1 1QG401      0.0000 
     23 C17        -2.3750  -20.6000  -55.1650 C.3       1 1QG401      0.0000 
     24 O1         -1.6490  -20.8560  -56.3400 O.3       1 1QG401      0.0000 
     25 N4         -4.4530  -20.9000  -56.3870 N.4       1 1QG401      0.0000 
     26 H         -10.5481  -18.6970  -52.9038 H         1 1QG401      0.0000 
     27 H          -8.6550  -20.2167  -52.9127 H         1 1QG401      0.0000 
     28 H         -10.7039  -18.9212  -48.7145 H         1 1QG401      0.0000 
     29 H          -5.6995  -17.0987  -52.6326 H         1 1QG401      0.0000 
     30 H          -1.7418  -21.9126  -58.1404 H         1 1QG401      0.0000 
     31 H          -2.4915  -22.7228  -56.7543 H         1 1QG401      0.0000 
     32 H          -3.5352  -19.0391  -56.0477 H         1 1QG401      0.0000 
     33 H          -4.1826  -21.8995  -58.2396 H         1 1QG401      0.0000 
     34 H          -3.5187  -20.2576  -58.1810 H         1 1QG401      0.0000 
     35 H          -4.9167  -23.0109  -51.6006 H         1 1QG401      0.0000 
     36 H          -8.8200  -20.4514  -48.7285 H         1 1QG401      0.0000 
     37 H          -6.5905  -18.8474  -51.2542 H         1 1QG401      0.0000 
     38 H          -4.8103  -21.6966  -53.7516 H         1 1QG401      0.0000 
     39 H          -2.6092  -21.5136  -54.6061 H         1 1QG401      0.0000 
     40 H          -1.8522  -19.9159  -54.4864 H         1 1QG401      0.0000 
     41 H          -5.5666  -25.1104  -50.1161 H         1 1QG401      0.0000 
     42 H          -6.4102  -24.6623  -48.8224 H         1 1QG401      0.0000 
     43 H          -7.1631  -25.3023  -50.0912 H         1 1QG401      0.0000 
@<TRIPOS>BOND
     1    7    1 ar   
     2   21    1 ar   
     3    3    2 2    
     4   15    2 1    
     5   16    2 1    
     6   13    3 1    
     7    5    4 ar   
     8    8    4 ar   
     9   26    4 1    
    10   16    5 ar   
    11   27    5 1    
    12    8    6 ar   
    13   17    6 ar   
    14   28    6 1    
    15   20    7 ar   
    16   29    7 1    
    17   18    8 1    
    18   11    9 1    
    19   24    9 1    
    20   30    9 1    
    21   31    9 1    
    22   21   10 1    
    23   23   10 1    
    24   25   10 1    
    25   32   10 1    
    26   25   11 1    
    27   33   11 1    
    28   34   11 1    
    29   13   12 1    
    30   41   12 1    
    31   42   12 1    
    32   43   12 1    
    33   14   13 1    
    34   15   14 2    
    35   35   14 1    
    36   19   15 1    
    37   17   16 ar   
    38   36   17 1    
    39   20   19 ar   
    40   22   19 ar   
    41   37   20 1    
    42   22   21 ar   
    43   38   22 1    
    44   24   23 1    
    45   39   23 1    
    46   40   23 1    
@<TRIPOS>SUBSTRUCTURE
     1 1QG401      1 GROUP   
@<TRIPOS>SET

