#    Name: 3iel_U5P_4_INTS_M
#    Modification time : Tue Mar 25 16:22:10 2014

@<TRIPOS>MOLECULE
3iel_U5P_4_INTS_M
   48     0     9     0     0
SMALL
NO_CHARGES


@<TRIPOS>ATOM
      1 CA         69.0340   34.5230   36.5075 C.3       3 GLC5        0.0000 
      2 CA         68.7610   35.0520   38.1200 C.3       9 GLL5        0.0000 
      3 CA         69.3070   33.9940   34.8950 C.3       6 GLP5        0.0000 
      4 CA         69.2855   33.5790   38.9315 C.3       3 GLC5        0.0000 
      5 CA         69.8100   32.1060   39.7430 C.3       6 GLP5        0.0000 
      6 CA         67.9140   34.8930   36.2940 C.3       3 GLC5        0.0000 
      7 CA         67.3570   34.7690   38.1280 C.3       9 GLL5        0.0000 
      8 CA         68.4710   35.0170   34.4600 C.3       6 GLP5        0.0000 
      9 CA         67.8925   33.3245   38.9180 C.3       3 GLC5        0.0000 
     10 CA         68.4280   31.8800   39.7080 C.3       6 GLP5        0.0000 
     11 CA         66.3580   33.6540   40.0305 C.3       3 GLC5        0.0000 
     12 CA         65.0540   34.9720   39.2830 C.3       9 GLL5        0.0000 
     13 CA         67.6620   32.3360   40.7780 C.3       6 GLP5        0.0000 
     14 CA         65.6800   36.7310   37.4410 C.3       3 GLC5        0.0000 
     15 CA         64.0760   35.5180   38.2390 C.3       9 GLL5        0.0000 
     16 CA         67.2840   37.9440   36.6430 C.3       6 GLP5        0.0000 
     17 CA         62.8405   31.2875   39.0965 C.3       3 GLC5        0.0000 
     18 CA         63.5580   33.2140   38.7300 C.3       9 GLL5        0.0000 
     19 CA         62.1230   29.3610   39.4630 C.3       6 GLP5        0.0000 
     20 CA         62.8910   30.6345   37.8225 C.3       3 GLC5        0.0000 
     21 CA         63.8060   32.2500   37.5270 C.3       9 GLL5        0.0000 
     22 CA         61.9760   29.0190   38.1180 C.3       6 GLP5        0.0000 
     23 CA         65.7910   31.6950   38.0390 C.3       3 GLC5        0.0000 
     24 CA         67.7760   31.1400   38.5510 C.3       6 GLP5        0.0000 
     25 NZ         63.0135   31.2610   33.9100 N.4       2 LYC4        0.0000 
     26 NZ         63.9640   32.1090   34.3290 N.4       8 LYL4        0.0000 
     27 NZ         62.3640   29.1250   33.5040 N.4       5 LYP4        0.0000 
     28 N          63.0135   31.2610   33.9100 N.am      1 SEC2        0.0000 
     29 N          63.9640   32.1090   34.3290 N.am      7 SEL2        0.0000 
     30 N          62.0630   30.4130   33.4910 N.am      4 SEP2        0.0000 
     31 N          63.7380   30.4155   34.1850 N.am      1 SEC2        0.0000 
     32 N          63.5120   28.7220   34.0410 N.am      4 SEP2        0.0000 
     33 N          64.0620   32.0535   32.8875 N.am      1 SEC2        0.0000 
     34 N          64.1600   31.9980   31.4460 N.am      4 SEP2        0.0000 
     35 N          67.6475   32.6605   35.1400 N.am      1 SEC2        0.0000 
     36 N          66.5010   32.4250   34.7340 N.am      7 SEL2        0.0000 
     37 N          68.7940   32.8960   35.5460 N.am      4 SEP2        0.0000 
     38 N          66.7475   32.6260   33.4725 N.am      1 SEC2        0.0000 
     39 N          66.9940   32.8270   32.2110 N.am      4 SEP2        0.0000 
     40 NZ         64.3780   29.6160   34.8425 N.4       2 LYC4        0.0000 
     41 NZ         65.2440   30.5100   35.6440 N.4       8 LYL4        0.0000 
     42 N          64.3780   29.6160   34.8425 N.am      1 SEC2        0.0000 
     43 N          65.2440   30.5100   35.6440 N.am      7 SEL2        0.0000 
     44 N          65.9785   29.7765   36.7415 N.am      1 SEC2        0.0000 
     45 N          66.7130   29.0430   37.8390 N.am      4 SEP2        0.0000 
     46 CA         67.6715   36.4273   37.3835 C.3       3 GLC5        0.0000 
     47 CA         63.8125   35.6317   36.3042 C.3       3 GLC5        0.0000 
     48 CA         64.1380   36.2360   34.3410 C.3       6 GLP5        0.0000 
@<TRIPOS>BOND
@<TRIPOS>SUBSTRUCTURE
     1 SEC2       28 GROUP        1 X    SEC  0     ROOT SEC X 2
     2 LYC4       25 GROUP        1 X    LYC  0     **** LYC X 4
     3 GLC5        1 GROUP        1 X    GLC  0     **** GLC X 6
     4 SEP2       30 GROUP        1 Y    SEP  0     ROOT SEP Y 9
     5 LYP4       27 GROUP        1 Y    LYP  0     **** LYP Y 11
     6 GLP5        3 GROUP        1 Y    GLP  0     **** GLP Y 13
     7 SEL2       29 GROUP        1 Z    SEL  0     ROOT SEL Z 16
     8 LYL4       26 GROUP        1 Z    LYL  0     **** LYL Z 18
     9 GLL5        2 GROUP        1 Z    GLL  0     **** GLL Z 20
@<TRIPOS>SET

