#    Name: 3iel_U5P_4_ligand
#    Modification time : Tue Mar 25 16:22:10 2014

@<TRIPOS>MOLECULE
3iel_U5P_4_ligand
   32    33     1     0     0
SMALL
NO_CHARGES


@<TRIPOS>ATOM
      1 N1         66.5340   35.2100   39.1690 N.am      1 U5P456      0.0000 
      2 C2         67.1250   35.9790   40.2790 C.2       1 U5P456      0.0000 
      3 N3         68.4760   36.2420   40.2560 N.am      1 U5P456      0.0000 
      4 C4         69.2890   35.7990   39.2150 C.2       1 U5P456      0.0000 
      5 C5         68.7610   35.0520   38.1200 C.2       1 U5P456      0.0000 
      6 C6         67.3570   34.7690   38.1280 C.2       1 U5P456      0.0000 
      7 O2         66.4310   36.4120   41.2610 O.2       1 U5P456      0.0000 
      8 O4         70.5190   36.0870   39.2820 O.2       1 U5P456      0.0000 
      9 C1'        65.0540   34.9720   39.2830 C.3       1 U5P456      0.0000 
     10 C2'        64.0760   35.5180   38.2390 C.3       1 U5P456      0.0000 
     11 O2'        63.6750   36.8790   38.4690 O.3       1 U5P456      0.0000 
     12 C3'        62.8980   34.5370   38.2960 C.3       1 U5P456      0.0000 
     13 C4'        63.5580   33.2140   38.7300 C.3       1 U5P456      0.0000 
     14 O3'        61.8370   34.9010   39.2060 O.3       1 U5P456      0.0000 
     15 O4'        64.8420   33.5490   39.3250 O.3       1 U5P456      0.0000 
     16 C5'        63.8060   32.2500   37.5270 C.3       1 U5P456      0.0000 
     17 O5'        64.7570   32.7510   36.5470 O.3       1 U5P456      0.0000 
     18 P          65.0690   31.9670   35.3010 P.3       1 U5P456      0.0000 
     19 O1P        63.9640   32.1090   34.3290 O.co2     1 U5P456      0.0000 
     20 O2P        66.5010   32.4250   34.7340 O.co2     1 U5P456      0.0000 
     21 O3P        65.2440   30.5100   35.6440 O.co2     1 U5P456      0.0000 
     22 H          68.9080   36.7851   41.0328 H         1 U5P456      0.0000 
     23 H          69.3457   34.7375   37.3756 H         1 U5P456      0.0000 
     24 H          66.9604   34.2299   37.3463 H         1 U5P456      0.0000 
     25 H          64.7163   35.3626   40.2771 H         1 U5P456      0.0000 
     26 H          64.5435   35.3814   37.2674 H         1 U5P456      0.0000 
     27 H          62.5494   34.3851   37.2864 H         1 U5P456      0.0000 
     28 H          62.9291   32.7259   39.4375 H         1 U5P456      0.0000 
     29 H          62.8188   32.0540   37.0619 H         1 U5P456      0.0000 
     30 H          64.1427   31.2832   37.9525 H         1 U5P456      0.0000 
     31 H          62.6958   36.8304   38.6661 H         1 U5P456      0.0000 
     32 H          60.9975   34.5845   38.7644 H         1 U5P456      0.0000 
@<TRIPOS>BOND
     1    2    1 1    
     2    6    1 1    
     3    9    1 1    
     4    3    2 1    
     5    7    2 2    
     6    4    3 1    
     7   22    3 1    
     8    5    4 1    
     9    8    4 2    
    10    6    5 2    
    11   23    5 1    
    12   24    6 1    
    13   10    9 1    
    14   15    9 1    
    15   25    9 1    
    16   11   10 1    
    17   12   10 1    
    18   26   10 1    
    19   31   11 1    
    20   13   12 1    
    21   14   12 1    
    22   27   12 1    
    23   15   13 1    
    24   16   13 1    
    25   28   13 1    
    26   32   14 1    
    27   17   16 1    
    28   29   16 1    
    29   30   16 1    
    30   18   17 1    
    31   19   18 ar   
    32   20   18 ar   
    33   21   18 ar   
@<TRIPOS>SUBSTRUCTURE
     1 U5P456      1 GROUP   
@<TRIPOS>SET

