#    Name: 2plm_SIB_1_INTS_M
#    Modification time : Mon Mar 24 19:13:59 2014

@<TRIPOS>MOLECULE
2plm_SIB_1_INTS_M
   68     0    12     0     0
SMALL
NO_CHARGES


@<TRIPOS>ATOM
      1 CA         48.0505   26.8335   -1.6855 C.3       4 GLC5        0.0000 
      2 CA         49.4150   28.5720   -1.8830 C.3      12 GLL5        0.0000 
      3 CA         46.6860   25.0950   -1.4880 C.3       8 GLP5        0.0000 
      4 CA         50.8165   31.0920   -3.6945 C.3       4 GLC5        0.0000 
      5 CA         49.6120   29.3790   -3.1750 C.3      12 GLL5        0.0000 
      6 CA         52.0210   32.8050   -4.2140 C.3       8 GLP5        0.0000 
      7 CA         47.8820   32.2975   -3.5300 C.3       4 GLC5        0.0000 
      8 CA         48.3790   30.2170   -3.4930 C.3      12 GLL5        0.0000 
      9 CA         47.3850   34.3780   -3.5670 C.3       8 GLP5        0.0000 
     10 CA         45.7045   27.7910   -4.4165 C.3       4 GLC5        0.0000 
     11 CA         46.9360   29.1470   -3.6690 C.3      12 GLL5        0.0000 
     12 CA         44.4730   26.4350   -5.1640 C.3       8 GLP5        0.0000 
     13 NZ         52.7640   27.6820   -1.1760 N.4       3 LYC4        0.0000 
     14 NZ         51.3460   27.9080   -0.6930 N.4      11 LYL4        0.0000 
     15 NZ         54.3630   27.5280   -2.9690 N.4       7 LYP4        0.0000 
     16 N          52.7640   27.6820   -1.1760 N.am      2 SEC2        0.0000 
     17 N          51.3460   27.9080   -0.6930 N.am     10 SEL2        0.0000 
     18 N          54.1820   27.4560   -1.6590 N.am      6 SEP2        0.0000 
     19 NZ         50.5305   26.2560   -3.9120 N.4       3 LYC4        0.0000 
     20 NZ         50.9560   26.7840   -2.5500 N.4      11 LYL4        0.0000 
     21 NZ         50.7650   24.6050   -5.5260 N.4       7 LYP4        0.0000 
     22 NZ         52.5690   27.1200   -2.1045 N.4       3 LYC4        0.0000 
     23 N          50.5305   26.2560   -3.9120 N.am      2 SEC2        0.0000 
     24 N          50.9560   26.7840   -2.5500 N.am     10 SEL2        0.0000 
     25 N          50.1050   25.7280   -5.2740 N.am      6 SEP2        0.0000 
     26 N          52.1380   27.1070   -3.1695 N.am      2 SEC2        0.0000 
     27 N          53.3200   27.4300   -3.7890 N.am      6 SEP2        0.0000 
     28 N          52.5690   27.1200   -2.1045 N.am      2 SEC2        0.0000 
     29 CA         45.3515   31.3130   -5.3685 C.3       4 GLC5        0.0000 
     30 CA         45.6080   30.3680   -3.6780 C.3      12 GLL5        0.0000 
     31 CA         45.0950   32.2580   -7.0590 C.3       8 GLP5        0.0000 
     32 CA         44.3745   28.7245   -3.0720 C.3       4 GLC5        0.0000 
     33 CA         43.1410   27.0810   -2.4660 C.3       8 GLP5        0.0000 
     34 O          46.2965   29.4365    0.8105 O.2       1 ALC1        0.0000 
     35 O          46.4540   30.2320   -0.2730 O.2       9 ALL1        0.0000 
     36 O          46.1390   28.6410    1.8940 O.2       5 ALP1        0.0000 
     37 CA         42.3455   30.3840    0.0245 C.3       4 GLC5        0.0000 
     38 CA         44.1170   31.0510   -0.5580 C.3      12 GLL5        0.0000 
     39 CA         40.5740   29.7170    0.6070 C.3       8 GLP5        0.0000 
     40 O          45.0940   29.7960    1.3770 O.2       1 ALC1        0.0000 
     41 O          44.0490   30.9510    0.8600 O.2       9 ALL1        0.0000 
     42 O          44.0030   29.6570    1.2795 O.2       1 ALC1        0.0000 
     43 O          43.9570   28.3630    1.6990 O.2       5 ALP1        0.0000 
     44 CA         45.2960   33.1800    0.8390 C.3       4 GLC5        0.0000 
     45 CA         44.3720   32.4750   -1.0700 C.3      12 GLL5        0.0000 
     46 CA         46.2200   33.8850    2.7480 C.3       8 GLP5        0.0000 
     47 CA         45.8785   33.4265   -2.3185 C.3       4 GLC5        0.0000 
     48 CA         41.0105   33.4345   -2.0105 C.3       4 GLC5        0.0000 
     49 CA         41.8860   35.1350   -0.8670 C.3      12 GLL5        0.0000 
     50 CA         40.1350   31.7340   -3.1540 C.3       8 GLP5        0.0000 
     51 N          40.4865   36.6825   -2.1620 N.am      2 SEC2        0.0000 
     52 N          40.3590   36.9810   -0.7280 N.am     10 SEL2        0.0000 
     53 N          40.6140   36.3840   -3.5960 N.am      6 SEP2        0.0000 
     54 O          42.8180   38.5710   -1.9510 O.2       1 ALC1        0.0000 
     55 O          42.6330   37.3670   -1.2910 O.2       9 ALL1        0.0000 
     56 O          43.0030   39.7750   -2.6110 O.2       5 ALP1        0.0000 
     57 O          41.8200   38.6235   -1.4825 O.2       1 ALC1        0.0000 
     58 O          41.0070   39.8800   -1.6740 O.2       5 ALP1        0.0000 
     59 N          45.5245   35.4990   -2.1045 N.am      2 SEC2        0.0000 
     60 N          44.1740   35.6160   -1.4280 N.am     10 SEL2        0.0000 
     61 N          46.8750   35.3820   -2.7810 N.am      6 SEP2        0.0000 
     62 CA         48.5297   29.4265   -5.2130 C.3       4 GLC5        0.0000 
     63 CA         48.0640   29.0550   -7.0920 C.3       8 GLP5        0.0000 
     64 CA         47.1680   29.4062   -5.3827 C.3       4 GLC5        0.0000 
     65 CA         46.5127   32.5752   -3.3007 C.3       4 GLC5        0.0000 
     66 CA         43.8687   28.9435   -0.9660 C.3       4 GLC5        0.0000 
     67 CA         45.3320   30.3130   -1.1600 C.3      12 GLL5        0.0000 
     68 CA         43.0130   27.2050   -1.0730 C.3       8 GLP5        0.0000 
@<TRIPOS>BOND
@<TRIPOS>SUBSTRUCTURE
     1 ALC1       34 GROUP        1 X    ALC  0     ROOT ALC X 1
     2 SEC2       16 GROUP        1 X    SEC  0     **** SEC X 2
     3 LYC4       13 GROUP        1 X    LYC  0     **** LYC X 4
     4 GLC5        1 GROUP        1 X    GLC  0     **** GLC X 6
     5 ALP1       36 GROUP        1 Y    ALP  0     ROOT ALP Y 8
     6 SEP2       18 GROUP        1 Y    SEP  0     **** SEP Y 9
     7 LYP4       15 GROUP        1 Y    LYP  0     **** LYP Y 11
     8 GLP5        3 GROUP        1 Y    GLP  0     **** GLP Y 13
     9 ALL1       35 GROUP        1 Z    ALL  0     ROOT ALL Z 15
    10 SEL2       17 GROUP        1 Z    SEL  0     **** SEL Z 16
    11 LYL4       14 GROUP        1 Z    LYL  0     **** LYL Z 18
    12 GLL5        2 GROUP        1 Z    GLL  0     **** GLL Z 20
@<TRIPOS>SET

