#    Name: 2plm_SIB_1_ligand
#    Modification time : Mon Mar 24 19:13:59 2014

@<TRIPOS>MOLECULE
2plm_SIB_1_ligand
   45    47     1     0     0
SMALL
NO_CHARGES


@<TRIPOS>ATOM
      1 N          49.1900   29.4690   -0.7320 N.4       1 SIB408      0.0000 
      2 CA         49.4150   28.5720   -1.8830 C.3       1 SIB408      0.0000 
      3 CB         49.6120   29.3790   -3.1750 C.3       1 SIB408      0.0000 
      4 CG         48.3790   30.2170   -3.4930 C.3       1 SIB408      0.0000 
      5 SD         46.9360   29.1470   -3.6690 S.3       1 SIB408      0.0000 
      6 C          50.6430   27.7290   -1.6610 C.2       1 SIB408      0.0000 
      7 OXT        51.3460   27.9080   -0.6930 O.co2     1 SIB408      0.0000 
      8 O          50.9560   26.7840   -2.5500 O.co2     1 SIB408      0.0000 
      9 C5'        45.6080   30.3680   -3.6780 C.3       1 SIB408      0.0000 
     10 C4'        45.6730   31.1770   -2.3910 C.3       1 SIB408      0.0000 
     11 O4'        44.7270   32.2520   -2.4350 O.3       1 SIB408      0.0000 
     12 C3'        45.3320   30.3130   -1.1600 C.3       1 SIB408      0.0000 
     13 O3'        46.4540   30.2320   -0.2730 O.3       1 SIB408      0.0000 
     14 C2'        44.1170   31.0510   -0.5580 C.3       1 SIB408      0.0000 
     15 O2'        44.0490   30.9510    0.8600 O.3       1 SIB408      0.0000 
     16 C1'        44.3720   32.4750   -1.0700 C.3       1 SIB408      0.0000 
     17 N9         43.1940   33.3500   -0.9390 N.pl3     1 SIB408      0.0000 
     18 C8         41.9140   32.9960   -0.6220 C.2       1 SIB408      0.0000 
     19 N7         41.1530   34.0440   -0.5820 N.2       1 SIB408      0.0000 
     20 C5         41.8860   35.1350   -0.8670 C.2       1 SIB408      0.0000 
     21 C6         41.6160   36.5190   -0.9620 C.2       1 SIB408      0.0000 
     22 O6         40.3590   36.9810   -0.7280 O.2       1 SIB408      0.0000 
     23 N1         42.6330   37.3670   -1.2910 N.am      1 SIB408      0.0000 
     24 C2         43.8820   36.9190   -1.5200 C.2       1 SIB408      0.0000 
     25 N3         44.1740   35.6160   -1.4280 N.2       1 SIB408      0.0000 
     26 C4         43.2130   34.7050   -1.1080 C.2       1 SIB408      0.0000 
     27 H          48.5682   27.9208   -2.0241 H         1 SIB408      0.0000 
     28 H          49.8044   28.6904   -3.9971 H         1 SIB408      0.0000 
     29 H          50.4747   30.0338   -3.0558 H         1 SIB408      0.0000 
     30 H          48.4245   30.7015   -4.4369 H         1 SIB408      0.0000 
     31 H          48.0903   30.8672   -2.7046 H         1 SIB408      0.0000 
     32 H          44.7416   29.7662   -3.7606 H         1 SIB408      0.0000 
     33 H          45.8190   30.9322   -4.5479 H         1 SIB408      0.0000 
     34 H          46.6736   31.5529   -2.2609 H         1 SIB408      0.0000 
     35 H          44.9949   29.3701   -1.5221 H         1 SIB408      0.0000 
     36 H          43.2512   30.6832   -1.0721 H         1 SIB408      0.0000 
     37 H          45.2137   32.8591   -0.5265 H         1 SIB408      0.0000 
     38 H          41.6456   32.0623   -0.4541 H         1 SIB408      0.0000 
     39 H          42.4282   38.3959   -1.3657 H         1 SIB408      0.0000 
     40 H          44.6361   37.6053   -1.7745 H         1 SIB408      0.0000 
     41 H          49.6575   30.3454   -0.8472 H         1 SIB408      0.0000 
     42 H          48.2190   29.6697   -0.6018 H         1 SIB408      0.0000 
     43 H          49.5236   29.0688    0.1215 H         1 SIB408      0.0000 
     44 H          46.1568   29.6268    0.4655 H         1 SIB408      0.0000 
     45 H          44.0366   29.9693    1.0498 H         1 SIB408      0.0000 
@<TRIPOS>BOND
     1    2    1 1    
     2   41    1 1    
     3   42    1 1    
     4   43    1 1    
     5    3    2 1    
     6    6    2 1    
     7   27    2 1    
     8    4    3 1    
     9   28    3 1    
    10   29    3 1    
    11    5    4 1    
    12   30    4 1    
    13   31    4 1    
    14    9    5 1    
    15    7    6 ar   
    16    8    6 ar   
    17   10    9 1    
    18   32    9 1    
    19   33    9 1    
    20   11   10 1    
    21   12   10 1    
    22   34   10 1    
    23   16   11 1    
    24   13   12 1    
    25   14   12 1    
    26   35   12 1    
    27   44   13 1    
    28   15   14 1    
    29   16   14 1    
    30   36   14 1    
    31   45   15 1    
    32   17   16 1    
    33   37   16 1    
    34   18   17 1    
    35   26   17 1    
    36   19   18 2    
    37   38   18 1    
    38   20   19 1    
    39   21   20 1    
    40   26   20 2    
    41   22   21 2    
    42   23   21 am   
    43   24   23 1    
    44   39   23 1    
    45   25   24 2    
    46   40   24 1    
    47   26   25 1    
@<TRIPOS>SUBSTRUCTURE
     1 SIB408      1 GROUP   
@<TRIPOS>SET

