#    Name: 3qqk_X02_1_INTS_M
#    Modification time : Tue Mar 25 10:01:15 2014

@<TRIPOS>MOLECULE
3qqk_X02_1_INTS_M
   51     0     9     0     0
SMALL
NO_CHARGES


@<TRIPOS>ATOM
      1 CA         60.6875  153.4300  -47.4700 C.3       3 GLC5        0.0000 
      2 CA         62.6090  153.3670  -46.9750 C.3       9 GLL5        0.0000 
      3 CA         58.7660  153.4930  -47.9650 C.3       6 GLP5        0.0000 
      4 CA         61.9240  151.5580  -46.6090 C.3       3 GLC5        0.0000 
      5 CA         61.2390  149.7490  -46.2430 C.3       6 GLP5        0.0000 
      6 CA         62.9710  151.7215  -48.0570 C.3       3 GLC5        0.0000 
      7 CA         63.3330  150.0760  -49.1390 C.3       6 GLP5        0.0000 
      8 CA         64.4510  156.8830  -48.1475 C.3       3 GLC5        0.0000 
      9 CA         64.2770  155.2210  -47.1900 C.3       9 GLL5        0.0000 
     10 CA         64.6250  158.5450  -49.1050 C.3       6 GLP5        0.0000 
     11 O          63.2940  155.5555  -49.5025 O.2       1 ALC1        0.0000 
     12 O          64.3310  155.2730  -48.6750 O.2       7 ALL1        0.0000 
     13 O          62.2570  155.8380  -50.3300 O.2       4 ALP1        0.0000 
     14 N          64.5500  155.1395  -51.5515 N.am      2 SEC2        0.0000 
     15 N          65.5940  154.5220  -50.4520 N.am      8 SEL2        0.0000 
     16 N          63.5060  155.7570  -52.6510 N.am      5 SEP2        0.0000 
     17 CA         66.0230  155.3870  -52.1345 C.3       3 GLC5        0.0000 
     18 CA         66.6600  153.6400  -50.8810 C.3       9 GLL5        0.0000 
     19 CA         65.3860  157.1340  -53.3880 C.3       6 GLP5        0.0000 
     20 CA         66.4465  154.1505  -46.4380 C.3       3 GLC5        0.0000 
     21 CA         66.3090  153.3730  -48.3050 C.3       9 GLL5        0.0000 
     22 CA         66.5840  154.9280  -44.5710 C.3       6 GLP5        0.0000 
     23 CA         67.6010  154.7300  -49.3975 C.3       3 GLC5        0.0000 
     24 CA         68.8930  156.0870  -50.4900 C.3       6 GLP5        0.0000 
     25 CA         65.5080  152.1835  -49.6575 C.3       3 GLC5        0.0000 
     26 CA         64.7070  150.9940  -51.0100 C.3       6 GLP5        0.0000 
     27 O          67.0055  154.2760  -53.2375 O.2       1 ALC1        0.0000 
     28 O          67.0840  153.5300  -52.1310 O.2       7 ALL1        0.0000 
     29 O          66.9270  155.0220  -54.3440 O.2       4 ALP1        0.0000 
     30 CA         66.2385  150.7385  -49.4045 C.3       3 GLC5        0.0000 
     31 CA         67.7700  150.4830  -47.7990 C.3       9 GLL5        0.0000 
     32 CA         72.7495  150.5450  -47.5300 C.3       3 GLC5        0.0000 
     33 CA         70.5530  150.3500  -47.2110 C.3       9 GLL5        0.0000 
     34 CA         74.9460  150.7400  -47.8490 C.3       6 GLP5        0.0000 
     35 CA         65.0985  154.9310  -45.7712 C.3       3 GLC5        0.0000 
     36 CA         67.8975  154.6902  -50.4243 C.3       3 GLC5        0.0000 
     37 CA         67.1440  152.9470  -49.8360 C.3       9 GLL5        0.0000 
     38 CA         65.8045  152.1438  -50.6842 C.3       3 GLC5        0.0000 
     39 CA         69.8858  152.8505  -47.4483 C.3       3 GLC5        0.0000 
     40 CA         68.7100  151.1570  -48.6490 C.3       9 GLL5        0.0000 
     41 CA         70.3650  154.5810  -46.3970 C.3       6 GLP5        0.0000 
     42 CA         67.6210  149.5615  -49.8750 C.3       3 GLC5        0.0000 
     43 CA         67.0020  148.3030  -51.5260 C.3       6 GLP5        0.0000 
     44 CA         69.2760  148.9140  -48.4475 C.3       3 GLC5        0.0000 
     45 CA         70.3120  147.0080  -48.6710 C.3       6 GLP5        0.0000 
     46 CA         69.6155  148.3630  -47.5925 C.3       3 GLC5        0.0000 
     47 CA         68.2240  149.7510  -46.6610 C.3       9 GLL5        0.0000 
     48 CA         70.8582  151.4527  -45.9115 C.3       3 GLC5        0.0000 
     49 CA         69.6140  149.6850  -46.3670 C.3       9 GLL5        0.0000 
     50 CA         71.6330  152.8880  -45.0340 C.3       6 GLP5        0.0000 
     51 CA         70.3200  148.8623  -48.2258 C.3       3 GLC5        0.0000 
@<TRIPOS>BOND
@<TRIPOS>SUBSTRUCTURE
     1 ALC1       11 GROUP        1 X    ALC  0     ROOT ALC X 1
     2 SEC2       14 GROUP        1 X    SEC  0     **** SEC X 2
     3 GLC5        1 GROUP        1 X    GLC  0     **** GLC X 6
     4 ALP1       13 GROUP        1 Y    ALP  0     ROOT ALP Y 8
     5 SEP2       16 GROUP        1 Y    SEP  0     **** SEP Y 9
     6 GLP5        3 GROUP        1 Y    GLP  0     **** GLP Y 13
     7 ALL1       12 GROUP        1 Z    ALL  0     ROOT ALL Z 15
     8 SEL2       15 GROUP        1 Z    SEL  0     **** SEL Z 16
     9 GLL5        2 GROUP        1 Z    GLL  0     **** GLL Z 20
@<TRIPOS>SET

