#    Name: 3qqk_X02_1_ligand
#    Modification time : Tue Mar 25 10:01:15 2014

@<TRIPOS>MOLECULE
3qqk_X02_1_ligand
   29    30     1     0     0
SMALL
NO_CHARGES


@<TRIPOS>ATOM
      1 C1         62.6090  153.3670  -46.9750 C.2       1 X02497      0.0000 
      2 C2         62.9490  154.6470  -46.7530 C.2       1 X02497      0.0000 
      3 C3         64.2770  155.2210  -47.1900 C.3       1 X02497      0.0000 
      4 N4         64.3310  155.2730  -48.6750 N.pl3     1 X02497      0.0000 
      5 C5         65.2960  154.5150  -49.2260 C.2       1 X02497      0.0000 
      6 N6         65.5940  154.5220  -50.4520 N.2       1 X02497      0.0000 
      7 C7         66.6600  153.6400  -50.8810 C.2       1 X02497      0.0000 
      8 C8         67.1440  152.9470  -49.8360 C.2       1 X02497      0.0000 
      9 S9         66.3090  153.3730  -48.3050 S.3       1 X02497      0.0000 
     10 N10        67.0840  153.5300  -52.1310 N.pl3     1 X02497      0.0000 
     11 C11        68.2350  151.9300  -49.8750 C.2       1 X02497      0.0000 
     12 C12        68.7100  151.1570  -48.6490 C.ar      1 X02497      0.0000 
     13 C13        67.7700  150.4830  -47.7990 C.ar      1 X02497      0.0000 
     14 C14        68.2240  149.7510  -46.6610 C.ar      1 X02497      0.0000 
     15 C15        69.6140  149.6850  -46.3670 C.ar      1 X02497      0.0000 
     16 C16        70.5530  150.3500  -47.2110 C.ar      1 X02497      0.0000 
     17 C17        70.1030  151.0830  -48.3500 C.ar      1 X02497      0.0000 
     18 O18        68.7750  151.6840  -50.9510 O.2       1 X02497      0.0000 
     19 H          62.3274  155.3217  -46.2705 H         1 X02497      0.0000 
     20 H          65.0809  154.5927  -46.8075 H         1 X02497      0.0000 
     21 H          64.3868  156.2228  -46.7757 H         1 X02497      0.0000 
     22 H          63.6817  155.8379  -49.1513 H         1 X02497      0.0000 
     23 H          66.6246  154.1096  -52.8041 H         1 X02497      0.0000 
     24 H          67.8251  152.8773  -52.2884 H         1 X02497      0.0000 
     25 H          66.7766  150.5294  -48.0117 H         1 X02497      0.0000 
     26 H          67.5524  149.2777  -46.0622 H         1 X02497      0.0000 
     27 H          69.9404  149.1651  -45.5568 H         1 X02497      0.0000 
     28 H          71.5476  150.3015  -47.0000 H         1 X02497      0.0000 
     29 H          70.7768  151.5533  -48.9493 H         1 X02497      0.0000 
@<TRIPOS>BOND
     1    2    1 2    
     2    3    2 1    
     3   19    2 1    
     4    4    3 1    
     5   20    3 1    
     6   21    3 1    
     7    5    4 1    
     8   22    4 1    
     9    6    5 2    
    10    9    5 1    
    11    7    6 1    
    12    8    7 2    
    13   10    7 1    
    14    9    8 1    
    15   11    8 1    
    16   23   10 1    
    17   24   10 1    
    18   12   11 1    
    19   18   11 2    
    20   13   12 ar   
    21   17   12 ar   
    22   14   13 ar   
    23   25   13 1    
    24   15   14 ar   
    25   26   14 1    
    26   16   15 ar   
    27   27   15 1    
    28   17   16 ar   
    29   28   16 1    
    30   29   17 1    
@<TRIPOS>SUBSTRUCTURE
     1 X02497      1 GROUP   
@<TRIPOS>SET

