#    Name: 2whd_FAD_1_INTS_M
#    Modification time : Tue Mar 25 04:20:36 2014

@<TRIPOS>MOLECULE
2whd_FAD_1_INTS_M
  123     0     9     0     0
SMALL
NO_CHARGES


@<TRIPOS>ATOM
      1 N         -52.9475    3.1605   24.1450 N.am      2 SEC2        0.0000 
      2 N         -53.6760    2.4150   23.2710 N.am      8 SEL2        0.0000 
      3 N         -52.2190    3.9060   25.0190 N.am      5 SEP2        0.0000 
      4 N         -52.7465    4.1365   20.7780 N.am      2 SEC2        0.0000 
      5 N         -52.5410    2.7190   20.9850 N.am      8 SEL2        0.0000 
      6 N         -52.9520    5.5540   20.5710 N.am      5 SEP2        0.0000 
      7 N         -51.8710    3.0605   19.4860 N.am      2 SEC2        0.0000 
      8 N         -51.2010    3.4020   17.9870 N.am      5 SEP2        0.0000 
      9 CA        -53.0175   -0.7440   23.0345 C.3       3 GLC5        0.0000 
     10 CA        -51.3290   -0.1330   21.6920 C.3       9 GLL5        0.0000 
     11 CA        -54.7060   -1.3550   24.3770 C.3       6 GLP5        0.0000 
     12 CA        -50.9285   -1.1525   19.9375 C.3       3 GLC5        0.0000 
     13 CA        -50.5280   -2.1720   18.1830 C.3       6 GLP5        0.0000 
     14 CA        -51.7365    0.5375   19.8640 C.3       3 GLC5        0.0000 
     15 CA        -52.1440    1.2080   18.0360 C.3       6 GLP5        0.0000 
     16 CA        -50.5380   -3.0125   21.9860 C.3       3 GLC5        0.0000 
     17 CA        -50.4140   -0.8910   22.6340 C.3       9 GLL5        0.0000 
     18 CA        -50.6620   -5.1340   21.3380 C.3       6 GLP5        0.0000 
     19 CA        -51.3175   -2.5495   23.6575 C.3       3 GLC5        0.0000 
     20 CA        -52.2210   -4.2080   24.6810 C.3       6 GLP5        0.0000 
     21 N         -50.7010   -3.0715   22.6775 N.am      2 SEC2        0.0000 
     22 N         -49.7600   -2.0120   22.0180 N.am      8 SEL2        0.0000 
     23 N         -51.6420   -4.1310   23.3370 N.am      5 SEP2        0.0000 
     24 CA        -48.7530    1.6755   24.2690 C.3       3 GLC5        0.0000 
     25 CA        -49.3290   -0.0050   23.2160 C.3       9 GLL5        0.0000 
     26 CA        -48.1770    3.3560   25.3220 C.3       6 GLP5        0.0000 
     27 O         -45.8760   -0.1140   23.4695 O.2       1 ALC1        0.0000 
     28 O         -47.1600   -0.6650   23.8930 O.2       7 ALL1        0.0000 
     29 O         -44.5920    0.4370   23.0460 O.2       4 ALP1        0.0000 
     30 CA        -49.5295   -3.6025   21.8895 C.3       3 GLC5        0.0000 
     31 CA        -48.3970   -2.0710   22.4410 C.3       9 GLL5        0.0000 
     32 CA        -46.8570   -6.0590   18.8445 C.3       3 GLC5        0.0000 
     33 CA        -45.5410   -4.7510   19.5770 C.3       9 GLL5        0.0000 
     34 CA        -48.1730   -7.3670   18.1120 C.3       6 GLP5        0.0000 
     35 CA        -43.6195   -4.8485   20.2925 C.3       3 GLC5        0.0000 
     36 CA        -41.6980   -4.9460   21.0080 C.3       6 GLP5        0.0000 
     37 CA        -44.9855   -6.6775   18.9100 C.3       3 GLC5        0.0000 
     38 CA        -44.4300   -8.6040   18.2430 C.3       6 GLP5        0.0000 
     39 O         -43.4955   -5.5840   18.1755 O.2       1 ALC1        0.0000 
     40 O         -44.7810   -4.7170   18.4600 O.2       7 ALL1        0.0000 
     41 O         -42.2100   -6.4510   17.8910 O.2       4 ALP1        0.0000 
     42 N         -44.4625   -6.7765   20.2275 N.am      2 SEC2        0.0000 
     43 N         -45.6710   -5.9000   20.2780 N.am      8 SEL2        0.0000 
     44 N         -43.2540   -7.6530   20.1770 N.am      5 SEP2        0.0000 
     45 CA        -47.3035   -6.6430   19.7435 C.3       3 GLC5        0.0000 
     46 CA        -46.4340   -5.9190   21.3750 C.3       9 GLL5        0.0000 
     47 CA        -48.5480   -5.5265   21.3565 C.3       3 GLC5        0.0000 
     48 CA        -46.8670   -7.8670   21.7785 C.3       3 GLC5        0.0000 
     49 CA        -47.3000   -9.8150   22.1820 C.3       6 GLP5        0.0000 
     50 CA        -45.8460   -5.7040   23.1010 C.3       3 GLC5        0.0000 
     51 CA        -45.2580   -5.4890   24.8270 C.3       6 GLP5        0.0000 
     52 CA        -45.2690   -4.2310   21.9705 C.3       3 GLC5        0.0000 
     53 CA        -44.1040   -2.5430   22.5660 C.3       6 GLP5        0.0000 
     54 CA        -44.4790   -6.4095   21.8815 C.3       3 GLC5        0.0000 
     55 CA        -42.5240   -6.9000   22.3880 C.3       6 GLP5        0.0000 
     56 CA        -45.9040   -7.7100   20.2320 C.3       3 GLC5        0.0000 
     57 CA        -45.3740   -9.5010   19.0890 C.3       6 GLP5        0.0000 
     58 CA        -48.8315   -4.4015   21.2410 C.3       3 GLC5        0.0000 
     59 CA        -47.0010   -3.6690   21.1440 C.3       9 GLL5        0.0000 
     60 CA        -46.1295   -4.5790   22.9855 C.3       3 GLC5        0.0000 
     61 N         -60.2655    6.5945   23.4150 N.am      2 SEC2        0.0000 
     62 N         -59.6550    7.9140   24.1720 N.am      8 SEL2        0.0000 
     63 N         -60.8760    5.2750   22.6580 N.am      5 SEP2        0.0000 
     64 N         -61.3140    6.2390   23.4855 N.am      2 SEC2        0.0000 
     65 N         -61.7520    7.2030   24.3130 N.am      8 SEL2        0.0000 
     66 O         -62.4565    9.0335   26.2800 O.2       1 ALC1        0.0000 
     67 O         -61.1220    8.7780   25.7690 O.2       7 ALL1        0.0000 
     68 O         -63.7910    9.2890   26.7910 O.2       4 ALP1        0.0000 
     69 CA        -56.2815    9.7800   27.5370 C.3       3 GLC5        0.0000 
     70 CA        -56.7000   10.2860   25.5180 C.3       9 GLL5        0.0000 
     71 CA        -55.8630    9.2740   29.5560 C.3       6 GLP5        0.0000 
     72 CA        -53.4900   13.8610   25.3370 C.3       3 GLC5        0.0000 
     73 CA        -53.3450   11.9610   25.8930 C.3       9 GLL5        0.0000 
     74 CA        -53.6350   15.7610   24.7810 C.3       6 GLP5        0.0000 
     75 CA        -54.8680    6.1455   23.5435 C.3       3 GLC5        0.0000 
     76 CA        -56.9880    6.2780   23.1830 C.3       9 GLL5        0.0000 
     77 CA        -52.7480    6.0130   23.9040 C.3       6 GLP5        0.0000 
     78 CA        -58.9010    5.1440   23.2670 C.3       3 GLC5        0.0000 
     79 CA        -60.8140    4.0100   23.3510 C.3       6 GLP5        0.0000 
     80 O         -57.5925    5.2330   19.4050 O.2       1 ALC1        0.0000 
     81 O         -57.7170    6.0090   20.8870 O.2       7 ALL1        0.0000 
     82 O         -57.4680    4.4570   17.9230 O.2       4 ALP1        0.0000 
     83 O         -56.7750    5.9395   19.6345 O.2       1 ALC1        0.0000 
     84 O         -55.8330    5.8700   18.3820 O.2       4 ALP1        0.0000 
     85 CA        -57.6415    2.4925   23.2845 C.3       3 GLC5        0.0000 
     86 CA        -56.9070    4.0550   22.0570 C.3       9 GLL5        0.0000 
     87 CA        -58.3760    0.9300   24.5120 C.3       6 GLP5        0.0000 
     88 CA        -58.8605    4.0325   22.7040 C.3       3 GLC5        0.0000 
     89 CA        -56.7190    1.8240   22.5725 C.3       3 GLC5        0.0000 
     90 CA        -56.4430    3.2290   20.8550 C.3       9 GLL5        0.0000 
     91 CA        -56.9950    0.4190   24.2900 C.3       6 GLP5        0.0000 
     92 CA        -55.8500    3.5435   19.0645 C.3       3 GLC5        0.0000 
     93 CA        -55.2570    3.8580   17.2740 C.3       6 GLP5        0.0000 
     94 N         -56.0955    1.4040   18.0300 N.am      2 SEC2        0.0000 
     95 N         -55.6240    1.0030   19.2440 N.am      8 SEL2        0.0000 
     96 N         -56.5670    1.8050   16.8160 N.am      5 SEP2        0.0000 
     97 N         -57.2460   -1.4085   21.7030 N.am      2 SEC2        0.0000 
     98 N         -56.1550   -0.5140   21.2650 N.am      8 SEL2        0.0000 
     99 N         -58.3370   -2.3030   22.1410 N.am      5 SEP2        0.0000 
    100 CA        -50.8696    0.6893   24.1367 C.3       3 GLC5        0.0000 
    101 CA        -51.6390    1.6370   25.5840 C.3       6 GLP5        0.0000 
    102 CA        -46.1617   -1.9498   22.5885 C.3       3 GLC5        0.0000 
    103 CA        -48.0420   -0.6420   22.7810 C.3       9 GLL5        0.0000 
    104 CA        -45.2729   -3.2348   21.5145 C.3       3 GLC5        0.0000 
    105 CA        -46.2240   -3.6170   19.9870 C.3       9 GLL5        0.0000 
    106 CA        -47.6384   -3.9108   19.0045 C.3       3 GLC5        0.0000 
    107 CA        -48.8350   -3.8950   17.5460 C.3       6 GLP5        0.0000 
    108 CA        -57.0220    7.9778   25.8182 C.3       3 GLC5        0.0000 
    109 CA        -56.4680    9.4130   24.4510 C.3       9 GLL5        0.0000 
    110 CA        -57.4600    6.1060   26.6520 C.3       6 GLP5        0.0000 
    111 CA        -55.2515   13.1855   25.1910 C.3       3 GLC5        0.0000 
    112 CA        -55.6880   11.1120   25.9870 C.3       9 GLL5        0.0000 
    113 CA        -55.4420   15.2830   24.6900 C.3       6 GLP5        0.0000 
    114 CA        -54.5495   10.9887   27.6782 C.3       3 GLC5        0.0000 
    115 CA        -54.8960   10.4530   29.5640 C.3       6 GLP5        0.0000 
    116 CA        -54.9500   13.1163   26.2132 C.3       3 GLC5        0.0000 
    117 CA        -55.6970   14.7080   26.6340 C.3       6 GLP5        0.0000 
    118 CA        -53.5579    7.9026   23.9240 C.3       3 GLC5        0.0000 
    119 CA        -54.1960   10.2080   24.3420 C.3       9 GLL5        0.0000 
    120 CA        -57.2805    6.5595   24.8413 C.3       3 GLC5        0.0000 
    121 CA        -57.2140    7.7480   22.8780 C.3       9 GLL5        0.0000 
    122 CA        -58.1765    2.5140   20.7170 C.3       3 GLC5        0.0000 
    123 CA        -59.6780    1.3860   19.9780 C.3       6 GLP5        0.0000 
@<TRIPOS>BOND
@<TRIPOS>SUBSTRUCTURE
     1 ALC1       27 GROUP        1 X    ALC  0     ROOT ALC X 1
     2 SEC2        1 GROUP        1 X    SEC  0     **** SEC X 2
     3 GLC5        9 GROUP        1 X    GLC  0     **** GLC X 6
     4 ALP1       29 GROUP        1 Y    ALP  0     ROOT ALP Y 8
     5 SEP2        3 GROUP        1 Y    SEP  0     **** SEP Y 9
     6 GLP5       11 GROUP        1 Y    GLP  0     **** GLP Y 13
     7 ALL1       28 GROUP        1 Z    ALL  0     ROOT ALL Z 15
     8 SEL2        2 GROUP        1 Z    SEL  0     **** SEL Z 16
     9 GLL5       10 GROUP        1 Z    GLL  0     **** GLL Z 20
@<TRIPOS>SET

