#    Name: 2whd_FAD_1_ligand
#    Modification time : Tue Mar 25 04:20:36 2014

@<TRIPOS>MOLECULE
2whd_FAD_1_ligand
   84    89     1     0     0
SMALL
NO_CHARGES


@<TRIPOS>ATOM
      1 PA        -53.1460    1.8020   21.9870 P.3       1 FAD400      0.0000 
      2 O1A       -53.6760    2.4150   23.2710 O.co2     1 FAD400      0.0000 
      3 O2A       -52.5410    2.7190   20.9850 O.co2     1 FAD400      0.0000 
      4 O5B       -52.1010    0.7070   22.5130 O.3       1 FAD400      0.0000 
      5 C5B       -51.3290   -0.1330   21.6920 C.3       1 FAD400      0.0000 
      6 C4B       -50.4140   -0.8910   22.6340 C.3       1 FAD400      0.0000 
      7 O4B       -49.7600   -2.0120   22.0180 O.3       1 FAD400      0.0000 
      8 C3B       -49.3290   -0.0050   23.2160 C.3       1 FAD400      0.0000 
      9 O3B       -49.3460   -0.2350   24.6170 O.3       1 FAD400      0.0000 
     10 C2B       -48.0420   -0.6420   22.7810 C.3       1 FAD400      0.0000 
     11 O2B       -47.1600   -0.6650   23.8930 O.3       1 FAD400      0.0000 
     12 C1B       -48.3970   -2.0710   22.4410 C.3       1 FAD400      0.0000 
     13 N9A       -47.5200   -2.4580   21.3450 N.pl3     1 FAD400      0.0000 
     14 C8A       -47.1020   -1.6340   20.3610 C.2       1 FAD400      0.0000 
     15 N7A       -46.3130   -2.3580   19.5230 N.2       1 FAD400      0.0000 
     16 C5A       -46.2240   -3.6170   19.9870 C.ar      1 FAD400      0.0000 
     17 C6A       -45.5410   -4.7510   19.5770 C.ar      1 FAD400      0.0000 
     18 N6A       -44.7810   -4.7170   18.4600 N.pl3     1 FAD400      0.0000 
     19 N1A       -45.6710   -5.9000   20.2780 N.ar      1 FAD400      0.0000 
     20 C2A       -46.4340   -5.9190   21.3750 C.ar      1 FAD400      0.0000 
     21 N3A       -47.0860   -4.8210   21.8190 N.ar      1 FAD400      0.0000 
     22 C4A       -47.0010   -3.6690   21.1440 C.ar      1 FAD400      0.0000 
     23 N1        -59.6550    7.9140   24.1720 N.2       1 FAD400      0.0000 
     24 C2        -60.8630    7.9530   24.7450 C.2       1 FAD400      0.0000 
     25 O2        -61.7520    7.2030   24.3130 O.2       1 FAD400      0.0000 
     26 N3        -61.1220    8.7780   25.7690 N.am      1 FAD400      0.0000 
     27 C4        -60.1720    9.5940   26.2580 C.2       1 FAD400      0.0000 
     28 O4        -60.4490   10.3620   27.2260 O.2       1 FAD400      0.0000 
     29 C4X       -58.9110    9.5520   25.6630 C.2       1 FAD400      0.0000 
     30 N5        -57.9120   10.3380   26.1080 N.2       1 FAD400      0.0000 
     31 C5X       -56.7000   10.2860   25.5180 C.ar      1 FAD400      0.0000 
     32 C6        -55.6880   11.1120   25.9870 C.ar      1 FAD400      0.0000 
     33 C7        -54.4340   11.0640   25.3970 C.ar      1 FAD400      0.0000 
     34 C7M       -53.3450   11.9610   25.8930 C.3       1 FAD400      0.0000 
     35 C8        -54.1960   10.2080   24.3420 C.ar      1 FAD400      0.0000 
     36 C8M       -52.8350   10.2030   23.7040 C.3       1 FAD400      0.0000 
     37 C9        -55.2200    9.3790   23.8650 C.ar      1 FAD400      0.0000 
     38 C9A       -56.4680    9.4130   24.4510 C.ar      1 FAD400      0.0000 
     39 N10       -57.4460    8.6190   24.0200 N.pl3     1 FAD400      0.0000 
     40 C10       -58.6640    8.7000   24.5940 C.2       1 FAD400      0.0000 
     41 C1'       -57.2140    7.7480   22.8780 C.3       1 FAD400      0.0000 
     42 C2'       -56.9880    6.2780   23.1830 C.3       1 FAD400      0.0000 
     43 O2'       -55.7840    6.2150   23.9030 O.3       1 FAD400      0.0000 
     44 C3'       -56.7750    5.5460   21.8630 C.3       1 FAD400      0.0000 
     45 O3'       -57.7170    6.0090   20.8870 O.3       1 FAD400      0.0000 
     46 C4'       -56.9070    4.0550   22.0570 C.3       1 FAD400      0.0000 
     47 O4'       -56.0600    3.7350   23.1560 O.3       1 FAD400      0.0000 
     48 C5'       -56.4430    3.2290   20.8550 C.3       1 FAD400      0.0000 
     49 O5'       -56.2210    1.9750   21.4580 O.3       1 FAD400      0.0000 
     50 P         -55.5690    0.7550   20.7090 P.3       1 FAD400      0.0000 
     51 O1P       -55.6240    1.0030   19.2440 O.co2     1 FAD400      0.0000 
     52 O2P       -56.1550   -0.5140   21.2650 O.co2     1 FAD400      0.0000 
     53 O3P       -54.0880    0.6590   21.3540 O.3       1 FAD400      0.0000 
     54 H         -50.7103    0.4198   20.9955 H         1 FAD400      0.0000 
     55 H         -51.9300   -0.8558   21.1537 H         1 FAD400      0.0000 
     56 H         -51.0175   -1.2465   23.4856 H         1 FAD400      0.0000 
     57 H         -49.4058    0.9448   22.9243 H         1 FAD400      0.0000 
     58 H         -47.6609   -0.1601   21.9444 H         1 FAD400      0.0000 
     59 H         -48.2587   -2.6629   23.2912 H         1 FAD400      0.0000 
     60 H         -47.3190   -0.7048   20.2650 H         1 FAD400      0.0000 
     61 H         -43.9974   -5.3380   18.4419 H         1 FAD400      0.0000 
     62 H         -45.0697   -4.0739   17.7508 H         1 FAD400      0.0000 
     63 H         -46.5357   -6.8215   21.9197 H         1 FAD400      0.0000 
     64 H         -62.0817    8.7886   26.1975 H         1 FAD400      0.0000 
     65 H         -55.8676   11.7554   26.7672 H         1 FAD400      0.0000 
     66 H         -55.0306    8.7467   23.0751 H         1 FAD400      0.0000 
     67 H         -56.3309    8.1124   22.2881 H         1 FAD400      0.0000 
     68 H         -58.0734    7.8176   22.1588 H         1 FAD400      0.0000 
     69 H         -57.8054    5.8864   23.6879 H         1 FAD400      0.0000 
     70 H         -55.7561    5.7546   21.5338 H         1 FAD400      0.0000 
     71 H         -57.9225    3.8130   22.2830 H         1 FAD400      0.0000 
     72 H         -55.5531    3.6723   20.4739 H         1 FAD400      0.0000 
     73 H         -57.2321    3.2146   20.1402 H         1 FAD400      0.0000 
     74 H         -52.4933   11.8262   25.3866 H         1 FAD400      0.0000 
     75 H         -53.5895   12.9265   25.8035 H         1 FAD400      0.0000 
     76 H         -53.1409   11.7986   26.8584 H         1 FAD400      0.0000 
     77 H         -52.1188    9.9612   24.3587 H         1 FAD400      0.0000 
     78 H         -52.7795    9.5454   22.9526 H         1 FAD400      0.0000 
     79 H         -52.5979   11.0987   23.3278 H         1 FAD400      0.0000 
     80 H         -48.4217   -0.5451   24.8395 H         1 FAD400      0.0000 
     81 H         -46.3110   -0.2560   23.5583 H         1 FAD400      0.0000 
     82 H         -55.5126    5.2531   23.8695 H         1 FAD400      0.0000 
     83 H         -57.2250    5.9768   20.0170 H         1 FAD400      0.0000 
     84 H         -55.2979    3.2262   22.7557 H         1 FAD400      0.0000 
@<TRIPOS>BOND
     1    2    1 ar   
     2    3    1 ar   
     3    4    1 1    
     4   53    1 1    
     5    5    4 1    
     6    6    5 1    
     7   54    5 1    
     8   55    5 1    
     9    7    6 1    
    10    8    6 1    
    11   56    6 1    
    12   12    7 1    
    13    9    8 1    
    14   10    8 1    
    15   57    8 1    
    16   80    9 1    
    17   11   10 1    
    18   12   10 1    
    19   58   10 1    
    20   81   11 1    
    21   13   12 1    
    22   59   12 1    
    23   14   13 1    
    24   22   13 1    
    25   15   14 2    
    26   60   14 1    
    27   16   15 1    
    28   17   16 ar   
    29   22   16 ar   
    30   18   17 1    
    31   19   17 ar   
    32   61   18 1    
    33   62   18 1    
    34   20   19 ar   
    35   21   20 ar   
    36   63   20 1    
    37   22   21 ar   
    38   24   23 1    
    39   40   23 2    
    40   25   24 2    
    41   26   24 am   
    42   27   26 am   
    43   64   26 1    
    44   28   27 2    
    45   29   27 1    
    46   30   29 2    
    47   40   29 1    
    48   31   30 1    
    49   32   31 ar   
    50   38   31 ar   
    51   33   32 ar   
    52   65   32 1    
    53   34   33 1    
    54   35   33 ar   
    55   74   34 1    
    56   75   34 1    
    57   76   34 1    
    58   36   35 1    
    59   37   35 ar   
    60   77   36 1    
    61   78   36 1    
    62   79   36 1    
    63   38   37 ar   
    64   66   37 1    
    65   39   38 1    
    66   40   39 1    
    67   41   39 1    
    68   42   41 1    
    69   67   41 1    
    70   68   41 1    
    71   43   42 1    
    72   44   42 1    
    73   69   42 1    
    74   82   43 1    
    75   45   44 1    
    76   46   44 1    
    77   70   44 1    
    78   83   45 1    
    79   47   46 1    
    80   48   46 1    
    81   71   46 1    
    82   84   47 1    
    83   49   48 1    
    84   72   48 1    
    85   73   48 1    
    86   50   49 1    
    87   51   50 ar   
    88   52   50 ar   
    89   53   50 1    
@<TRIPOS>SUBSTRUCTURE
     1 FAD400      1 GROUP   
@<TRIPOS>SET

