#    Name: 1pag_FMP_1_INTS_M
#    Modification time : Mon Mar 24 21:14:04 2014

@<TRIPOS>MOLECULE
1pag_FMP_1_INTS_M
   41     0     9     0     0
SMALL
NO_CHARGES


@<TRIPOS>ATOM
      1 N           5.3835   26.8255   29.3345 N.am      2 SEC2        0.0000 
      2 N           5.0060   25.3030   28.6450 N.am      8 SEL2        0.0000 
      3 N           5.7610   28.3480   30.0240 N.am      5 SEP2        0.0000 
      4 CA          6.2525   24.7590   22.4130 C.3       3 GLC5        0.0000 
      5 CA          7.3750   23.6130   23.3720 C.3       9 GLL5        0.0000 
      6 CA          5.1300   25.9050   21.4540 C.3       6 GLP5        0.0000 
      7 O          10.1885   27.3790   23.4915 O.2       1 ALC1        0.0000 
      8 O          10.0470   26.0340   23.3120 O.2       7 ALL1        0.0000 
      9 O          10.3300   28.7240   23.6710 O.2       4 ALP1        0.0000 
     10 CA         13.1955   23.5490   22.2030 C.3       3 GLC5        0.0000 
     11 CA         11.8520   25.0970   21.6940 C.3       9 GLL5        0.0000 
     12 CA         14.5390   22.0010   22.7120 C.3       6 GLP5        0.0000 
     13 CA         13.3580   25.2805   20.0460 C.3       3 GLC5        0.0000 
     14 CA         14.8640   25.4640   18.3980 C.3       6 GLP5        0.0000 
     15 CA         11.4800   26.5575   20.4055 C.3       3 GLC5        0.0000 
     16 CA         11.1080   28.0180   19.1170 C.3       6 GLP5        0.0000 
     17 O          14.3730   25.9940   21.4540 O.2       1 ALC1        0.0000 
     18 O          12.7860   25.9930   21.8140 O.2       7 ALL1        0.0000 
     19 O          15.9600   25.9950   21.0940 O.2       4 ALP1        0.0000 
     20 N           9.3725   22.0505   20.8250 N.am      2 SEC2        0.0000 
     21 N           9.9740   23.1250   21.4540 N.am      8 SEL2        0.0000 
     22 N           8.7710   20.9760   20.1960 N.am      5 SEP2        0.0000 
     23 CA         12.7350   22.4085   21.0345 C.3       3 GLC5        0.0000 
     24 CA         11.1240   23.1710   20.7950 C.3       9 GLL5        0.0000 
     25 CA         14.3460   21.6460   21.2740 C.3       6 GLP5        0.0000 
     26 CA         10.1310   24.3625   19.5965 C.3       3 GLC5        0.0000 
     27 CA          9.1380   25.5540   18.3980 C.3       6 GLP5        0.0000 
     28 CA         10.9150   22.3470   18.8475 C.3       3 GLC5        0.0000 
     29 CA         10.7060   21.5230   16.9000 C.3       6 GLP5        0.0000 
     30 N          13.5105   23.8225   20.4055 N.am      2 SEC2        0.0000 
     31 N          12.0830   24.0680   20.8550 N.am      8 SEL2        0.0000 
     32 N          14.9380   23.5770   19.9560 N.am      5 SEP2        0.0000 
     33 CA          3.6770   22.4535   25.2745 C.3       3 GLC5        0.0000 
     34 CA          5.9320   22.9370   24.8700 C.3       9 GLL5        0.0000 
     35 CA          1.5790   21.9050   24.9300 C.3       6 GLP5        0.0000 
     36 CA          9.3240   22.4670   24.3908 C.3       3 GLC5        0.0000 
     37 CA         11.0650   21.9940   25.1700 C.3       6 GLP5        0.0000 
     38 CA         12.2245   26.7300   23.0123 C.3       3 GLC5        0.0000 
     39 CA         10.6100   25.1850   22.4130 C.3       9 GLL5        0.0000 
     40 CA         13.2180   28.3190   23.9710 C.3       6 GLP5        0.0000 
     41 CA          9.6507   25.1118   20.3905 C.3       3 GLC5        0.0000 
@<TRIPOS>BOND
@<TRIPOS>SUBSTRUCTURE
     1 ALC1        7 GROUP        1 X    ALC  0     ROOT ALC X 1
     2 SEC2        1 GROUP        1 X    SEC  0     **** SEC X 2
     3 GLC5        4 GROUP        1 X    GLC  0     **** GLC X 6
     4 ALP1        9 GROUP        1 Y    ALP  0     ROOT ALP Y 8
     5 SEP2        3 GROUP        1 Y    SEP  0     **** SEP Y 9
     6 GLP5        6 GROUP        1 Y    GLP  0     **** GLP Y 13
     7 ALL1        8 GROUP        1 Z    ALL  0     ROOT ALL Z 15
     8 SEL2        2 GROUP        1 Z    SEL  0     **** SEL Z 16
     9 GLL5        5 GROUP        1 Z    GLL  0     **** GLL Z 20
@<TRIPOS>SET

