#    Name: 1pag_FMP_1_ligand
#    Modification time : Mon Mar 24 21:14:04 2014

@<TRIPOS>MOLECULE
1pag_FMP_1_ligand
   35    37     1     0     0
SMALL
NO_CHARGES


@<TRIPOS>ATOM
      1 P           5.9040   24.0920   28.7650 P.3       1 FMP263      0.0000 
      2 O1P         5.3600   22.8360   29.3050 O.co2     1 FMP263      0.0000 
      3 O2P         5.0060   25.3030   28.6450 O.co2     1 FMP263      0.0000 
      4 O3P         7.1260   24.6280   29.7840 O.co2     1 FMP263      0.0000 
      5 O5'         6.5240   23.6930   27.3270 O.3       1 FMP263      0.0000 
      6 C5'         5.6180   23.0670   26.3680 C.3       1 FMP263      0.0000 
      7 C4'         5.9320   22.9370   24.8700 C.3       1 FMP263      0.0000 
      8 O4'         6.5940   24.1040   24.3900 O.3       1 FMP263      0.0000 
      9 C3'         6.5400   21.6820   24.4500 C.3       1 FMP263      0.0000 
     10 O3'         5.8640   21.1470   23.3120 O.3       1 FMP263      0.0000 
     11 C2'         7.7910   22.2670   23.8510 C.3       1 FMP263      0.0000 
     12 O2'         8.3300   21.4170   22.8920 O.3       1 FMP263      0.0000 
     13 C1'         7.3750   23.6130   23.3720 C.3       1 FMP263      0.0000 
     14 C9          8.6830   24.4660   23.1320 C.2       1 FMP263      0.0000 
     15 N8          8.9060   25.6300   23.7910 N.2       1 FMP263      0.0000 
     16 N7         10.0470   26.0340   23.3120 N.pl3     1 FMP263      0.0000 
     17 C6         11.8520   25.0970   21.6940 C.ar      1 FMP263      0.0000 
     18 N6         12.7860   25.9930   21.8140 N.pl3     1 FMP263      0.0000 
     19 C5         10.6100   25.1850   22.4130 C.ar      1 FMP263      0.0000 
     20 C4          9.7170   24.1540   22.3530 C.ar      1 FMP263      0.0000 
     21 N3          9.9740   23.1250   21.4540 N.ar      1 FMP263      0.0000 
     22 C2         11.1240   23.1710   20.7950 C.ar      1 FMP263      0.0000 
     23 N1         12.0830   24.0680   20.8550 N.ar      1 FMP263      0.0000 
     24 H           4.5854   23.5749   26.4381 H         1 FMP263      0.0000 
     25 H           5.3544   22.0064   26.7354 H         1 FMP263      0.0000 
     26 H           4.8738   22.9582   24.3798 H         1 FMP263      0.0000 
     27 H           6.7638   21.0615   25.1893 H         1 FMP263      0.0000 
     28 H           8.4775   22.4233   24.7005 H         1 FMP263      0.0000 
     29 H           6.8725   23.5088   22.4468 H         1 FMP263      0.0000 
     30 H          10.5003   26.9012   23.5684 H         1 FMP263      0.0000 
     31 H          13.7191   25.6830   21.6321 H         1 FMP263      0.0000 
     32 H          12.4851   26.9096   22.0772 H         1 FMP263      0.0000 
     33 H          11.2986   22.3252   20.0896 H         1 FMP263      0.0000 
     34 H           6.5511   21.1335   22.5856 H         1 FMP263      0.0000 
     35 H           8.4983   21.9986   22.0961 H         1 FMP263      0.0000 
@<TRIPOS>BOND
     1    2    1 ar   
     2    3    1 ar   
     3    4    1 ar   
     4    5    1 1    
     5    6    5 1    
     6    7    6 1    
     7   24    6 1    
     8   25    6 1    
     9    8    7 1    
    10    9    7 1    
    11   26    7 1    
    12   13    8 1    
    13   10    9 1    
    14   11    9 1    
    15   27    9 1    
    16   34   10 1    
    17   12   11 1    
    18   13   11 1    
    19   28   11 1    
    20   35   12 1    
    21   14   13 1    
    22   29   13 1    
    23   15   14 2    
    24   20   14 1    
    25   16   15 1    
    26   19   16 1    
    27   30   16 1    
    28   18   17 1    
    29   19   17 ar   
    30   23   17 ar   
    31   31   18 1    
    32   32   18 1    
    33   20   19 ar   
    34   21   20 ar   
    35   22   21 ar   
    36   23   22 ar   
    37   33   22 1    
@<TRIPOS>SUBSTRUCTURE
     1 FMP263      1 GROUP   
@<TRIPOS>SET

