#    Name: 2QBP_1_CAVITY_N1_ALL.mol2
#    Modification time : Tue Mar 11 07:13:19 2014

@<TRIPOS>MOLECULE
2QBP_1_CAVITY_N1_ALL.mol2
   68     0     6     0     0
SMALL
NO_CHARGES


@<TRIPOS>ATOM
      1 OD1        52.0231    8.0849    1.9369 O.3       2 ASP3        0.0000 
      2 CA         53.9807    4.6728    4.5873 C.3       5 GLY6        0.0000 
      3 CA         52.9812    5.4617    3.7945 C.3       5 GLY6        0.0000 
      4 O          51.9817    6.2506    3.0016 O.2       1 ALA2        0.0000 
      5 DU         50.9822    7.0396    2.2088 H         6 CUB7        0.0000 
      6 DU         49.9827    7.8285    1.4160 H         6 CUB7        0.0000 
      7 N          53.9394    2.8385    5.6520 N.2       1 ALA2        0.0000 
      8 N          52.9399    3.6274    4.8592 N.2       1 ALA2        0.0000 
      9 DU         49.9414    5.9942    2.4807 H         6 CUB7        0.0000 
     10 DU         48.9419    6.7831    1.6879 H         6 CUB7        0.0000 
     11 N          53.8981    1.0042    6.7168 N.2       1 ALA2        0.0000 
     12 N          52.8986    1.7931    5.9240 N.2       1 ALA2        0.0000 
     13 DU         51.8991    2.5821    5.1311 H         6 CUB7        0.0000 
     14 DU         49.9001    4.1599    3.5455 H         6 CUB7        0.0000 
     15 N          48.9006    4.9489    2.7527 N.2       1 ALA2        0.0000 
     16 CA         52.8573   -0.0411    6.9887 C.3       5 GLY6        0.0000 
     17 NZ         51.8578    0.7478    6.1959 N.2       3 LYS4        0.0000 
     18 NZ         50.8583    1.5367    5.4031 N.2       3 LYS4        0.0000 
     19 DU         49.8588    2.3257    4.6102 H         6 CUB7        0.0000 
     20 CA         48.8593    3.1146    3.8174 C.3       5 GLY6        0.0000 
     21 NZ         49.8174    0.4914    5.6750 N.2       3 LYS4        0.0000 
     22 NZ         48.8179    1.2803    4.8822 N.2       3 LYS4        0.0000 
     23 CA         46.7776    1.0239    4.3613 C.3       5 GLY6        0.0000 
     24 NZ         46.7363   -0.8104    5.4260 N.2       3 LYS4        0.0000 
     25 CA         45.7368   -0.0214    4.6332 C.3       5 GLY6        0.0000 
     26 O          52.6131    8.0273    3.9737 O.2       1 ALA2        0.0000 
     27 O          51.6136    8.8162    3.1808 O.2       1 ALA2        0.0000 
     28 O          53.5712    5.4041    5.8313 O.2       1 ALA2        0.0000 
     29 O          52.5717    6.1930    5.0384 O.2       1 ALA2        0.0000 
     30 CA         51.5722    6.9819    4.2456 C.3       5 GLY6        0.0000 
     31 O          50.5727    7.7709    3.4528 O.2       1 ALA2        0.0000 
     32 O          49.5732    8.5598    2.6599 O.2       1 ALA2        0.0000 
     33 CA         53.5299    3.5698    6.8960 C.3       5 GLY6        0.0000 
     34 O          52.5304    4.3587    6.1032 O.2       1 ALA2        0.0000 
     35 O          51.5309    5.1477    5.3104 O.2       1 ALA2        0.0000 
     36 CA         50.5314    5.9366    4.5175 C.3       5 GLY6        0.0000 
     37 DU         49.5319    6.7255    3.7247 H         6 CUB7        0.0000 
     38 N          48.5324    7.5145    2.9319 N.2       1 ALA2        0.0000 
     39 CA         47.5329    8.3034    2.1390 C.3       5 GLY6        0.0000 
     40 N          53.4886    1.7355    7.9608 N.2       1 ALA2        0.0000 
     41 CA         52.4891    2.5245    7.1680 C.3       5 GLY6        0.0000 
     42 DU         51.4896    3.3134    6.3751 H         6 CUB7        0.0000 
     43 CA         50.4901    4.1023    5.5823 C.3       5 GLY6        0.0000 
     44 CA         49.4906    4.8913    4.7895 C.3       5 GLY6        0.0000 
     45 CA         48.4911    5.6802    3.9966 C.3       5 GLY6        0.0000 
     46 N          47.4916    6.4691    3.2038 N.2       1 ALA2        0.0000 
     47 N          51.4483    1.4791    7.4399 N.2       1 ALA2        0.0000 
     48 CA         50.4488    2.2680    6.6470 C.3       5 GLY6        0.0000 
     49 CA         49.4493    3.0570    5.8542 C.3       5 GLY6        0.0000 
     50 N          50.4074    0.4338    7.7118 N.2       1 ALA2        0.0000 
     51 NZ         49.4079    1.2227    6.9190 N.2       3 LYS4        0.0000 
     52 CA         48.4084    2.0116    6.1261 C.3       5 GLY6        0.0000 
     53 NZ         48.3671    0.1774    7.1909 N.2       3 LYS4        0.0000 
     54 CA         47.3676    0.9663    6.3981 C.3       5 GLY6        0.0000 
     55 CA         46.3268   -0.0790    6.6700 C.3       5 GLY6        0.0000 
     56 CA         50.1632    8.5022    4.6967 C.3       5 GLY6        0.0000 
     57 O          49.1637    9.2911    3.9039 O.2       1 ALA2        0.0000 
     58 O          52.1209    5.0901    7.3472 O.2       1 ALA2        0.0000 
     59 O          51.1214    5.8790    6.5543 O.2       1 ALA2        0.0000 
     60 CA         49.1224    7.4569    4.9687 C.3       5 GLY6        0.0000 
     61 CA         48.1229    8.2458    4.1758 C.3       5 GLY6        0.0000 
     62 CA         52.0796    3.2558    8.4119 C.3       5 GLY6        0.0000 
     63 CA         51.0801    4.0447    7.6191 C.3       5 GLY6        0.0000 
     64 CA         49.0811    5.6226    6.0334 C.3       5 GLY6        0.0000 
     65 CA         48.0816    6.4115    5.2406 C.3       5 GLY6        0.0000 
     66 N          47.0821    7.2005    4.4478 N.2       1 ALA2        0.0000 
     67 CA         50.0393    2.9994    7.8910 C.3       5 GLY6        0.0000 
     68 CZ         48.9985    1.9540    8.1630 C.ar      4 PHE5        0.0000 
@<TRIPOS>BOND
@<TRIPOS>SUBSTRUCTURE
     1 ALA2        4 GROUP   
     2 ASP3        1 GROUP   
     3 LYS4       17 GROUP   
     4 PHE5       68 GROUP   
     5 GLY6        2 GROUP   
     6 CUB7        5 GROUP   
@<TRIPOS>SET

