#    Name: 2qbp_527_1_INTS_M
#    Modification time : Mon Mar 24 21:42:39 2014

@<TRIPOS>MOLECULE
2qbp_527_1_INTS_M
   72     0     9     0     0
SMALL
NO_CHARGES


@<TRIPOS>ATOM
      1 CA         43.0830   16.4385    2.9360 C.3       3 GLC5        0.0000 
      2 CA         44.7660   15.6490    1.7560 C.3       9 GLL5        0.0000 
      3 CA         41.4000   17.2280    4.1160 C.3       6 GLP5        0.0000 
      4 NZ         43.2480   18.3900    0.1935 N.4       2 LYC4        0.0000 
      5 NZ         43.5980   16.8930    0.3080 N.4       8 LYL4        0.0000 
      6 NZ         42.8980   19.8870    0.0790 N.4       5 LYP4        0.0000 
      7 N          43.2480   18.3900    0.1935 N.am      1 SEC2        0.0000 
      8 N          43.5980   16.8930    0.3080 N.am      7 SEL2        0.0000 
      9 N          42.8980   19.8870    0.0790 N.am      4 SEP2        0.0000 
     10 NZ         43.4160   18.8550    1.1795 N.4       2 LYC4        0.0000 
     11 NZ         43.9340   17.8230    2.2800 N.4       8 LYL4        0.0000 
     12 N          43.4160   18.8550    1.1795 N.am      1 SEC2        0.0000 
     13 N          43.9340   17.8230    2.2800 N.am      7 SEL2        0.0000 
     14 CA         48.7900   12.4945    2.4740 C.3       3 GLC5        0.0000 
     15 CA         47.4420   11.3150    1.3100 C.3       9 GLL5        0.0000 
     16 CA         50.1380   13.6740    3.6380 C.3       6 GLP5        0.0000 
     17 CA         45.3875   13.1270    4.3665 C.3       3 GLC5        0.0000 
     18 CA         47.3890   13.4840    3.9420 C.3       9 GLL5        0.0000 
     19 CA         43.3860   12.7700    4.7910 C.3       6 GLP5        0.0000 
     20 CA         47.0720   12.5225    5.3085 C.3       3 GLC5        0.0000 
     21 CA         46.7550   11.5610    6.6750 C.3       6 GLP5        0.0000 
     22 CA         48.1225   14.3485    5.6720 C.3       3 GLC5        0.0000 
     23 CA         48.8560   15.2130    7.4020 C.3       6 GLP5        0.0000 
     24 CA         47.6010   17.6190    1.6030 C.3       3 GLC5        0.0000 
     25 CA         47.1930   16.9880    3.4380 C.3       9 GLL5        0.0000 
     26 CA         48.0090   18.2500   -0.2320 C.3       6 GLP5        0.0000 
     27 CA         48.6655   15.3310    3.5380 C.3       3 GLC5        0.0000 
     28 N          48.7350   19.1105    3.6925 N.am      1 SEC2        0.0000 
     29 N          48.5780   18.1510    4.8510 N.am      7 SEL2        0.0000 
     30 N          48.8920   20.0700    2.5340 N.am      4 SEP2        0.0000 
     31 N          49.9070   18.4770    5.4530 N.am      1 SEC2        0.0000 
     32 N          51.2360   18.8030    6.0550 N.am      4 SEP2        0.0000 
     33 NZ         46.1800   19.2305    5.8630 N.4       2 LYC4        0.0000 
     34 NZ         46.5110   17.7930    5.5420 N.4       8 LYL4        0.0000 
     35 NZ         44.9290   21.2500    5.4090 N.4       5 LYP4        0.0000 
     36 N          47.3425   17.5740    6.9060 N.am      1 SEC2        0.0000 
     37 N          46.5110   17.7930    5.5420 N.am      7 SEL2        0.0000 
     38 N          48.1740   17.3550    8.2700 N.am      4 SEP2        0.0000 
     39 N          46.1800   19.2305    5.8630 N.am      1 SEC2        0.0000 
     40 N          45.8490   20.6680    6.1840 N.am      4 SEP2        0.0000 
     41 CA         47.6035    5.3720    4.7530 C.3       3 GLC5        0.0000 
     42 CA         48.9270    6.4400    3.3730 C.3       9 GLL5        0.0000 
     43 CA         46.2800    4.3040    6.1330 C.3       6 GLP5        0.0000 
     44 CA         46.3995    8.2595    3.1555 C.3       3 GLC5        0.0000 
     45 CA         48.4990    7.7770    2.8260 C.3       9 GLL5        0.0000 
     46 CA         44.3000    8.7420    3.4850 C.3       6 GLP5        0.0000 
     47 CA         47.7870    9.0825    4.2970 C.3       3 GLC5        0.0000 
     48 CA         47.0750   10.3880    5.7680 C.3       6 GLP5        0.0000 
     49 CA         51.8060   -0.6485    7.5390 C.3       3 GLC5        0.0000 
     50 CA         52.0250    1.0640    7.1210 C.3       9 GLL5        0.0000 
     51 CA         51.5870   -2.3610    7.9570 C.3       6 GLP5        0.0000 
     52 CA         50.7570   -0.1815    8.0895 C.3       3 GLC5        0.0000 
     53 CA         50.6230    1.4160    6.9910 C.3       9 GLL5        0.0000 
     54 CA         50.8910   -1.7790    9.1880 C.3       6 GLP5        0.0000 
     55 CA         44.3070   14.1462    3.5013 C.3       3 GLC5        0.0000 
     56 CA         45.6900   15.3960    2.6670 C.3       9 GLL5        0.0000 
     57 CA         44.7120   13.2170    3.4270 C.3       3 GLC5        0.0000 
     58 CA         46.2550   14.0410    2.5740 C.3       9 GLL5        0.0000 
     59 CA         48.4800   13.7183    3.4480 C.3       3 GLC5        0.0000 
     60 CA         45.6947    9.1495    2.0725 C.3       3 GLC5        0.0000 
     61 CA         46.5390    9.1680    0.3780 C.3       9 GLL5        0.0000 
     62 CA         45.4345    7.4425    0.1312 C.3       3 GLC5        0.0000 
     63 CA         44.9880    5.4260   -0.0160 C.3       6 GLP5        0.0000 
     64 CA         43.1123    9.9738    0.8365 C.3       3 GLC5        0.0000 
     65 CA         45.2230    9.7500    0.1790 C.3       9 GLL5        0.0000 
     66 CA         41.0920    9.5090    1.3140 C.3       6 GLP5        0.0000 
     67 CA         44.8516    9.6875    1.9957 C.3       3 GLC5        0.0000 
     68 CA         53.6093    2.4573    8.0213 C.3       3 GLC5        0.0000 
     69 CA         53.0480    1.5950    6.2220 C.3       9 GLL5        0.0000 
     70 CA         54.6820    3.5850    9.3710 C.3       6 GLP5        0.0000 
     71 CA         49.2310    3.2637    7.3430 C.3       3 GLC5        0.0000 
     72 CA         48.0430    4.6740    8.2380 C.3       6 GLP5        0.0000 
@<TRIPOS>BOND
@<TRIPOS>SUBSTRUCTURE
     1 SEC2        7 GROUP        1 X    SEC  0     ROOT SEC X 2
     2 LYC4        4 GROUP        1 X    LYC  0     **** LYC X 4
     3 GLC5        1 GROUP        1 X    GLC  0     **** GLC X 6
     4 SEP2        9 GROUP        1 Y    SEP  0     ROOT SEP Y 9
     5 LYP4        6 GROUP        1 Y    LYP  0     **** LYP Y 11
     6 GLP5        3 GROUP        1 Y    GLP  0     **** GLP Y 13
     7 SEL2        8 GROUP        1 Z    SEL  0     ROOT SEL Z 16
     8 LYL4        5 GROUP        1 Z    LYL  0     **** LYL Z 18
     9 GLL5        2 GROUP        1 Z    GLL  0     **** GLL Z 20
@<TRIPOS>SET

