#    Name: 2qbp_527_1_ligand
#    Modification time : Mon Mar 24 21:42:39 2014

@<TRIPOS>MOLECULE
2qbp_527_1_ligand
   60    63     1     0     0
SMALL
NO_CHARGES


@<TRIPOS>ATOM
      1 S1         44.5640   14.2390    0.6740 S.3       1 527800      0.0000 
      2 C2         44.7660   15.6490    1.7560 C.2       1 527800      0.0000 
      3 C3         45.6900   15.3960    2.6670 C.2       1 527800      0.0000 
      4 C4         46.2550   14.0410    2.5740 C.2       1 527800      0.0000 
      5 C5         45.8210   13.2870    1.5520 C.2       1 527800      0.0000 
      6 C6         44.0600   16.8790    1.4690 C.2       1 527800      0.0000 
      7 O7         43.5980   16.8930    0.3080 O.co2     1 527800      0.0000 
      8 O8         43.9340   17.8230    2.2800 O.co2     1 527800      0.0000 
      9 C9         46.1250   11.9050    1.1290 C.ar      1 527800      0.0000 
     10 C10        47.4420   11.3150    1.3100 C.ar      1 527800      0.0000 
     11 C11        47.6400    9.9460    0.9420 C.ar      1 527800      0.0000 
     12 C12        46.5390    9.1680    0.3780 C.ar      1 527800      0.0000 
     13 C13        45.2230    9.7500    0.1790 C.ar      1 527800      0.0000 
     14 C14        45.0420   11.1270    0.5390 C.ar      1 527800      0.0000 
     15 BR19       47.3890   13.4840    3.9420 Br        1 527800      0.0000 
     16 O20        45.9800   16.2840    3.6070 O.3       1 527800      0.0000 
     17 C21        47.1930   16.9880    3.4380 C.3       1 527800      0.0000 
     18 C22        47.4320   17.6890    4.7000 C.2       1 527800      0.0000 
     19 O25        48.5780   18.1510    4.8510 O.co2     1 527800      0.0000 
     20 O26        46.5110   17.7930    5.5420 O.co2     1 527800      0.0000 
     21 N29        48.9040    9.4960    1.1630 N.pl3     1 527800      0.0000 
     22 C30        49.1900    8.1380    1.5130 C.3       1 527800      0.0000 
     23 C31        50.7090    7.9840    1.5980 C.3       1 527800      0.0000 
     24 C32        51.1460    6.6380    2.1280 C.3       1 527800      0.0000 
     25 N33        50.3910    6.3890    3.3570 N.pl3     1 527800      0.0000 
     26 C34        48.9270    6.4400    3.3730 C.3       1 527800      0.0000 
     27 C35        48.4990    7.7770    2.8260 C.3       1 527800      0.0000 
     28 S46        51.1020    5.4460    4.5910 S.o2      1 527800      0.0000 
     29 O47        50.2210    5.5670    5.7300 O.2       1 527800      0.0000 
     30 O48        52.4790    5.8920    4.6940 O.2       1 527800      0.0000 
     31 C49        50.8960    3.7760    3.9330 C.3       1 527800      0.0000 
     32 C50        51.2570    2.7890    5.0020 C.ar      1 527800      0.0000 
     33 C53        52.6630    2.4580    5.1260 C.ar      1 527800      0.0000 
     34 C54        53.0480    1.5950    6.2220 C.ar      1 527800      0.0000 
     35 C55        52.0250    1.0640    7.1210 C.ar      1 527800      0.0000 
     36 C56        50.6230    1.4160    6.9910 C.ar      1 527800      0.0000 
     37 C57        50.2150    2.2910    5.9050 C.ar      1 527800      0.0000 
     38 H          48.1900   11.8654    1.6861 H         1 527800      0.0000 
     39 H          46.7015    8.1977    0.1202 H         1 527800      0.0000 
     40 H          44.4794    9.2064   -0.1940 H         1 527800      0.0000 
     41 H          44.1420   11.5796    0.3832 H         1 527800      0.0000 
     42 H          47.1252   17.7130    2.6273 H         1 527800      0.0000 
     43 H          48.0232   16.3117    3.2356 H         1 527800      0.0000 
     44 H          49.7202   10.1448    1.0813 H         1 527800      0.0000 
     45 H          48.8314    7.4668    0.7406 H         1 527800      0.0000 
     46 H          51.1087    8.7797    2.2462 H         1 527800      0.0000 
     47 H          51.1361    8.1383    0.5946 H         1 527800      0.0000 
     48 H          52.2104    6.6666    2.3274 H         1 527800      0.0000 
     49 H          50.9333    5.8804    1.3835 H         1 527800      0.0000 
     50 H          48.5496    6.3346    4.3869 H         1 527800      0.0000 
     51 H          48.5079    5.6524    2.7520 H         1 527800      0.0000 
     52 H          47.4099    7.7757    2.6628 H         1 527800      0.0000 
     53 H          48.7151    8.5632    3.5663 H         1 527800      0.0000 
     54 H          51.5538    3.7803    3.1009 H         1 527800      0.0000 
     55 H          49.8716    3.7684    3.6579 H         1 527800      0.0000 
     56 H          53.3316    2.8087    4.4863 H         1 527800      0.0000 
     57 H          54.0135    1.3578    6.3700 H         1 527800      0.0000 
     58 H          52.3111    0.4235    7.8649 H         1 527800      0.0000 
     59 H          49.9476    1.0623    7.6383 H         1 527800      0.0000 
     60 H          49.2685    2.5453    5.7745 H         1 527800      0.0000 
@<TRIPOS>BOND
     1    2    1 1    
     2    5    1 1    
     3    3    2 2    
     4    6    2 1    
     5    4    3 1    
     6   16    3 1    
     7    5    4 2    
     8   15    4 1    
     9    9    5 1    
    10    7    6 ar   
    11    8    6 ar   
    12   10    9 ar   
    13   14    9 ar   
    14   11   10 ar   
    15   38   10 1    
    16   12   11 ar   
    17   21   11 1    
    18   13   12 ar   
    19   39   12 1    
    20   14   13 ar   
    21   40   13 1    
    22   41   14 1    
    23   17   16 1    
    24   18   17 1    
    25   42   17 1    
    26   43   17 1    
    27   19   18 ar   
    28   20   18 ar   
    29   22   21 1    
    30   44   21 1    
    31   23   22 1    
    32   27   22 1    
    33   45   22 1    
    34   24   23 1    
    35   46   23 1    
    36   47   23 1    
    37   25   24 1    
    38   48   24 1    
    39   49   24 1    
    40   26   25 1    
    41   28   25 1    
    42   27   26 1    
    43   50   26 1    
    44   51   26 1    
    45   52   27 1    
    46   53   27 1    
    47   29   28 2    
    48   30   28 2    
    49   31   28 1    
    50   32   31 1    
    51   54   31 1    
    52   55   31 1    
    53   33   32 ar   
    54   37   32 ar   
    55   34   33 ar   
    56   56   33 1    
    57   35   34 ar   
    58   57   34 1    
    59   36   35 ar   
    60   58   35 1    
    61   37   36 ar   
    62   59   36 1    
    63   60   37 1    
@<TRIPOS>SUBSTRUCTURE
     1 527800      1 GROUP   
@<TRIPOS>SET

