#    Name: 3mw9_NAD_2_INTS_M
#    Modification time : Mon Mar 24 23:56:12 2014

@<TRIPOS>MOLECULE
3mw9_NAD_2_INTS_M
   87     0     9     0     0
SMALL
NO_CHARGES


@<TRIPOS>ATOM
      1 N           9.5490   27.4885   77.4450 N.am      2 SEC2        0.0000 
      2 N          10.7940   27.9440   78.0490 N.am      8 SEL2        0.0000 
      3 N           8.3040   27.0330   76.8410 N.am      5 SEP2        0.0000 
      4 N          14.0255   26.3660   78.9070 N.am      2 SEC2        0.0000 
      5 N          12.3140   26.2040   79.0350 N.am      8 SEL2        0.0000 
      6 N          15.7370   26.5280   78.7790 N.am      5 SEP2        0.0000 
      7 CA         13.5180   29.4695   84.0610 C.3       3 GLC5        0.0000 
      8 CA         12.1900   28.4780   82.9380 C.3       9 GLL5        0.0000 
      9 CA         14.8460   30.4610   85.1840 C.3       6 GLP5        0.0000 
     10 O          11.9620   26.3960   85.5835 O.2       1 ALC1        0.0000 
     11 O          12.4880   26.3590   83.9770 O.2       7 ALL1        0.0000 
     12 O          11.4360   26.4330   87.1900 O.2       4 ALP1        0.0000 
     13 O          12.8640   26.0305   85.0525 O.2       1 ALC1        0.0000 
     14 O          13.2400   25.7020   86.1280 O.2       4 ALP1        0.0000 
     15 CA          9.2900   27.9470   86.3880 C.3       3 GLC5        0.0000 
     16 CA         10.7150   27.9240   84.6840 C.3       9 GLL5        0.0000 
     17 CA          7.8650   27.9700   88.0920 C.3       6 GLP5        0.0000 
     18 O          10.5515   26.7635   86.1380 O.2       1 ALC1        0.0000 
     19 O           9.6670   27.0940   85.0860 O.2       7 ALL1        0.0000 
     20 CA          9.5270   30.3100   82.2105 C.3       3 GLC5        0.0000 
     21 CA         10.1490   29.1050   83.9060 C.3       9 GLL5        0.0000 
     22 CA          8.9050   31.5150   80.5150 C.3       6 GLP5        0.0000 
     23 CA         12.0170   33.4630   87.6160 C.3       3 GLC5        0.0000 
     24 CA          9.9630   32.6800   87.4880 C.3       9 GLL5        0.0000 
     25 CA         14.0710   34.2460   87.7440 C.3       6 GLP5        0.0000 
     26 CA         12.8560   32.5365   87.7640 C.3       3 GLC5        0.0000 
     27 CA         11.6410   30.8270   87.7840 C.3       9 GLL5        0.0000 
     28 CA         13.2435   30.6440   86.4840 C.3       3 GLC5        0.0000 
     29 CA         12.1060   29.6050   88.5600 C.3       3 GLC5        0.0000 
     30 CA         12.5710   28.3830   89.3360 C.3       6 GLP5        0.0000 
     31 CA         10.2060   29.7365   88.4610 C.3       3 GLC5        0.0000 
     32 CA          8.7710   28.6460   89.1380 C.3       6 GLP5        0.0000 
     33 N          14.6430   27.4160   78.5570 N.am      2 SEC2        0.0000 
     34 N          13.5490   28.3040   78.3350 N.am      8 SEL2        0.0000 
     35 CA         10.8945   31.8125   78.0640 C.3       3 GLC5        0.0000 
     36 CA         12.7910   32.0200   78.4010 C.3       9 GLL5        0.0000 
     37 CA          8.9980   31.6050   77.7270 C.3       6 GLP5        0.0000 
     38 CA         10.4525   32.9495   77.7020 C.3       3 GLC5        0.0000 
     39 CA         11.9070   34.2940   77.6770 C.3       9 GLL5        0.0000 
     40 N          12.5645   36.7355   77.8545 N.am      2 SEC2        0.0000 
     41 N          11.6570   35.4740   78.3810 N.am      8 SEL2        0.0000 
     42 N          13.4720   37.9970   77.3280 N.am      5 SEP2        0.0000 
     43 O          11.5035   34.9895   79.5715 O.2       1 ALC1        0.0000 
     44 O          11.6570   35.4740   78.3810 O.2       7 ALL1        0.0000 
     45 O          11.3500   34.5050   80.7620 O.2       4 ALP1        0.0000 
     46 CA         12.1755   36.7720   75.8990 C.3       3 GLC5        0.0000 
     47 CA         12.3090   34.7630   76.3250 C.3       9 GLL5        0.0000 
     48 CA         12.0420   38.7810   75.4730 C.3       6 GLP5        0.0000 
     49 N          10.1875   34.6490   75.7750 N.am      2 SEC2        0.0000 
     50 N          11.5800   34.1020   75.3350 N.am      8 SEL2        0.0000 
     51 N           8.7950   35.1960   76.2150 N.am      5 SEP2        0.0000 
     52 N          11.9735   35.4610   74.7105 N.am      2 SEC2        0.0000 
     53 N          12.3670   36.8200   74.0860 N.am      5 SEP2        0.0000 
     54 CA         15.1725   32.8695   76.8290 C.3       3 GLC5        0.0000 
     55 CA         13.8140   34.5800   76.3000 C.3       9 GLL5        0.0000 
     56 CA         16.5310   31.1590   77.3580 C.3       6 GLP5        0.0000 
     57 CA         17.1385   31.4245   73.4045 C.3       3 GLC5        0.0000 
     58 CA         15.3370   32.3320   73.4340 C.3       9 GLL5        0.0000 
     59 CA         18.9400   30.5170   73.3750 C.3       6 GLP5        0.0000 
     60 N          16.9005   29.6305   70.9170 N.am      2 SEC2        0.0000 
     61 N          15.9850   30.7090   71.9430 N.am      8 SEL2        0.0000 
     62 N          17.8160   28.5520   69.8910 N.am      5 SEP2        0.0000 
     63 N          16.1295   30.2835   70.3715 N.am      2 SEC2        0.0000 
     64 N          16.2740   29.8580   68.8000 N.am      5 SEP2        0.0000 
     65 CA         13.4683   27.1734   81.9866 C.3       3 GLC5        0.0000 
     66 CA         12.6380   28.2490   81.4730 C.3       9 GLL5        0.0000 
     67 CA         14.9760   26.5260   81.0870 C.3       6 GLP5        0.0000 
     68 CA          9.2920   29.9918   87.5907 C.3       3 GLC5        0.0000 
     69 CA         10.1400   30.7060   85.8380 C.3       9 GLL5        0.0000 
     70 CA         10.9786   32.5606   85.3021 C.3       3 GLC5        0.0000 
     71 CA          9.4860   31.9690   86.2490 C.3       9 GLL5        0.0000 
     72 CA         12.0250   33.6060   84.2510 C.3       6 GLP5        0.0000 
     73 CA         14.7360   31.9640   77.8453 C.3       3 GLC5        0.0000 
     74 CA         13.3370   35.2210   78.9528 C.3       3 GLC5        0.0000 
     75 CA         13.0910   33.5180   78.2640 C.3       9 GLL5        0.0000 
     76 CA         14.1750   36.5360   79.9350 C.3       6 GLP5        0.0000 
     77 CA         14.0537   35.7318   77.5162 C.3       3 GLC5        0.0000 
     78 CA         15.0460   36.7920   78.7200 C.3       6 GLP5        0.0000 
     79 CA         15.7933   31.8400   75.7378 C.3       3 GLC5        0.0000 
     80 CA         14.7740   32.7100   74.8010 C.3       9 GLL5        0.0000 
     81 CA         14.3730   33.1842   71.5337 C.3       3 GLC5        0.0000 
     82 CA         13.3390   33.5350   70.1740 C.3       6 GLP5        0.0000 
     83 CA         16.6440   35.8950   73.9387 C.3       3 GLC5        0.0000 
     84 CA         15.0710   34.7420   72.6160 C.3       9 GLL5        0.0000 
     85 CA         18.5020   36.8460   74.5820 C.3       6 GLP5        0.0000 
     86 CA         14.0625   34.2395   71.7348 C.3       3 GLC5        0.0000 
     87 CA         14.5010   35.1460   73.9750 C.3       9 GLL5        0.0000 
@<TRIPOS>BOND
@<TRIPOS>SUBSTRUCTURE
     1 ALC1       10 GROUP        1 X    ALC  0     ROOT ALC X 1
     2 SEC2        1 GROUP        1 X    SEC  0     **** SEC X 2
     3 GLC5        7 GROUP        1 X    GLC  0     **** GLC X 6
     4 ALP1       12 GROUP        1 Y    ALP  0     ROOT ALP Y 8
     5 SEP2        3 GROUP        1 Y    SEP  0     **** SEP Y 9
     6 GLP5        9 GROUP        1 Y    GLP  0     **** GLP Y 13
     7 ALL1       11 GROUP        1 Z    ALL  0     ROOT ALL Z 15
     8 SEL2        2 GROUP        1 Z    SEL  0     **** SEL Z 16
     9 GLL5        8 GROUP        1 Z    GLL  0     **** GLL Z 20
@<TRIPOS>SET

