#    Name: 3mw9_NAD_2_ligand
#    Modification time : Mon Mar 24 23:56:12 2014

@<TRIPOS>MOLECULE
3mw9_NAD_2_ligand
   70    74     1     0     0
SMALL
NO_CHARGES


@<TRIPOS>ATOM
      1 PA         12.1190   27.6620   78.9560 P.3       1 NAD504      0.0000 
      2 O1A        10.7940   27.9440   78.0490 O.co2     1 NAD504      0.0000 
      3 O2A        12.3140   26.2040   79.0350 O.co2     1 NAD504      0.0000 
      4 O5B        11.7360   28.3840   80.3940 O.3       1 NAD504      0.0000 
      5 C5B        12.6380   28.2490   81.4730 C.3       1 NAD504      0.0000 
      6 C4B        12.1900   28.4780   82.9380 C.3       1 NAD504      0.0000 
      7 O4B        11.3620   29.6320   83.2240 O.3       1 NAD504      0.0000 
      8 C3B        11.5070   27.2780   83.5670 C.3       1 NAD504      0.0000 
      9 O3B        12.4880   26.3590   83.9770 O.3       1 NAD504      0.0000 
     10 C2B        10.7150   27.9240   84.6840 C.3       1 NAD504      0.0000 
     11 O2B         9.6670   27.0940   85.0860 O.3       1 NAD504      0.0000 
     12 C1B        10.1490   29.1050   83.9060 C.3       1 NAD504      0.0000 
     13 N9A         9.5520   30.1940   84.6650 N.pl3     1 NAD504      0.0000 
     14 C8A         8.4910   31.1590   84.2630 C.2       1 NAD504      0.0000 
     15 N7A         8.4470   32.2330   85.2530 N.2       1 NAD504      0.0000 
     16 C5A         9.4860   31.9690   86.2490 C.ar      1 NAD504      0.0000 
     17 C6A         9.9630   32.6800   87.4880 C.ar      1 NAD504      0.0000 
     18 N6A         9.4710   33.9550   87.9650 N.pl3     1 NAD504      0.0000 
     19 N1A        11.0110   32.0930   88.2350 N.ar      1 NAD504      0.0000 
     20 C2A        11.6410   30.8270   87.7840 C.ar      1 NAD504      0.0000 
     21 N3A        11.2300   30.1160   86.5800 N.ar      1 NAD504      0.0000 
     22 C4A        10.1400   30.7060   85.8380 C.ar      1 NAD504      0.0000 
     23 O3         13.5490   28.3040   78.3350 O.3       1 NAD504      0.0000 
     24 PN         13.3350   29.6940   77.4880 P.3       1 NAD504      0.0000 
     25 O1N        11.7170   29.9400   77.6830 O.co2     1 NAD504      0.0000 
     26 O2N        13.5460   29.4280   76.0720 O.co2     1 NAD504      0.0000 
     27 O5D        13.8520   31.1370   78.0880 O.3       1 NAD504      0.0000 
     28 C5D        12.7910   32.0200   78.4010 C.3       1 NAD504      0.0000 
     29 C4D        13.0910   33.5180   78.2640 C.3       1 NAD504      0.0000 
     30 O4D        14.1980   33.6710   77.3530 O.3       1 NAD504      0.0000 
     31 C3D        11.9070   34.2940   77.6770 C.3       1 NAD504      0.0000 
     32 O3D        11.6570   35.4740   78.3810 O.3       1 NAD504      0.0000 
     33 C2D        12.3090   34.7630   76.3250 C.3       1 NAD504      0.0000 
     34 O2D        11.5800   34.1020   75.3350 O.3       1 NAD504      0.0000 
     35 C1D        13.8140   34.5800   76.3000 C.3       1 NAD504      0.0000 
     36 N1N        14.3510   34.1290   75.0360 N.pl3     1 NAD504      0.0000 
     37 C2N        14.7740   32.7100   74.8010 C.ar      1 NAD504      0.0000 
     38 C3N        15.3370   32.3320   73.4340 C.ar      1 NAD504      0.0000 
     39 C7N        15.5860   30.8930   73.0440 C.2       1 NAD504      0.0000 
     40 O7N        15.9850   30.7090   71.9430 O.2       1 NAD504      0.0000 
     41 N7N        14.5910   29.9600   73.5510 N.am      1 NAD504      0.0000 
     42 C4N        15.4770   33.3350   72.3530 C.ar      1 NAD504      0.0000 
     43 C5N        15.0710   34.7420   72.6160 C.ar      1 NAD504      0.0000 
     44 C6N        14.5010   35.1460   73.9750 C.ar      1 NAD504      0.0000 
     45 H          13.5534   28.9266   81.3229 H         1 NAD504      0.0000 
     46 H          13.1306   27.2113   81.4617 H         1 NAD504      0.0000 
     47 H          13.1505   28.5999   83.5435 H         1 NAD504      0.0000 
     48 H          10.8217   26.8981   82.8418 H         1 NAD504      0.0000 
     49 H          11.3532   28.2717   85.4074 H         1 NAD504      0.0000 
     50 H           9.4959   28.7282   83.1417 H         1 NAD504      0.0000 
     51 H           7.9637   31.0788   83.5181 H         1 NAD504      0.0000 
     52 H           9.8971   34.3072   88.7983 H         1 NAD504      0.0000 
     53 H           8.7458   34.3779   87.4217 H         1 NAD504      0.0000 
     54 H          12.4014   30.4428   88.3547 H         1 NAD504      0.0000 
     55 H          12.4234   31.8599   79.4525 H         1 NAD504      0.0000 
     56 H          11.8864   31.8131   77.7644 H         1 NAD504      0.0000 
     57 H          13.3295   33.9181   79.2227 H         1 NAD504      0.0000 
     58 H          11.0710   33.6645   77.5939 H         1 NAD504      0.0000 
     59 H          12.1272   35.8517   76.3168 H         1 NAD504      0.0000 
     60 H          14.2561   35.5752   76.5428 H         1 NAD504      0.0000 
     61 H          14.6956   32.0325   75.5008 H         1 NAD504      0.0000 
     62 H          14.7368   28.9964   73.3268 H         1 NAD504      0.0000 
     63 H          13.8435   30.3593   74.0818 H         1 NAD504      0.0000 
     64 H          15.8352   33.0758   71.4674 H         1 NAD504      0.0000 
     65 H          15.1646   35.4380   71.9128 H         1 NAD504      0.0000 
     66 H          14.2406   36.0882   74.1214 H         1 NAD504      0.0000 
     67 H          12.1811   26.0352   84.8719 H         1 NAD504      0.0000 
     68 H           9.9887   26.6603   85.9277 H         1 NAD504      0.0000 
     69 H          11.0687   35.2013   79.1423 H         1 NAD504      0.0000 
     70 H          12.2386   33.9245   74.6038 H         1 NAD504      0.0000 
@<TRIPOS>BOND
     1    2    1 ar   
     2    3    1 ar   
     3    4    1 1    
     4   23    1 1    
     5    5    4 1    
     6    6    5 1    
     7   45    5 1    
     8   46    5 1    
     9    7    6 1    
    10    8    6 1    
    11   47    6 1    
    12   12    7 1    
    13    9    8 1    
    14   10    8 1    
    15   48    8 1    
    16   67    9 1    
    17   11   10 1    
    18   12   10 1    
    19   49   10 1    
    20   68   11 1    
    21   13   12 1    
    22   50   12 1    
    23   14   13 1    
    24   22   13 1    
    25   15   14 2    
    26   51   14 1    
    27   16   15 1    
    28   17   16 ar   
    29   22   16 ar   
    30   18   17 1    
    31   19   17 ar   
    32   52   18 1    
    33   53   18 1    
    34   20   19 ar   
    35   21   20 ar   
    36   54   20 1    
    37   22   21 ar   
    38   24   23 1    
    39   25   24 ar   
    40   26   24 ar   
    41   27   24 1    
    42   28   27 1    
    43   29   28 1    
    44   55   28 1    
    45   56   28 1    
    46   30   29 1    
    47   31   29 1    
    48   57   29 1    
    49   35   30 1    
    50   32   31 1    
    51   33   31 1    
    52   58   31 1    
    53   69   32 1    
    54   34   33 1    
    55   35   33 1    
    56   59   33 1    
    57   70   34 1    
    58   36   35 1    
    59   60   35 1    
    60   37   36 ar   
    61   44   36 ar   
    62   38   37 ar   
    63   61   37 1    
    64   39   38 1    
    65   42   38 ar   
    66   40   39 2    
    67   41   39 am   
    68   62   41 1    
    69   63   41 1    
    70   43   42 ar   
    71   64   42 1    
    72   44   43 ar   
    73   65   43 1    
    74   66   44 1    
@<TRIPOS>SUBSTRUCTURE
     1 NAD504      1 GROUP   
@<TRIPOS>SET

