#    Name: 4anv_751_1_INTS_M
#    Modification time : Tue Mar 25 05:51:25 2014

@<TRIPOS>MOLECULE
4anv_751_1_INTS_M
   82     0     6     0     0
SMALL
NO_CHARGES


@<TRIPOS>ATOM
      1 CA         50.5760   12.5210   31.5340 C.3       2 GLC5        0.0000 
      2 CA         49.5190   12.1530   30.1190 C.3       6 GLL5        0.0000 
      3 CA         51.6330   12.8890   32.9490 C.3       4 GLP5        0.0000 
      4 CA         50.6570   10.9910   30.6480 C.3       2 GLC5        0.0000 
      5 CA         51.7950    9.8290   31.1770 C.3       4 GLP5        0.0000 
      6 CA         48.6700   13.9665   29.1335 C.3       2 GLC5        0.0000 
      7 CA         47.8210   15.7800   28.1480 C.3       4 GLP5        0.0000 
      8 N          49.2610   10.2355   28.6445 N.am      1 SEC2        0.0000 
      9 N          48.6320   11.5740   29.1460 N.am      5 SEL2        0.0000 
     10 N          49.8900    8.8970   28.1430 N.am      3 SEP2        0.0000 
     11 CA         47.3595    9.7765   27.4730 C.3       2 GLC5        0.0000 
     12 CA         46.5100   10.4490   29.2310 C.3       6 GLL5        0.0000 
     13 CA         48.2090    9.1040   25.7150 C.3       4 GLP5        0.0000 
     14 CA         44.0795   13.6960   30.3080 C.3       2 GLC5        0.0000 
     15 CA         45.5610   12.4730   30.9750 C.3       6 GLL5        0.0000 
     16 CA         42.5980   14.9190   29.6410 C.3       4 GLP5        0.0000 
     17 CA         39.5755   12.3935   31.5125 C.3       2 GLC5        0.0000 
     18 CA         40.8930   11.2090   32.2630 C.3       6 GLL5        0.0000 
     19 CA         38.2580   13.5780   30.7620 C.3       4 GLP5        0.0000 
     20 N          39.3430   11.2885   35.1675 N.am      1 SEC2        0.0000 
     21 N          40.2820   12.4020   35.2090 N.am      5 SEL2        0.0000 
     22 N          38.4040   10.1750   35.1260 N.am      3 SEP2        0.0000 
     23 CA         43.0350   13.8345   37.0170 C.3       2 GLC5        0.0000 
     24 CA         43.1260   14.5740   35.3020 C.3       6 GLL5        0.0000 
     25 CA         42.9440   13.0950   38.7320 C.3       4 GLP5        0.0000 
     26 CA         41.8520   15.5145   31.6580 C.3       2 GLC5        0.0000 
     27 CA         41.1060   16.1100   33.6750 C.3       6 GLL5        0.0000 
     28 CA         47.4545   16.0955   30.1755 C.3       2 GLC5        0.0000 
     29 CA         47.0880   16.4110   32.2030 C.3       6 GLL5        0.0000 
     30 CA         49.9315   14.5790   32.6385 C.3       2 GLC5        0.0000 
     31 CA         49.4740   16.1460   31.6710 C.3       6 GLL5        0.0000 
     32 CA         50.3890   13.0120   33.6060 C.3       4 GLP5        0.0000 
     33 CA         48.6475   15.9630   29.9095 C.3       2 GLC5        0.0000 
     34 CA         46.0615   15.5330   29.8975 C.3       2 GLC5        0.0000 
     35 CA         45.8090   16.1550   31.7130 C.3       6 GLL5        0.0000 
     36 CA         46.3140   14.9110   28.0820 C.3       4 GLP5        0.0000 
     37 CA         39.4800   11.5735   30.4245 C.3       2 GLC5        0.0000 
     38 CA         41.1000   10.7390   30.9710 C.3       6 GLL5        0.0000 
     39 CA         37.8600   12.4080   29.8780 C.3       4 GLP5        0.0000 
     40 CA         48.3490    9.6128   29.9537 C.3       2 GLC5        0.0000 
     41 CA         49.7660    8.2430   30.4840 C.3       4 GLP5        0.0000 
     42 CA         44.4560    9.2082   30.8765 C.3       2 GLC5        0.0000 
     43 CA         44.7180   11.4050   30.5940 C.3       6 GLL5        0.0000 
     44 CA         43.9440    7.5140   31.5860 C.3       4 GLP5        0.0000 
     45 CA         43.9285   11.9108   28.7490 C.3       2 GLC5        0.0000 
     46 CA         45.2180   10.4000   29.7400 C.3       6 GLL5        0.0000 
     47 CA         42.8890   12.9190   27.3310 C.3       4 GLP5        0.0000 
     48 CA         46.4160   11.5590   32.4192 C.3       2 GLC5        0.0000 
     49 CA         46.6130   10.6270   34.1020 C.3       4 GLP5        0.0000 
     50 CA         46.3261   13.5769   29.2990 C.3       2 GLC5        0.0000 
     51 CA         42.9522   13.2475   30.7103 C.3       2 GLC5        0.0000 
     52 CA         43.4200   11.3460   31.1240 C.3       6 GLL5        0.0000 
     53 CA         41.6813   12.0315   29.3428 C.3       2 GLC5        0.0000 
     54 CA         42.3650   10.8010   30.4100 C.3       6 GLL5        0.0000 
     55 CA         41.6300   13.2930   27.9950 C.3       4 GLP5        0.0000 
     56 CA         45.1220   11.1089   32.8745 C.3       2 GLC5        0.0000 
     57 CA         43.4934    9.4769   31.5935 C.3       2 GLC5        0.0000 
     58 CA         43.1930   11.8060   32.4350 C.3       6 GLL5        0.0000 
     59 CA         44.9265   15.0633   35.2438 C.3       2 GLC5        0.0000 
     60 CA         46.5620   14.8520   35.4010 C.3       4 GLP5        0.0000 
     61 CA         42.7795   16.2897   36.9172 C.3       2 GLC5        0.0000 
     62 CA         43.4560   15.9750   34.8710 C.3       6 GLL5        0.0000 
     63 CA         42.2680   17.3050   38.7480 C.3       4 GLP5        0.0000 
     64 CA         41.7518   21.2920   32.5072 C.3       2 GLC5        0.0000 
     65 CA         41.7120   20.2770   34.3450 C.3       6 GLL5        0.0000 
     66 CA         41.1870   22.0440   30.8840 C.3       4 GLP5        0.0000 
     67 CA         46.0460   16.4173   34.4188 C.3       2 GLC5        0.0000 
     68 CA         44.8840   17.8540   33.2020 C.3       6 GLL5        0.0000 
     69 CA         45.7160   18.4622   31.5217 C.3       2 GLC5        0.0000 
     70 CA         46.1760   18.1110   33.6710 C.3       6 GLL5        0.0000 
     71 CA         45.9020   18.9420   29.6070 C.3       4 GLP5        0.0000 
     72 CA         47.5785   19.4147   33.0482 C.3       2 GLC5        0.0000 
     73 CA         48.4340   21.0790   32.6680 C.3       4 GLP5        0.0000 
     74 CA         46.8705   15.8763   34.0478 C.3       2 GLC5        0.0000 
     75 CA         47.2700   17.3900   33.1860 C.3       6 GLL5        0.0000 
     76 CA         46.5405   17.9213   31.1508 C.3       2 GLC5        0.0000 
     77 CA         45.9137   15.6875   33.6745 C.3       2 GLC5        0.0000 
     78 CA         45.5837   17.7325   30.7775 C.3       2 GLC5        0.0000 
     79 CA         43.9317   15.7210   30.7945 C.3       2 GLC5        0.0000 
     80 CA         41.3941    9.4710   32.7732 C.3       2 GLC5        0.0000 
     81 CA         41.9320   11.7330   33.0370 C.3       6 GLL5        0.0000 
     82 CA         41.5320    7.8370   33.7360 C.3       4 GLP5        0.0000 
@<TRIPOS>BOND
@<TRIPOS>SUBSTRUCTURE
     1 SEC2        8 GROUP        1 X    SEC  0     ROOT SEC X 2
     2 GLC5        1 GROUP        1 X    GLC  0     **** GLC X 6
     3 SEP2       10 GROUP        1 Y    SEP  0     ROOT SEP Y 9
     4 GLP5        3 GROUP        1 Y    GLP  0     **** GLP Y 13
     5 SEL2        9 GROUP        1 Z    SEL  0     ROOT SEL Z 16
     6 GLL5        2 GROUP        1 Z    GLL  0     **** GLL Z 20
@<TRIPOS>SET

