#    Name: 4anv_751_1_ligand
#    Modification time : Tue Mar 25 05:51:25 2014

@<TRIPOS>MOLECULE
4anv_751_1_ligand
   65    69     1     0     0
SMALL
NO_CHARGES


@<TRIPOS>ATOM
      1 C28        49.5190   12.1530   30.1190 C.3       1 7511201     0.0000 
      2 O4         48.6320   11.5740   29.1460 O.3       1 7511201     0.0000 
      3 C25        47.3540   11.5160   29.6160 C.ar      1 7511201     0.0000 
      4 C26        46.5100   10.4490   29.2310 C.ar      1 7511201     0.0000 
      5 C27        45.2180   10.4000   29.7400 C.ar      1 7511201     0.0000 
      6 C24        46.8770   12.5090   30.4980 C.ar      1 7511201     0.0000 
      7 C23        45.5610   12.4730   30.9750 C.ar      1 7511201     0.0000 
      8 C22        44.7180   11.4050   30.5940 C.ar      1 7511201     0.0000 
      9 C18        43.4200   11.3460   31.1240 C.ar      1 7511201     0.0000 
     10 C19        42.3650   10.8010   30.4100 C.ar      1 7511201     0.0000 
     11 C17        43.1930   11.8060   32.4350 C.ar      1 7511201     0.0000 
     12 C16        41.9320   11.7330   33.0370 C.ar      1 7511201     0.0000 
     13 C21        40.8930   11.2090   32.2630 C.ar      1 7511201     0.0000 
     14 S1         41.7110   12.4400   34.7730 S.o2      1 7511201     0.0000 
     15 O1         42.6970   11.7930   35.6320 O.2       1 7511201     0.0000 
     16 O2         40.2820   12.4020   35.2090 O.2       1 7511201     0.0000 
     17 N1         42.0880   14.0350   34.4430 N.pl3     1 7511201     0.0000 
     18 C4         43.1260   14.5740   35.3020 C.3       1 7511201     0.0000 
     19 C3         43.4560   15.9750   34.8710 C.3       1 7511201     0.0000 
     20 C1         40.8420   14.7960   34.3690 C.3       1 7511201     0.0000 
     21 C2         41.1060   16.1100   33.6750 C.3       1 7511201     0.0000 
     22 N2         42.3590   16.7140   34.1910 N.3       1 7511201     0.0000 
     23 C5         42.5560   18.1130   34.0580 C.ar      1 7511201     0.0000 
     24 N3         41.5610   18.9590   34.4080 N.ar      1 7511201     0.0000 
     25 C6         41.7120   20.2770   34.3450 C.ar      1 7511201     0.0000 
     26 C7         42.9210   20.8030   33.9160 C.ar      1 7511201     0.0000 
     27 N4         43.9000   19.9750   33.5460 N.ar      1 7511201     0.0000 
     28 C8         43.7810   18.6310   33.6330 C.ar      1 7511201     0.0000 
     29 C9         44.8840   17.8540   33.2020 C.ar      1 7511201     0.0000 
     30 C10        46.1760   18.1110   33.6710 C.ar      1 7511201     0.0000 
     31 C11        47.2700   17.3900   33.1860 C.ar      1 7511201     0.0000 
     32 C12        47.0880   16.4110   32.2030 C.ar      1 7511201     0.0000 
     33 O3         48.1160   15.6710   31.7130 O.3       1 7511201     0.0000 
     34 C15        49.4740   16.1460   31.6710 C.3       1 7511201     0.0000 
     35 C13        45.8090   16.1550   31.7130 C.ar      1 7511201     0.0000 
     36 C14        44.7220   16.8910   32.1830 C.ar      1 7511201     0.0000 
     37 C20        41.1000   10.7390   30.9710 C.ar      1 7511201     0.0000 
     38 H          46.8526    9.7362   28.5928 H         1 7511201     0.0000 
     39 H          44.5975    9.6066   29.4905 H         1 7511201     0.0000 
     40 H          47.5080   13.2672   30.7915 H         1 7511201     0.0000 
     41 H          45.2104   13.2046   31.5891 H         1 7511201     0.0000 
     42 H          42.5225   10.4398   29.4562 H         1 7511201     0.0000 
     43 H          43.9865   12.2105   32.9675 H         1 7511201     0.0000 
     44 H          39.9347   11.1707   32.6695 H         1 7511201     0.0000 
     45 H          44.0339   13.9649   35.2452 H         1 7511201     0.0000 
     46 H          42.7961   14.5950   36.3456 H         1 7511201     0.0000 
     47 H          44.3479   15.9410   34.1995 H         1 7511201     0.0000 
     48 H          43.7901   16.5541   35.7657 H         1 7511201     0.0000 
     49 H          40.4526   14.9977   35.3682 H         1 7511201     0.0000 
     50 H          40.0863   14.2461   33.8058 H         1 7511201     0.0000 
     51 H          40.2640   16.7829   33.8522 H         1 7511201     0.0000 
     52 H          41.1881   15.9358   32.5998 H         1 7511201     0.0000 
     53 H          40.9508   20.9277   34.6077 H         1 7511201     0.0000 
     54 H          43.0394   21.8300   33.8916 H         1 7511201     0.0000 
     55 H          46.3227   18.8421   34.3839 H         1 7511201     0.0000 
     56 H          48.2113   17.5785   33.5516 H         1 7511201     0.0000 
     57 H          45.6664   15.4241   31.0055 H         1 7511201     0.0000 
     58 H          43.7838   16.7350   31.7854 H         1 7511201     0.0000 
     59 H          40.3150   10.3470   30.4355 H         1 7511201     0.0000 
     60 H          50.4598   12.1986   29.7832 H         1 7511201     0.0000 
     61 H          49.2483   13.0850   30.3602 H         1 7511201     0.0000 
     62 H          49.5360   11.6239   30.9674 H         1 7511201     0.0000 
     63 H          50.0930   15.4668   31.2767 H         1 7511201     0.0000 
     64 H          49.5603   16.9760   31.1200 H         1 7511201     0.0000 
     65 H          49.8200   16.3629   32.5838 H         1 7511201     0.0000 
@<TRIPOS>BOND
     1    2    1 1    
     2   60    1 1    
     3   61    1 1    
     4   62    1 1    
     5    3    2 1    
     6    4    3 ar   
     7    6    3 ar   
     8    5    4 ar   
     9   38    4 1    
    10    8    5 ar   
    11   39    5 1    
    12    7    6 ar   
    13   40    6 1    
    14    8    7 ar   
    15   41    7 1    
    16    9    8 1    
    17   10    9 ar   
    18   11    9 ar   
    19   37   10 ar   
    20   42   10 1    
    21   12   11 ar   
    22   43   11 1    
    23   13   12 ar   
    24   14   12 1    
    25   37   13 ar   
    26   44   13 1    
    27   15   14 2    
    28   16   14 2    
    29   17   14 1    
    30   18   17 1    
    31   20   17 1    
    32   19   18 1    
    33   45   18 1    
    34   46   18 1    
    35   22   19 1    
    36   47   19 1    
    37   48   19 1    
    38   21   20 1    
    39   49   20 1    
    40   50   20 1    
    41   22   21 1    
    42   51   21 1    
    43   52   21 1    
    44   23   22 1    
    45   24   23 ar   
    46   28   23 ar   
    47   25   24 ar   
    48   26   25 ar   
    49   53   25 1    
    50   27   26 ar   
    51   54   26 1    
    52   28   27 ar   
    53   29   28 1    
    54   30   29 ar   
    55   36   29 ar   
    56   31   30 ar   
    57   55   30 1    
    58   32   31 ar   
    59   56   31 1    
    60   33   32 1    
    61   35   32 ar   
    62   34   33 1    
    63   63   34 1    
    64   64   34 1    
    65   65   34 1    
    66   36   35 ar   
    67   57   35 1    
    68   58   36 1    
    69   59   37 1    
@<TRIPOS>SUBSTRUCTURE
     1 7511201     1 GROUP   
@<TRIPOS>SET

