#    Name: 3ruh_UD6_4_INTS_M
#    Modification time : Tue Mar 25 11:55:30 2014

@<TRIPOS>MOLECULE
3ruh_UD6_4_INTS_M
   89     0    12     0     0
SMALL
NO_CHARGES


@<TRIPOS>ATOM
      1 N         -27.0060  -13.5165   41.7980 N.am      2 SEC2        0.0000 
      2 N         -25.8900  -14.2960   41.6790 N.am     10 SEL2        0.0000 
      3 N         -28.1220  -12.7370   41.9170 N.am      6 SEP2        0.0000 
      4 O         -27.0650  -16.1830   40.5155 O.2       1 ALC1        0.0000 
      5 O         -26.4930  -16.5020   41.5780 O.2       9 ALL1        0.0000 
      6 O         -27.6370  -15.8640   39.4530 O.2       5 ALP1        0.0000 
      7 N         -27.3815  -19.9015   42.0430 N.am      2 SEC2        0.0000 
      8 N         -26.9960  -18.7170   41.5910 N.am     10 SEL2        0.0000 
      9 N         -27.7670  -21.0860   42.4950 N.am      6 SEP2        0.0000 
     10 CA        -23.5345  -18.5665   42.3995 C.3       4 GLC5        0.0000 
     11 CA        -25.5020  -18.0530   43.1560 C.3      12 GLL5        0.0000 
     12 CA        -21.5670  -19.0800   41.6430 C.3       8 GLP5        0.0000 
     13 CA        -26.1330  -20.0920   42.9960 C.3       4 GLC5        0.0000 
     14 CA        -26.7640  -22.1310   42.8360 C.3       8 GLP5        0.0000 
     15 CA        -23.0805  -17.2750   42.7190 C.3       4 GLC5        0.0000 
     16 CA        -24.7720  -17.0100   43.7130 C.3      12 GLL5        0.0000 
     17 CA        -21.3890  -17.5400   41.7250 C.3       8 GLP5        0.0000 
     18 CA        -23.1340  -15.7110   42.1975 C.3       4 GLC5        0.0000 
     19 CA        -24.1250  -14.5770   43.8080 C.3      12 GLL5        0.0000 
     20 CA        -22.1430  -16.8450   40.5870 C.3       8 GLP5        0.0000 
     21 CA        -23.8000  -13.0290   42.8780 C.3       4 GLC5        0.0000 
     22 CA        -23.4750  -11.4810   41.9480 C.3       8 GLP5        0.0000 
     23 NZ        -20.1615  -13.4885   48.0480 N.4       3 LYC4        0.0000 
     24 NZ        -19.7130  -14.8360   47.8360 N.4      11 LYL4        0.0000 
     25 NZ        -19.8380  -11.5570   47.3590 N.4       7 LYP4        0.0000 
     26 N         -18.2750  -15.2995   47.2695 N.am      2 SEC2        0.0000 
     27 N         -19.7130  -14.8360   47.8360 N.am     10 SEL2        0.0000 
     28 N         -16.8370  -15.7630   46.7030 N.am      6 SEP2        0.0000 
     29 N         -19.4030  -13.5660   47.1925 N.am      2 SEC2        0.0000 
     30 N         -19.0930  -12.2960   46.5490 N.am      6 SEP2        0.0000 
     31 N         -20.1615  -13.4885   48.0480 N.am      2 SEC2        0.0000 
     32 N         -20.6100  -12.1410   48.2600 N.am      6 SEP2        0.0000 
     33 CA        -17.3715  -15.5265   53.2070 C.3       4 GLC5        0.0000 
     34 CA        -17.2740  -16.2350   51.1530 C.3      12 GLL5        0.0000 
     35 CA        -17.4690  -14.8180   55.2610 C.3       8 GLP5        0.0000 
     36 N         -26.5180  -14.5440   45.1970 N.am      2 SEC2        0.0000 
     37 N         -25.4040  -13.6580   45.6240 N.am     10 SEL2        0.0000 
     38 N         -27.6320  -15.4300   44.7700 N.am      6 SEP2        0.0000 
     39 N         -20.3530  -18.7105   43.9545 N.am      2 SEC2        0.0000 
     40 N         -19.6340  -17.6740   45.0610 N.am     10 SEL2        0.0000 
     41 N         -21.0720  -19.7470   42.8480 N.am      6 SEP2        0.0000 
     42 N         -15.0430  -17.0830   52.8470 N.am      2 SEC2        0.0000 
     43 N         -15.0350  -17.0980   51.1970 N.am     10 SEL2        0.0000 
     44 N         -15.0510  -17.0680   54.4970 N.am      6 SEP2        0.0000 
     45 O         -14.4885  -15.6385   51.2715 O.2       1 ALC1        0.0000 
     46 O         -15.0350  -17.0980   51.1970 O.2       9 ALL1        0.0000 
     47 O         -13.9420  -14.1790   51.3460 O.2       5 ALP1        0.0000 
     48 CA        -23.2285  -12.6275   43.8355 C.3       4 GLC5        0.0000 
     49 CA        -22.9820  -13.7740   45.7230 C.3      12 GLL5        0.0000 
     50 O         -23.2580  -11.9775   47.2145 O.2       1 ALC1        0.0000 
     51 O         -23.1760  -12.3520   45.7200 O.2       9 ALL1        0.0000 
     52 O         -23.3400  -11.6030   48.7090 O.2       5 ALP1        0.0000 
     53 CA        -17.3495  -18.8345   53.0625 C.3       4 GLC5        0.0000 
     54 CA        -16.8380  -18.7050   50.9020 C.3      12 GLL5        0.0000 
     55 CA        -17.8610  -18.9640   55.2230 C.3       8 GLP5        0.0000 
     56 N         -15.9025  -18.0180   53.4035 N.am      2 SEC2        0.0000 
     57 N         -16.7540  -18.9680   52.3100 N.am     10 SEL2        0.0000 
     58 CA        -21.6940  -15.8410   43.1610 C.3       4 GLC5        0.0000 
     59 CA        -21.9990  -14.1420   44.5970 C.3      12 GLL5        0.0000 
     60 CA        -21.7260  -13.4235   42.8705 C.3       4 GLC5        0.0000 
     61 CA        -21.4530  -12.7050   41.1440 C.3       8 GLP5        0.0000 
     62 CA        -20.4145  -16.1235   43.3865 C.3       4 GLC5        0.0000 
     63 CA        -20.9060  -15.1000   45.0300 C.3      12 GLL5        0.0000 
     64 CA        -19.9230  -17.1470   41.7430 C.3       8 GLP5        0.0000 
     65 CA        -19.5655  -13.4240   45.2755 C.3       4 GLC5        0.0000 
     66 CA        -18.2250  -11.7480   45.5210 C.3       8 GLP5        0.0000 
     67 CA        -19.0310  -21.9740   52.0960 C.3       4 GLC5        0.0000 
     68 CA        -18.9500  -20.3040   50.6000 C.3      12 GLL5        0.0000 
     69 CA        -19.1120  -23.6440   53.5920 C.3       8 GLP5        0.0000 
     70 CA        -20.5420  -21.0255   51.4420 C.3       4 GLC5        0.0000 
     71 CA        -22.1340  -21.7470   52.2840 C.3       8 GLP5        0.0000 
     72 N         -19.4780  -21.7115   52.0065 N.am      2 SEC2        0.0000 
     73 N         -18.1490  -21.1450   51.4390 N.am     10 SEL2        0.0000 
     74 N         -20.8070  -22.2780   52.5740 N.am      6 SEP2        0.0000 
     75 CA        -15.0325  -12.7925   51.3215 C.3       4 GLC5        0.0000 
     76 CA        -16.9420  -12.3150   50.5780 C.3      12 GLL5        0.0000 
     77 CA        -13.1230  -13.2700   52.0650 C.3       8 GLP5        0.0000 
     78 CA        -18.3830  -10.8795   51.1845 C.3       4 GLC5        0.0000 
     79 CA        -19.8240   -9.4440   51.7910 C.3       8 GLP5        0.0000 
     80 CA        -16.1655  -11.0095   49.4425 C.3       4 GLC5        0.0000 
     81 CA        -15.3890   -9.7040   48.3070 C.3       8 GLP5        0.0000 
     82 CA        -14.9775  -14.0510   51.3745 C.3       4 GLC5        0.0000 
     83 CA        -16.8320  -14.8320   50.6840 C.3      12 GLL5        0.0000 
     84 CA        -26.2153  -13.8235   44.4590 C.3       4 GLC5        0.0000 
     85 CA        -24.2760  -14.4770   45.3240 C.3      12 GLL5        0.0000 
     86 CA        -28.2300  -13.1200   44.3520 C.3       8 GLP5        0.0000 
     87 CA        -15.8680  -19.2428   50.4516 C.3       4 GLC5        0.0000 
     88 CA        -16.3160  -17.2830   50.6070 C.3      12 GLL5        0.0000 
     89 CA        -14.3080  -20.0250   50.3400 C.3       8 GLP5        0.0000 
@<TRIPOS>BOND
@<TRIPOS>SUBSTRUCTURE
     1 ALC1        4 GROUP        1 X    ALC  0     ROOT ALC X 1
     2 SEC2        1 GROUP        1 X    SEC  0     **** SEC X 2
     3 LYC4       23 GROUP        1 X    LYC  0     **** LYC X 4
     4 GLC5       10 GROUP        1 X    GLC  0     **** GLC X 6
     5 ALP1        6 GROUP        1 Y    ALP  0     ROOT ALP Y 8
     6 SEP2        3 GROUP        1 Y    SEP  0     **** SEP Y 9
     7 LYP4       25 GROUP        1 Y    LYP  0     **** LYP Y 11
     8 GLP5       12 GROUP        1 Y    GLP  0     **** GLP Y 13
     9 ALL1        5 GROUP        1 Z    ALL  0     ROOT ALL Z 15
    10 SEL2        2 GROUP        1 Z    SEL  0     **** SEL Z 16
    11 LYL4       24 GROUP        1 Z    LYL  0     **** LYL Z 18
    12 GLL5       11 GROUP        1 Z    GLL  0     **** GLL Z 20
@<TRIPOS>SET

