#    Name: 3ruh_UD6_4_ligand
#    Modification time : Tue Mar 25 11:55:30 2014

@<TRIPOS>MOLECULE
3ruh_UD6_4_ligand
   65    67     1     0     0
SMALL
NO_CHARGES


@<TRIPOS>ATOM
      1 N1        -24.9030  -15.6930   43.2120 N.am      1 UD6344      0.0000 
      2 C2        -25.7650  -15.4370   42.1320 C.2       1 UD6344      0.0000 
      3 O2        -25.8900  -14.2960   41.6790 O.2       1 UD6344      0.0000 
      4 N3        -26.4930  -16.5020   41.5780 N.am      1 UD6344      0.0000 
      5 C4        -26.3560  -17.7980   42.0890 C.2       1 UD6344      0.0000 
      6 O4        -26.9960  -18.7170   41.5910 O.2       1 UD6344      0.0000 
      7 C5        -25.5020  -18.0530   43.1560 C.2       1 UD6344      0.0000 
      8 C6        -24.7720  -17.0100   43.7130 C.2       1 UD6344      0.0000 
      9 PA        -20.7290  -17.5210   46.0430 P.3       1 UD6344      0.0000 
     10 PB        -19.9990  -16.1230   48.5130 P.3       1 UD6344      0.0000 
     11 C1'       -18.6850  -16.5820   50.6640 C.3       1 UD6344      0.0000 
     12 O1'       -18.6760  -16.5350   49.2560 O.3       1 UD6344      0.0000 
     13 O1A       -21.8010  -18.5360   46.0920 O.co2     1 UD6344      0.0000 
     14 C1B       -24.1250  -14.5770   43.8080 C.3       1 UD6344      0.0000 
     15 O1B       -19.7130  -14.8360   47.8360 O.co2     1 UD6344      0.0000 
     16 C2'       -17.2740  -16.2350   51.1530 C.3       1 UD6344      0.0000 
     17 O2'       -25.4040  -13.6580   45.6240 O.3       1 UD6344      0.0000 
     18 O2A       -19.6340  -17.6740   45.0610 O.co2     1 UD6344      0.0000 
     19 C2B       -24.2760  -14.4770   45.3240 C.3       1 UD6344      0.0000 
     20 O2B       -21.1520  -16.2250   49.4390 O.co2     1 UD6344      0.0000 
     21 C3'       -16.3160  -17.2830   50.6070 C.3       1 UD6344      0.0000 
     22 O3'       -15.0350  -17.0980   51.1970 O.3       1 UD6344      0.0000 
     23 O3A       -20.0660  -17.4190   47.5180 O.3       1 UD6344      0.0000 
     24 C3B       -22.9820  -13.7740   45.7230 C.3       1 UD6344      0.0000 
     25 O3B       -23.1760  -12.3520   45.7200 O.3       1 UD6344      0.0000 
     26 C4'       -16.8380  -18.7050   50.9020 C.3       1 UD6344      0.0000 
     27 O4'       -16.7540  -18.9680   52.3100 O.3       1 UD6344      0.0000 
     28 C4B       -21.9990  -14.1420   44.5970 C.3       1 UD6344      0.0000 
     29 O4B       -22.7400  -14.8880   43.6170 O.3       1 UD6344      0.0000 
     30 C5'       -18.2790  -18.9270   50.3720 C.3       1 UD6344      0.0000 
     31 O5'       -19.1190  -17.9250   50.9890 O.3       1 UD6344      0.0000 
     32 C5B       -20.9060  -15.1000   45.0300 C.3       1 UD6344      0.0000 
     33 O5B       -21.4520  -16.1040   45.8610 O.3       1 UD6344      0.0000 
     34 C6'       -18.9500  -20.3040   50.6000 C.3       1 UD6344      0.0000 
     35 O6'       -18.1490  -21.1450   51.4390 O.3       1 UD6344      0.0000 
     36 C7'       -17.4650  -13.6550   51.0900 C.2       1 UD6344      0.0000 
     37 O7'       -18.4420  -13.6870   51.8400 O.2       1 UD6344      0.0000 
     38 C8'       -16.9420  -12.3150   50.5780 C.3       1 UD6344      0.0000 
     39 C9'       -16.8320  -14.8320   50.6840 C.3       1 UD6344      0.0000 
     40 H         -27.1310  -16.3269   40.7912 H         1 UD6344      0.0000 
     41 H         -25.4117  -19.0036   43.5289 H         1 UD6344      0.0000 
     42 H         -24.1286  -17.1850   44.4956 H         1 UD6344      0.0000 
     43 H         -19.3726  -15.8554   51.0544 H         1 UD6344      0.0000 
     44 H         -24.3671  -13.6527   43.3678 H         1 UD6344      0.0000 
     45 H         -17.2547  -16.2719   52.2227 H         1 UD6344      0.0000 
     46 H         -24.2953  -15.4297   45.7288 H         1 UD6344      0.0000 
     47 H         -16.2695  -17.1672   49.5308 H         1 UD6344      0.0000 
     48 H         -22.6314  -14.1616   46.6211 H         1 UD6344      0.0000 
     49 H         -16.1845  -19.4024   50.3544 H         1 UD6344      0.0000 
     50 H         -21.5805  -13.2760   44.1761 H         1 UD6344      0.0000 
     51 H         -18.2680  -18.7339   49.2883 H         1 UD6344      0.0000 
     52 H         -20.1320  -14.5148   45.5466 H         1 UD6344      0.0000 
     53 H         -20.4495  -15.5207   44.1228 H         1 UD6344      0.0000 
     54 H         -19.1143  -20.7533   49.6087 H         1 UD6344      0.0000 
     55 H         -19.9411  -20.1135   51.0394 H         1 UD6344      0.0000 
     56 H         -16.7981  -14.8981   49.5274 H         1 UD6344      0.0000 
     57 H         -15.6965  -14.7828   50.9106 H         1 UD6344      0.0000 
     58 H         -16.6586  -11.7162   51.3271 H         1 UD6344      0.0000 
     59 H         -16.1496  -12.4300   49.9789 H         1 UD6344      0.0000 
     60 H         -17.6361  -11.8210   50.0544 H         1 UD6344      0.0000 
     61 H         -25.0393  -12.9069   46.1743 H         1 UD6344      0.0000 
     62 H         -15.0668  -16.1847   51.6031 H         1 UD6344      0.0000 
     63 H         -23.2110  -12.0937   46.6854 H         1 UD6344      0.0000 
     64 H         -17.1704  -18.1709   52.7473 H         1 UD6344      0.0000 
     65 H         -17.4497  -20.5400   51.8195 H         1 UD6344      0.0000 
@<TRIPOS>BOND
     1    2    1 1    
     2    8    1 1    
     3   14    1 1    
     4    3    2 2    
     5    4    2 1    
     6    5    4 1    
     7   40    4 1    
     8    6    5 2    
     9    7    5 1    
    10    8    7 2    
    11   41    7 1    
    12   42    8 1    
    13   13    9 ar   
    14   18    9 ar   
    15   23    9 1    
    16   33    9 1    
    17   12   10 1    
    18   15   10 ar   
    19   20   10 ar   
    20   23   10 1    
    21   12   11 1    
    22   16   11 1    
    23   31   11 1    
    24   43   11 1    
    25   19   14 1    
    26   29   14 1    
    27   44   14 1    
    28   21   16 1    
    29   39   16 1    
    30   45   16 1    
    31   19   17 1    
    32   61   17 1    
    33   24   19 1    
    34   46   19 1    
    35   22   21 1    
    36   26   21 1    
    37   47   21 1    
    38   62   22 1    
    39   25   24 1    
    40   28   24 1    
    41   48   24 1    
    42   63   25 1    
    43   27   26 1    
    44   30   26 1    
    45   49   26 1    
    46   64   27 1    
    47   29   28 1    
    48   32   28 1    
    49   50   28 1    
    50   31   30 1    
    51   34   30 1    
    52   51   30 1    
    53   33   32 1    
    54   52   32 1    
    55   53   32 1    
    56   35   34 1    
    57   54   34 1    
    58   55   34 1    
    59   65   35 1    
    60   37   36 2    
    61   38   36 1    
    62   39   36 1    
    63   58   38 1    
    64   59   38 1    
    65   60   38 1    
    66   56   39 1    
    67   57   39 1    
@<TRIPOS>SUBSTRUCTURE
     1 UD6344      1 GROUP   
@<TRIPOS>SET

