#    Name: 2ok7_A2P_5_INTS_M
#    Modification time : Tue Mar 25 22:49:54 2014

@<TRIPOS>MOLECULE
2ok7_A2P_5_INTS_M
   72     0    12     0     0
SMALL
NO_CHARGES


@<TRIPOS>ATOM
      1 N           2.5485    5.9400   -5.5265 N.am      2 SEC2        0.0000 
      2 N           2.3070    5.5520   -4.1840 N.am     10 SEL2        0.0000 
      3 N           2.7900    6.3280   -6.8690 N.am      6 SEP2        0.0000 
      4 NZ          0.1965    2.2610   -4.2210 N.4       3 LYC4        0.0000 
      5 NZ          0.9400    3.4260   -3.9210 N.4      11 LYL4        0.0000 
      6 NZ         -0.5470    1.0960   -4.5210 N.4       7 LYP4        0.0000 
      7 N           0.1965    2.2610   -4.2210 N.am      2 SEC2        0.0000 
      8 N           0.9400    3.4260   -3.9210 N.am     10 SEL2        0.0000 
      9 N          -0.5470    1.0960   -4.5210 N.am      6 SEP2        0.0000 
     10 N           0.1800    3.9970   -5.1425 N.am      2 SEC2        0.0000 
     11 N          -0.5800    4.5680   -6.3640 N.am      6 SEP2        0.0000 
     12 N           3.8695    4.3065   -1.9755 N.am      2 SEC2        0.0000 
     13 N           2.5090    4.1600   -2.0570 N.am     10 SEL2        0.0000 
     14 N           5.2300    4.4530   -1.8940 N.am      6 SEP2        0.0000 
     15 NZ         -0.5880   -2.3015   -3.6905 N.4       3 LYC4        0.0000 
     16 NZ          0.1260   -1.5800   -5.4060 N.4      11 LYL4        0.0000 
     17 NZ         -1.3020   -3.0230   -1.9750 N.4       7 LYP4        0.0000 
     18 NZ         -0.2105   -0.2420   -4.9635 N.4       3 LYC4        0.0000 
     19 N           0.9640   -1.1490   -6.5005 N.am      2 SEC2        0.0000 
     20 N           0.1260   -1.5800   -5.4060 N.am     10 SEL2        0.0000 
     21 N           1.8020   -0.7180   -7.5950 N.am      6 SEP2        0.0000 
     22 N          -0.2105   -0.2420   -4.9635 N.am      2 SEC2        0.0000 
     23 NZ         -0.3230   -2.2245   -2.4575 N.4       3 LYC4        0.0000 
     24 NZ          0.6560   -1.4260   -2.9400 N.4      11 LYL4        0.0000 
     25 NZ          0.0545   -0.1650   -3.7305 N.4       3 LYC4        0.0000 
     26 N           0.0545   -0.1650   -3.7305 N.am      2 SEC2        0.0000 
     27 N           0.6560   -1.4260   -2.9400 N.am     10 SEL2        0.0000 
     28 NZ          0.0345   -3.2515   -3.1100 N.4       3 LYC4        0.0000 
     29 NZ          1.3710   -3.4800   -4.2450 N.4      11 LYL4        0.0000 
     30 N           2.1130   -1.0095   -6.1250 N.am      2 SEC2        0.0000 
     31 N           2.4240   -1.3010   -4.6550 N.am     10 SEL2        0.0000 
     32 CA          4.1150   -3.1395   -3.4325 C.3       4 GLC5        0.0000 
     33 CA          3.5600   -1.3460   -3.7930 C.3      12 GLL5        0.0000 
     34 CA          4.6700   -4.9330   -3.0720 C.3       8 GLP5        0.0000 
     35 CA          3.2505   -1.2465   -6.0125 C.3       4 GLC5        0.0000 
     36 CA          2.9410   -1.1470   -8.2320 C.3       8 GLP5        0.0000 
     37 O           4.9740    3.1580   -2.2195 O.2       1 ALC1        0.0000 
     38 O           4.7180    1.8630   -2.5450 O.2       9 ALL1        0.0000 
     39 O           5.2300    4.4530   -1.8940 O.2       5 ALP1        0.0000 
     40 CA          4.7435    3.5150   -3.6315 C.3       4 GLC5        0.0000 
     41 CA          3.3260    1.9920   -4.4740 C.3      12 GLL5        0.0000 
     42 CA          6.1610    5.0380   -2.7890 C.3       8 GLP5        0.0000 
     43 CA          3.6185    0.2300   -6.8995 C.3       4 GLC5        0.0000 
     44 CA          4.2960    1.6070   -5.5670 C.3      12 GLL5        0.0000 
     45 CA          4.1785    2.3565  -12.3395 C.3       4 GLC5        0.0000 
     46 CA          3.9300    2.6110  -10.4510 C.3      12 GLL5        0.0000 
     47 CA          4.4270    2.1020  -14.2280 C.3       8 GLP5        0.0000 
     48 O           3.0650    2.6220  -12.7350 O.2       1 ALC1        0.0000 
     49 O           3.1040    3.0470  -11.4220 O.2       9 ALL1        0.0000 
     50 O           3.0260    2.1970  -14.0480 O.2       5 ALP1        0.0000 
     51 N           6.3710    2.8085  -11.5600 N.am      2 SEC2        0.0000 
     52 N           5.2130    2.2650  -10.7070 N.am     10 SEL2        0.0000 
     53 N           7.5290    3.3520  -12.4130 N.am      6 SEP2        0.0000 
     54 CA          6.4745    0.0670   -8.5520 C.3       4 GLC5        0.0000 
     55 CA          6.0280    1.8300   -9.7150 C.3      12 GLL5        0.0000 
     56 CA          6.9210   -1.6960   -7.3890 C.3       8 GLP5        0.0000 
     57 CA          6.9810    3.3270   -9.2530 C.3       4 GLC5        0.0000 
     58 CA          7.9340    4.8240   -8.7910 C.3       8 GLP5        0.0000 
     59 CA          4.8105    0.2440  -10.2275 C.3       4 GLC5        0.0000 
     60 CA          3.5930   -1.3420  -10.7400 C.3       8 GLP5        0.0000 
     61 CA          3.6685    0.4320   -8.1350 C.3       4 GLC5        0.0000 
     62 CA          4.3960    2.0110   -8.0380 C.3      12 GLL5        0.0000 
     63 CA          4.9955   -1.7452   -5.3543 C.3       4 GLC5        0.0000 
     64 CA          4.4040   -0.0850   -3.9800 C.3      12 GLL5        0.0000 
     65 CA          6.0090   -2.7750   -6.8220 C.3       8 GLP5        0.0000 
     66 CA          5.4973   -0.1296   -2.3971 C.3       4 GLC5        0.0000 
     67 CA          7.1230   -0.4660   -1.1920 C.3       8 GLP5        0.0000 
     68 CA          4.3315    3.4922   -5.7928 C.3       4 GLC5        0.0000 
     69 CA          4.8520    5.1850   -6.5650 C.3       8 GLP5        0.0000 
     70 CA          3.2035    0.7598   -9.6575 C.3       4 GLC5        0.0000 
     71 CA          3.4420    2.4940   -9.0530 C.3      12 GLL5        0.0000 
     72 CA          2.7210   -1.0330   -9.5630 C.3       8 GLP5        0.0000 
@<TRIPOS>BOND
@<TRIPOS>SUBSTRUCTURE
     1 ALC1       37 GROUP        1 X    ALC  0     ROOT ALC X 1
     2 SEC2        1 GROUP        1 X    SEC  0     **** SEC X 2
     3 LYC4        4 GROUP        1 X    LYC  0     **** LYC X 4
     4 GLC5       32 GROUP        1 X    GLC  0     **** GLC X 6
     5 ALP1       39 GROUP        1 Y    ALP  0     ROOT ALP Y 8
     6 SEP2        3 GROUP        1 Y    SEP  0     **** SEP Y 9
     7 LYP4        6 GROUP        1 Y    LYP  0     **** LYP Y 11
     8 GLP5       34 GROUP        1 Y    GLP  0     **** GLP Y 13
     9 ALL1       38 GROUP        1 Z    ALL  0     ROOT ALL Z 15
    10 SEL2        2 GROUP        1 Z    SEL  0     **** SEL Z 16
    11 LYL4        5 GROUP        1 Z    LYL  0     **** LYL Z 18
    12 GLL5       33 GROUP        1 Z    GLL  0     **** GLL Z 20
@<TRIPOS>SET

