#    Name: 2ok7_A2P_5_ligand
#    Modification time : Tue Mar 25 22:49:54 2014

@<TRIPOS>MOLECULE
2ok7_A2P_5_ligand
   38    40     1     0     0
SMALL
NO_CHARGES


@<TRIPOS>ATOM
      1 P1          2.1920    4.1890   -3.5380 P.3       1 A2P416      0.0000 
      2 O1P         2.3070    5.5520   -4.1840 O.co2     1 A2P416      0.0000 
      3 O2P         0.9400    3.4260   -3.9210 O.co2     1 A2P416      0.0000 
      4 O3P         2.5090    4.1600   -2.0570 O.co2     1 A2P416      0.0000 
      5 P2          1.0300   -2.0080   -4.2780 P.3       1 A2P416      0.0000 
      6 O4P         0.1260   -1.5800   -5.4060 O.co2     1 A2P416      0.0000 
      7 O5P         0.6560   -1.4260   -2.9400 O.co2     1 A2P416      0.0000 
      8 O6P         1.3710   -3.4800   -4.2450 O.co2     1 A2P416      0.0000 
      9 O5'         2.4240   -1.3010   -4.6550 O.3       1 A2P416      0.0000 
     10 C5'         3.5600   -1.3460   -3.7930 C.3       1 A2P416      0.0000 
     11 C4'         4.4040   -0.0850   -3.9800 C.3       1 A2P416      0.0000 
     12 O4'         4.5620    0.2150   -5.3710 O.3       1 A2P416      0.0000 
     13 C3'         3.7610    1.1290   -3.3180 C.3       1 A2P416      0.0000 
     14 O3'         4.7180    1.8630   -2.5450 O.3       1 A2P416      0.0000 
     15 C2'         3.3260    1.9920   -4.4740 C.3       1 A2P416      0.0000 
     16 O2'         3.4240    3.3810   -4.1840 O.3       1 A2P416      0.0000 
     17 C1'         4.2960    1.6070   -5.5670 C.3       1 A2P416      0.0000 
     18 N9          3.7280    1.9900   -6.8850 N.pl3     1 A2P416      0.0000 
     19 C8          2.4710    2.4250   -7.1100 C.2       1 A2P416      0.0000 
     20 N7          2.2820    2.7250   -8.4160 N.2       1 A2P416      0.0000 
     21 C5          3.4420    2.4940   -9.0530 C.ar      1 A2P416      0.0000 
     22 C6          3.9300    2.6110  -10.4510 C.ar      1 A2P416      0.0000 
     23 N6          3.1040    3.0470  -11.4220 N.pl3     1 A2P416      0.0000 
     24 N1          5.2130    2.2650  -10.7070 N.ar      1 A2P416      0.0000 
     25 C2          6.0280    1.8300   -9.7150 C.ar      1 A2P416      0.0000 
     26 N3          5.6650    1.7100   -8.4230 N.ar      1 A2P416      0.0000 
     27 C4          4.3960    2.0110   -8.0380 C.ar      1 A2P416      0.0000 
     28 H           4.2001   -2.2103   -4.0072 H         1 A2P416      0.0000 
     29 H           3.2685   -1.3985   -2.7371 H         1 A2P416      0.0000 
     30 H           5.3686   -0.2444   -3.5150 H         1 A2P416      0.0000 
     31 H           2.9179    0.8256   -2.7754 H         1 A2P416      0.0000 
     32 H           2.3519    1.6858   -4.7775 H         1 A2P416      0.0000 
     33 H           5.2044    2.1927   -5.3799 H         1 A2P416      0.0000 
     34 H           1.7798    2.5135   -6.4163 H         1 A2P416      0.0000 
     35 H           3.2452    2.6523  -12.3299 H         1 A2P416      0.0000 
     36 H           2.4232    3.7263  -11.1483 H         1 A2P416      0.0000 
     37 H           7.0329    1.5631   -9.9809 H         1 A2P416      0.0000 
     38 H           4.2256    2.6723   -2.2245 H         1 A2P416      0.0000 
@<TRIPOS>BOND
     1    2    1 ar   
     2    3    1 ar   
     3    4    1 ar   
     4   16    1 1    
     5    6    5 ar   
     6    7    5 ar   
     7    8    5 ar   
     8    9    5 1    
     9   10    9 1    
    10   11   10 1    
    11   28   10 1    
    12   29   10 1    
    13   12   11 1    
    14   13   11 1    
    15   30   11 1    
    16   17   12 1    
    17   14   13 1    
    18   15   13 1    
    19   31   13 1    
    20   38   14 1    
    21   16   15 1    
    22   17   15 1    
    23   32   15 1    
    24   18   17 1    
    25   33   17 1    
    26   19   18 1    
    27   27   18 1    
    28   20   19 2    
    29   34   19 1    
    30   21   20 1    
    31   22   21 ar   
    32   27   21 ar   
    33   23   22 1    
    34   24   22 ar   
    35   35   23 1    
    36   36   23 1    
    37   25   24 ar   
    38   26   25 ar   
    39   37   25 1    
    40   27   26 ar   
@<TRIPOS>SUBSTRUCTURE
     1 A2P416      1 GROUP   
@<TRIPOS>SET

