#    Name: 4l0q_NAD_2_INTS_M
#    Modification time : Mon Apr  7 23:49:06 2014

@<TRIPOS>MOLECULE
4l0q_NAD_2_INTS_M
   87     0    12     0     0
SMALL
NO_CHARGES


@<TRIPOS>ATOM
      1 N          27.4490    4.0350   31.1300 N.am      2 SEC2        0.0000 
      2 N          26.7670    4.6650   32.1490 N.am     10 SEL2        0.0000 
      3 N          28.1310    3.4050   30.1110 N.am      6 SEP2        0.0000 
      4 CA         28.0310    8.3535   36.4500 C.3       4 GLC5        0.0000 
      5 CA         27.2530    7.6600   34.7170 C.3      12 GLL5        0.0000 
      6 CA         28.8090    9.0470   38.1830 C.3       8 GLP5        0.0000 
      7 CA         26.2760    6.0410   35.9140 C.3       4 GLC5        0.0000 
      8 CA         25.2990    4.4220   37.1110 C.3       8 GLP5        0.0000 
      9 CA         24.0285    8.3550   35.1595 C.3       4 GLC5        0.0000 
     10 CA         25.9130    8.0530   34.0990 C.3      12 GLL5        0.0000 
     11 CA         22.1440    8.6570   36.2200 C.3       8 GLP5        0.0000 
     12 N          23.6290    7.4710   34.8485 N.am      2 SEC2        0.0000 
     13 N          25.0200    8.0290   35.2140 N.am     10 SEL2        0.0000 
     14 N          22.2380    6.9130   34.4830 N.am      6 SEP2        0.0000 
     15 O          25.1245    9.0500   36.2060 O.2       1 ALC1        0.0000 
     16 O          25.0200    8.0290   35.2140 O.2       9 ALL1        0.0000 
     17 O          25.2290   10.0710   37.1980 O.2       5 ALP1        0.0000 
     18 O          24.8130   11.0455   34.7930 O.2       1 ALC1        0.0000 
     19 O          24.9860   10.2850   33.7120 O.2       9 ALL1        0.0000 
     20 O          24.6400   11.8060   35.8740 O.2       5 ALP1        0.0000 
     21 CA         28.0130    9.4870   36.3345 C.3       4 GLC5        0.0000 
     22 CA         27.2170    9.9270   34.4860 C.3      12 GLL5        0.0000 
     23 CA         29.3135    9.7075   35.0395 C.3       4 GLC5        0.0000 
     24 CA         31.4100    9.4880   35.5930 C.3       8 GLP5        0.0000 
     25 CA         27.9250   13.5100   32.6580 C.3       4 GLC5        0.0000 
     26 CA         29.3340   12.7350   33.6650 C.3      12 GLL5        0.0000 
     27 CA         26.5160   14.2850   31.6510 C.3       8 GLP5        0.0000 
     28 CA         28.5790   15.0735   34.1390 C.3       4 GLC5        0.0000 
     29 CA         29.9970   13.9330   34.2120 C.3      12 GLL5        0.0000 
     30 CA         27.1610   16.2140   34.0660 C.3       8 GLP5        0.0000 
     31 CA         31.9960   14.1550   34.4660 C.3       4 GLC5        0.0000 
     32 CA         33.9950   14.3770   34.7200 C.3       8 GLP5        0.0000 
     33 CA         29.0195   14.5750   38.2220 C.3       4 GLC5        0.0000 
     34 CA         29.0860   13.5930   36.3210 C.3      12 GLL5        0.0000 
     35 CA         28.9530   15.5570   40.1230 C.3       8 GLP5        0.0000 
     36 CA         27.4895   13.4975   37.1995 C.3       4 GLC5        0.0000 
     37 CA         25.8930   13.4020   38.0780 C.3       8 GLP5        0.0000 
     38 CA         28.1235   14.9035   35.1935 C.3       4 GLC5        0.0000 
     39 CA         30.3600   12.2785   36.1280 C.3       4 GLC5        0.0000 
     40 CA         31.6340   10.9640   35.9350 C.3       8 GLP5        0.0000 
     41 CA         27.1755   13.1220   33.8125 C.3       4 GLC5        0.0000 
     42 CA         28.5440   11.9790   34.6400 C.3      12 GLL5        0.0000 
     43 CA         25.8070   14.2650   32.9850 C.3       8 GLP5        0.0000 
     44 NZ         27.4375   -0.5325   34.1000 N.4       3 LYC4        0.0000 
     45 NZ         28.0980    0.7880   34.0010 N.4      11 LYL4        0.0000 
     46 NZ         27.2650   -3.0740   34.4480 N.4       7 LYP4        0.0000 
     47 N          27.4375   -0.5325   34.1000 N.am      2 SEC2        0.0000 
     48 N          28.0980    0.7880   34.0010 N.am     10 SEL2        0.0000 
     49 N          26.7770   -1.8530   34.1990 N.am      6 SEP2        0.0000 
     50 N          28.3135    1.9055   37.2775 N.am      2 SEC2        0.0000 
     51 N          28.4140    2.5410   35.8700 N.am     10 SEL2        0.0000 
     52 N          28.2130    1.2700   38.6850 N.am      6 SEP2        0.0000 
     53 CA         31.0050    2.6700   31.7850 C.3       4 GLC5        0.0000 
     54 CA         32.7700    2.6580   33.0890 C.3      12 GLL5        0.0000 
     55 CA         29.2400    2.6820   30.4810 C.3       8 GLP5        0.0000 
     56 O          33.4930    4.9190   32.6670 O.2       1 ALC1        0.0000 
     57 O          33.8450    3.5210   32.7350 O.2       9 ALL1        0.0000 
     58 O          33.1410    6.3170   32.5990 O.2       5 ALP1        0.0000 
     59 O          35.6860    0.9685   32.1475 O.2       1 ALC1        0.0000 
     60 O          34.2100    1.6090   31.8390 O.2       9 ALL1        0.0000 
     61 O          37.1620    0.3280   32.4560 O.2       5 ALP1        0.0000 
     62 CA         35.6595    1.4270   35.5130 C.3       4 GLC5        0.0000 
     63 CA         34.0800    1.2770   34.4060 C.3      12 GLL5        0.0000 
     64 CA         37.2390    1.5770   36.6200 C.3       8 GLP5        0.0000 
     65 CA         37.3370    0.1230   34.4645 C.3       4 GLC5        0.0000 
     66 CA         35.4480   -0.4600   35.4620 C.3      12 GLL5        0.0000 
     67 CA         39.2260    0.7060   33.4670 C.3       8 GLP5        0.0000 
     68 N          38.1835   -0.1095   35.9000 N.am      2 SEC2        0.0000 
     69 N          37.8050   -0.8300   37.0280 N.am     10 SEL2        0.0000 
     70 N          38.5620    0.6110   34.7720 N.am      6 SEP2        0.0000 
     71 CA         31.9450   -3.0470   36.8385 C.3       4 GLC5        0.0000 
     72 CA         33.4990   -2.3100   35.6980 C.3      12 GLL5        0.0000 
     73 CA         30.3910   -3.7840   37.9790 C.3       8 GLP5        0.0000 
     74 CA         30.3694   11.8102   35.1121 C.3       4 GLC5        0.0000 
     75 CA         31.2080    1.6943   36.0418 C.3       4 GLC5        0.0000 
     76 CA         30.9610    2.8620   34.7560 C.3      12 GLL5        0.0000 
     77 CA         30.7020    0.4800   37.4400 C.3       8 GLP5        0.0000 
     78 CA         35.4875   -1.2732   37.6363 C.3       4 GLC5        0.0000 
     79 CA         35.3480   -1.4660   39.5180 C.3       8 GLP5        0.0000 
     80 CA         36.4330    0.2482   36.1872 C.3       4 GLC5        0.0000 
     81 CA         35.8060   -1.7010   36.0470 C.3      12 GLL5        0.0000 
     82 CA         34.2772   -2.5895   37.8385 C.3       4 GLC5        0.0000 
     83 CA         34.4090   -2.6870   39.7480 C.3       8 GLP5        0.0000 
     84 CA         32.0405   -0.6000   36.4177 C.3       4 GLC5        0.0000 
     85 CA         33.0651   -3.4780   35.0325 C.3       4 GLC5        0.0000 
     86 CA         33.2590   -1.0500   35.0930 C.3      12 GLL5        0.0000 
     87 CA         32.4280   -5.1850   34.5540 C.3       8 GLP5        0.0000 
@<TRIPOS>BOND
@<TRIPOS>SUBSTRUCTURE
     1 ALC1       15 GROUP        1 X    ALC  0     ROOT ALC X 1
     2 SEC2        1 GROUP        1 X    SEC  0     **** SEC X 2
     3 LYC4       44 GROUP        1 X    LYC  0     **** LYC X 4
     4 GLC5        4 GROUP        1 X    GLC  0     **** GLC X 6
     5 ALP1       17 GROUP        1 Y    ALP  0     ROOT ALP Y 8
     6 SEP2        3 GROUP        1 Y    SEP  0     **** SEP Y 9
     7 LYP4       46 GROUP        1 Y    LYP  0     **** LYP Y 11
     8 GLP5        6 GROUP        1 Y    GLP  0     **** GLP Y 13
     9 ALL1       16 GROUP        1 Z    ALL  0     ROOT ALL Z 15
    10 SEL2        2 GROUP        1 Z    SEL  0     **** SEL Z 16
    11 LYL4       45 GROUP        1 Z    LYL  0     **** LYL Z 18
    12 GLL5        5 GROUP        1 Z    GLL  0     **** GLL Z 20
@<TRIPOS>SET

