#    Name: 4l0q_NAD_2_ligand
#    Modification time : Mon Apr  7 23:49:06 2014

@<TRIPOS>MOLECULE
4l0q_NAD_2_ligand
   68    72     1     0     0
SMALL
NO_CHARGES


@<TRIPOS>ATOM
      1 PA         26.8180    4.0690   33.5130 P.3       1 NAD403      0.0000 
      2 O1A        26.7670    4.6650   32.1490 O.co2     1 NAD403      0.0000 
      3 O2A        25.6320    3.3000   34.0560 O.co2     1 NAD403      0.0000 
      4 O5B        27.0620    5.3780   34.3590 O.3       1 NAD403      0.0000 
      5 C5B        27.9020    6.4780   34.0220 C.3       1 NAD403      0.0000 
      6 C4B        27.2530    7.6600   34.7170 C.3       1 NAD403      0.0000 
      7 O4B        28.1070    8.8330   34.7130 O.3       1 NAD403      0.0000 
      8 C3B        25.9130    8.0530   34.0990 C.3       1 NAD403      0.0000 
      9 O3B        25.0200    8.0290   35.2140 O.3       1 NAD403      0.0000 
     10 C2B        26.1140    9.4610   33.5100 C.3       1 NAD403      0.0000 
     11 O2B        24.9860   10.2850   33.7120 O.3       1 NAD403      0.0000 
     12 C1B        27.2170    9.9270   34.4860 C.3       1 NAD403      0.0000 
     13 N9A        28.0480   10.9600   33.9330 N.pl3     1 NAD403      0.0000 
     14 C8A        28.4820   11.0020   32.6740 C.2       1 NAD403      0.0000 
     15 N7A        29.2890   12.0780   32.4750 N.2       1 NAD403      0.0000 
     16 C5A        29.3340   12.7350   33.6650 C.ar      1 NAD403      0.0000 
     17 C6A        29.9970   13.9330   34.2120 C.ar      1 NAD403      0.0000 
     18 N6A        30.6930   14.6240   33.3380 N.pl3     1 NAD403      0.0000 
     19 N1A        29.8170   14.3520   35.4940 N.ar      1 NAD403      0.0000 
     20 C2A        29.0860   13.5930   36.3210 C.ar      1 NAD403      0.0000 
     21 N3A        28.4780   12.4590   35.9270 N.ar      1 NAD403      0.0000 
     22 C4A        28.5440   11.9790   34.6400 C.ar      1 NAD403      0.0000 
     23 O3         28.2080    3.2580   33.4730 O.3       1 NAD403      0.0000 
     24 PN         28.6040    2.0800   34.4920 P.3       1 NAD403      0.0000 
     25 O1N        28.0980    0.7880   34.0010 O.co2     1 NAD403      0.0000 
     26 O2N        28.4140    2.5410   35.8700 O.co2     1 NAD403      0.0000 
     27 O5D        30.1050    1.8790   34.1070 O.3       1 NAD403      0.0000 
     28 C5D        30.9610    2.8620   34.7560 C.3       1 NAD403      0.0000 
     29 C4D        32.4670    2.9550   34.5310 C.3       1 NAD403      0.0000 
     30 O4D        33.3540    2.1640   35.3510 O.3       1 NAD403      0.0000 
     31 C3D        32.7700    2.6580   33.0890 C.3       1 NAD403      0.0000 
     32 O3D        33.8450    3.5210   32.7350 O.3       1 NAD403      0.0000 
     33 C2D        33.3950    1.3660   33.0010 C.3       1 NAD403      0.0000 
     34 O2D        34.2100    1.6090   31.8390 O.3       1 NAD403      0.0000 
     35 C1D        34.0800    1.2770   34.4060 C.3       1 NAD403      0.0000 
     36 N1N        34.2430   -0.1280   34.9880 N.pl3     1 NAD403      0.0000 
     37 C2N        35.4480   -0.4600   35.4620 C.ar      1 NAD403      0.0000 
     38 C3N        35.8060   -1.7010   36.0470 C.ar      1 NAD403      0.0000 
     39 C7N        37.2270   -1.8530   36.6100 C.2       1 NAD403      0.0000 
     40 O7N        37.8050   -0.8300   37.0280 O.2       1 NAD403      0.0000 
     41 N7N        37.8850   -2.9960   36.8010 N.am      1 NAD403      0.0000 
     42 C4N        34.7920   -2.6740   36.1600 C.ar      1 NAD403      0.0000 
     43 C5N        33.4990   -2.3100   35.6980 C.ar      1 NAD403      0.0000 
     44 C6N        33.2590   -1.0500   35.0930 C.ar      1 NAD403      0.0000 
     45 H          27.9162    6.6707   32.9648 H         1 NAD403      0.0000 
     46 H          28.8987    6.3622   34.4069 H         1 NAD403      0.0000 
     47 H          27.0488    7.3739   35.7611 H         1 NAD403      0.0000 
     48 H          25.6789    7.3683   33.3527 H         1 NAD403      0.0000 
     49 H          26.5078    9.3968   32.5777 H         1 NAD403      0.0000 
     50 H          26.7637   10.2354   35.3970 H         1 NAD403      0.0000 
     51 H          28.2579   10.3507   31.9728 H         1 NAD403      0.0000 
     52 H          31.1145   15.4650   33.6772 H         1 NAD403      0.0000 
     53 H          30.7377   14.2459   32.4133 H         1 NAD403      0.0000 
     54 H          28.9798   13.8980   37.3349 H         1 NAD403      0.0000 
     55 H          30.8068    2.7962   35.9001 H         1 NAD403      0.0000 
     56 H          30.5367    3.9189   34.5560 H         1 NAD403      0.0000 
     57 H          32.7401    4.0448   34.6550 H         1 NAD403      0.0000 
     58 H          31.9556    2.7613   32.4908 H         1 NAD403      0.0000 
     59 H          32.6804    0.6396   32.8906 H         1 NAD403      0.0000 
     60 H          35.1009    1.7083   34.2768 H         1 NAD403      0.0000 
     61 H          36.2445    0.2633   35.4087 H         1 NAD403      0.0000 
     62 H          34.9691   -3.5772   36.5456 H         1 NAD403      0.0000 
     63 H          32.7214   -2.9746   35.8049 H         1 NAD403      0.0000 
     64 H          32.3040   -0.8600   34.7342 H         1 NAD403      0.0000 
     65 H          25.2470    8.8455   35.7449 H         1 NAD403      0.0000 
     66 H          25.1533   10.7431   34.5850 H         1 NAD403      0.0000 
     67 H          33.4132    4.2969   32.2752 H         1 NAD403      0.0000 
     68 H          35.1100    1.2411   32.0727 H         1 NAD403      0.0000 
@<TRIPOS>BOND
     1    2    1 ar   
     2    3    1 ar   
     3    4    1 1    
     4   23    1 1    
     5    5    4 1    
     6    6    5 1    
     7   45    5 1    
     8   46    5 1    
     9    7    6 1    
    10    8    6 1    
    11   47    6 1    
    12   12    7 1    
    13    9    8 1    
    14   10    8 1    
    15   48    8 1    
    16   65    9 1    
    17   11   10 1    
    18   12   10 1    
    19   49   10 1    
    20   66   11 1    
    21   13   12 1    
    22   50   12 1    
    23   14   13 1    
    24   22   13 1    
    25   15   14 2    
    26   51   14 1    
    27   16   15 1    
    28   17   16 ar   
    29   22   16 ar   
    30   18   17 1    
    31   19   17 ar   
    32   52   18 1    
    33   53   18 1    
    34   20   19 ar   
    35   21   20 ar   
    36   54   20 1    
    37   22   21 ar   
    38   24   23 1    
    39   25   24 ar   
    40   26   24 ar   
    41   27   24 1    
    42   28   27 1    
    43   29   28 1    
    44   55   28 1    
    45   56   28 1    
    46   30   29 1    
    47   31   29 1    
    48   57   29 1    
    49   35   30 1    
    50   32   31 1    
    51   33   31 1    
    52   58   31 1    
    53   67   32 1    
    54   34   33 1    
    55   35   33 1    
    56   59   33 1    
    57   68   34 1    
    58   36   35 1    
    59   60   35 1    
    60   37   36 ar   
    61   44   36 ar   
    62   38   37 ar   
    63   61   37 1    
    64   39   38 1    
    65   42   38 ar   
    66   40   39 2    
    67   41   39 am   
    68   43   42 ar   
    69   62   42 1    
    70   44   43 ar   
    71   63   43 1    
    72   64   44 1    
@<TRIPOS>SUBSTRUCTURE
     1 NAD403      1 GROUP   
@<TRIPOS>SET

