#    Name: 2xxb_AMP_2_INTS_M
#    Modification time : Tue Mar 25 07:03:51 2014

@<TRIPOS>MOLECULE
2xxb_AMP_2_INTS_M
   49     0     9     0     0
SMALL
NO_CHARGES


@<TRIPOS>ATOM
      1 N         -14.4135  -37.0060  -15.5935 N.am      2 SEC2        0.0000 
      2 N         -15.6330  -37.4590  -14.7120 N.am      8 SEL2        0.0000 
      3 N         -13.1940  -36.5530  -16.4750 N.am      5 SEP2        0.0000 
      4 N         -14.3085  -35.4585  -13.6045 N.am      2 SEC2        0.0000 
      5 N         -14.7980  -36.4280  -12.5180 N.am      8 SEL2        0.0000 
      6 N         -13.8190  -34.4890  -14.6910 N.am      5 SEP2        0.0000 
      7 CA        -20.0390  -35.6175  -15.8780 C.3       3 GLC5        0.0000 
      8 CA        -19.3460  -35.7520  -13.7780 C.3       9 GLL5        0.0000 
      9 CA        -20.7320  -35.4830  -17.9780 C.3       6 GLP5        0.0000 
     10 CA        -20.4695  -37.1790  -15.0890 C.3       3 GLC5        0.0000 
     11 CA        -21.5930  -38.6060  -16.4000 C.3       6 GLP5        0.0000 
     12 N         -21.0660  -37.8140  -14.1045 N.am      2 SEC2        0.0000 
     13 N         -20.6670  -36.2640  -14.1120 N.am      8 SEL2        0.0000 
     14 N         -21.4650  -39.3640  -14.0970 N.am      5 SEP2        0.0000 
     15 O         -19.8580  -32.8475  -14.4250 O.2       1 ALC1        0.0000 
     16 O         -19.1640  -33.3860  -13.3260 O.2       7 ALL1        0.0000 
     17 O         -20.5520  -32.3090  -15.5240 O.2       4 ALP1        0.0000 
     18 O         -21.9420  -32.5680  -13.2390 O.2       1 ALC1        0.0000 
     19 O         -21.6630  -33.4110  -12.2300 O.2       7 ALL1        0.0000 
     20 O         -22.2210  -31.7250  -14.2480 O.2       4 ALP1        0.0000 
     21 CA        -21.1635  -35.3660  -15.8840 C.3       3 GLC5        0.0000 
     22 CA        -21.5950  -35.2490  -13.7900 C.3       9 GLL5        0.0000 
     23 CA        -21.5940  -36.9275  -15.0950 C.3       3 GLC5        0.0000 
     24 CA        -26.8635  -35.1005  -13.2550 C.3       3 GLC5        0.0000 
     25 CA        -26.3490  -36.2390  -14.8410 C.3       9 GLL5        0.0000 
     26 CA        -27.3780  -33.9620  -11.6690 C.3       6 GLP5        0.0000 
     27 CA        -26.6685  -37.4350  -16.3105 C.3       3 GLC5        0.0000 
     28 CA        -26.9880  -38.6310  -17.7800 C.3       6 GLP5        0.0000 
     29 CA        -24.9315  -35.5425  -18.3370 C.3       3 GLC5        0.0000 
     30 CA        -25.2300  -34.8520  -16.3790 C.3       9 GLL5        0.0000 
     31 CA        -24.6330  -36.2330  -20.2950 C.3       6 GLP5        0.0000 
     32 CA        -24.3180  -33.0275  -16.7145 C.3       3 GLC5        0.0000 
     33 CA        -23.4060  -31.2030  -17.0500 C.3       6 GLP5        0.0000 
     34 CA        -25.6285  -33.6790  -14.7860 C.3       3 GLC5        0.0000 
     35 CA        -26.0270  -32.5060  -13.1930 C.3       6 GLP5        0.0000 
     36 CA        -24.1265  -36.5315  -16.5340 C.3       3 GLC5        0.0000 
     37 CA        -23.0230  -38.2110  -16.6890 C.3       6 GLP5        0.0000 
     38 CA        -26.1090  -36.7415  -17.0795 C.3       3 GLC5        0.0000 
     39 N         -24.4710  -33.2550  -15.4370 N.am      2 SEC2        0.0000 
     40 N         -24.0650  -34.8830  -15.7160 N.am      8 SEL2        0.0000 
     41 N         -24.8770  -31.6270  -15.1580 N.am      5 SEP2        0.0000 
     42 CA        -17.6496  -34.5301  -13.9827 C.3       3 GLC5        0.0000 
     43 CA        -16.0720  -33.5960  -14.8270 C.3       6 GLP5        0.0000 
     44 CA        -25.2745  -34.2223  -13.7503 C.3       3 GLC5        0.0000 
     45 CA        -23.9390  -35.5690  -14.5620 C.3       9 GLL5        0.0000 
     46 CA        -25.6495  -38.2982  -14.4390 C.3       3 GLC5        0.0000 
     47 CA        -25.1050  -36.3080  -14.0530 C.3       9 GLL5        0.0000 
     48 CA        -25.5720  -40.3230  -14.4310 C.3       6 GLP5        0.0000 
     49 CA        -23.9280  -37.0661  -15.5968 C.3       3 GLC5        0.0000 
@<TRIPOS>BOND
@<TRIPOS>SUBSTRUCTURE
     1 ALC1       15 GROUP        1 X    ALC  0     ROOT ALC X 1
     2 SEC2        1 GROUP        1 X    SEC  0     **** SEC X 2
     3 GLC5        7 GROUP        1 X    GLC  0     **** GLC X 6
     4 ALP1       17 GROUP        1 Y    ALP  0     ROOT ALP Y 8
     5 SEP2        3 GROUP        1 Y    SEP  0     **** SEP Y 9
     6 GLP5        9 GROUP        1 Y    GLP  0     **** GLP Y 13
     7 ALL1       16 GROUP        1 Z    ALL  0     ROOT ALL Z 15
     8 SEL2        2 GROUP        1 Z    SEL  0     **** SEL Z 16
     9 GLL5        8 GROUP        1 Z    GLL  0     **** GLL Z 20
@<TRIPOS>SET

