#    Name: 2xxb_AMP_2_ligand
#    Modification time : Tue Mar 25 07:03:51 2014

@<TRIPOS>MOLECULE
2xxb_AMP_2_ligand
   35    37     1     0     0
SMALL
NO_CHARGES


@<TRIPOS>ATOM
      1 P         -15.8370  -37.2490  -13.2300 P.3       1 AMP1332     0.0000 
      2 O1P       -15.6330  -37.4590  -14.7120 O.co2     1 AMP1332     0.0000 
      3 O2P       -16.2620  -38.5060  -12.5130 O.co2     1 AMP1332     0.0000 
      4 O3P       -14.7980  -36.4280  -12.5180 O.co2     1 AMP1332     0.0000 
      5 O5'       -17.1290  -36.3150  -13.1410 O.3       1 AMP1332     0.0000 
      6 C5'       -18.4450  -36.8370  -13.2720 C.3       1 AMP1332     0.0000 
      7 C4'       -19.3460  -35.7520  -13.7780 C.3       1 AMP1332     0.0000 
      8 O4'       -20.6670  -36.2640  -14.1120 O.3       1 AMP1332     0.0000 
      9 C3'       -19.5590  -34.6340  -12.7520 C.3       1 AMP1332     0.0000 
     10 O3'       -19.1640  -33.3860  -13.3260 O.3       1 AMP1332     0.0000 
     11 C2'       -21.0680  -34.6560  -12.4910 C.3       1 AMP1332     0.0000 
     12 O2'       -21.6630  -33.4110  -12.2300 O.3       1 AMP1332     0.0000 
     13 C1'       -21.5950  -35.2490  -13.7900 C.3       1 AMP1332     0.0000 
     14 N9        -22.9500  -35.7960  -13.7000 N.pl3     1 AMP1332     0.0000 
     15 C8        -23.4230  -36.5850  -12.7150 C.2       1 AMP1332     0.0000 
     16 N7        -24.7250  -36.9020  -12.9160 N.2       1 AMP1332     0.0000 
     17 C5        -25.1050  -36.3080  -14.0530 C.ar      1 AMP1332     0.0000 
     18 C6        -26.3490  -36.2390  -14.8410 C.ar      1 AMP1332     0.0000 
     19 N6        -27.4640  -36.8810  -14.4320 N.pl3     1 AMP1332     0.0000 
     20 N1        -26.3310  -35.5060  -15.9680 N.ar      1 AMP1332     0.0000 
     21 C2        -25.2300  -34.8520  -16.3790 C.ar      1 AMP1332     0.0000 
     22 N3        -24.0650  -34.8830  -15.7160 N.ar      1 AMP1332     0.0000 
     23 C4        -23.9390  -35.5690  -14.5620 C.ar      1 AMP1332     0.0000 
     24 H         -18.8350  -37.1923  -12.3115 H         1 AMP1332     0.0000 
     25 H         -18.4781  -37.6736  -13.9791 H         1 AMP1332     0.0000 
     26 H         -18.9054  -35.2957  -14.6624 H         1 AMP1332     0.0000 
     27 H         -19.0532  -34.8845  -11.8700 H         1 AMP1332     0.0000 
     28 H         -21.2468  -35.3990  -11.7270 H         1 AMP1332     0.0000 
     29 H         -21.5484  -34.4638  -14.5411 H         1 AMP1332     0.0000 
     30 H         -22.8929  -36.8941  -11.9452 H         1 AMP1332     0.0000 
     31 H         -28.2623  -36.8001  -15.0288 H         1 AMP1332     0.0000 
     32 H         -27.3925  -37.3804  -13.5686 H         1 AMP1332     0.0000 
     33 H         -25.2883  -34.2804  -17.2777 H         1 AMP1332     0.0000 
     34 H         -19.7951  -33.2404  -14.0879 H         1 AMP1332     0.0000 
     35 H         -21.7362  -32.9670  -13.1230 H         1 AMP1332     0.0000 
@<TRIPOS>BOND
     1    2    1 ar   
     2    3    1 ar   
     3    4    1 ar   
     4    5    1 1    
     5    6    5 1    
     6    7    6 1    
     7   24    6 1    
     8   25    6 1    
     9    8    7 1    
    10    9    7 1    
    11   26    7 1    
    12   13    8 1    
    13   10    9 1    
    14   11    9 1    
    15   27    9 1    
    16   34   10 1    
    17   12   11 1    
    18   13   11 1    
    19   28   11 1    
    20   35   12 1    
    21   14   13 1    
    22   29   13 1    
    23   15   14 1    
    24   23   14 1    
    25   16   15 2    
    26   30   15 1    
    27   17   16 1    
    28   18   17 ar   
    29   23   17 ar   
    30   19   18 1    
    31   20   18 ar   
    32   31   19 1    
    33   32   19 1    
    34   21   20 ar   
    35   22   21 ar   
    36   33   21 1    
    37   23   22 ar   
@<TRIPOS>SUBSTRUCTURE
     1 AMP1332     1 GROUP   
@<TRIPOS>SET

