#    Name: 3ZUN_1_CAVITY_N1_6.mol2
#    Modification time : Tue Mar 11 15:40:16 2014

@<TRIPOS>MOLECULE
3ZUN_1_CAVITY_N1_6.mol2
   64     0     5     0     0
SMALL
NO_CHARGES


@<TRIPOS>ATOM
      1 CA         51.2975   14.1077    8.3291 C.3       4 GLY6        0.0000 
      2 O          49.9525   14.4784    8.8800 O.2       2 ALA2        0.0000 
      3 CA         53.3259   12.5090    6.1891 C.3       4 GLY6        0.0000 
      4 CA         51.9809   12.8798    6.7400 C.3       4 GLY6        0.0000 
      5 CZ         50.6360   13.2505    7.2909 C.ar      3 PHE5        0.0000 
      6 CA         49.2910   13.6213    7.8419 C.3       4 GLY6        0.0000 
      7 N          52.6644   11.6519    5.1509 N.2       2 ALA2        0.0000 
      8 DU         51.3194   12.0227    5.7019 H         5 CUB7        0.0000 
      9 CZ         49.9744   12.3934    6.2528 C.ar      3 PHE5        0.0000 
     10 CA         48.6294   12.7642    6.8037 C.3       4 GLY6        0.0000 
     11 N          53.3479   10.4240    3.5619 N.2       2 ALA2        0.0000 
     12 N          51.4721   10.5862   11.1253 N.2       2 ALA2        0.0000 
     13 CA         50.1272   10.9570   11.6762 C.3       4 GLY6        0.0000 
     14 CA         48.7822   11.3277   12.2271 C.3       4 GLY6        0.0000 
     15 N          53.5006    8.9876    8.9853 N.2       2 ALA2        0.0000 
     16 N          52.1556    9.3583    9.5362 N.2       2 ALA2        0.0000 
     17 N          50.8106    9.7291   10.0871 N.2       2 ALA2        0.0000 
     18 CA         49.4656   10.0998   10.6381 C.3       4 GLY6        0.0000 
     19 O          52.8391    8.1304    7.9471 O.2       2 ALA2        0.0000 
     20 OG         51.4941    8.5012    8.4981 O.2       1 SER1        0.0000 
     21 OG         50.1491    8.8719    9.0490 O.2       1 SER1        0.0000 
     22 CA         48.8041    9.2427    9.5999 C.3       4 GLY6        0.0000 
     23 O          52.1776    7.2733    6.9090 O.2       2 ALA2        0.0000 
     24 OG         50.8326    7.6441    7.4600 O.2       1 SER1        0.0000 
     25 N          51.5304    9.4124   12.0573 N.2       2 ALA2        0.0000 
     26 CA         50.1854    9.7832   12.6083 C.3       4 GLY6        0.0000 
     27 CA         48.8404   10.1539   13.1592 C.3       4 GLY6        0.0000 
     28 OG         50.8689    8.5553   11.0192 O.2       1 SER1        0.0000 
     29 CA         49.5239    8.9260   11.5702 C.3       4 GLY6        0.0000 
     30 OG         51.5524    7.3274    9.4302 O.2       1 SER1        0.0000 
     31 CA         53.2677   13.6829    5.2570 C.3       4 GLY6        0.0000 
     32 CZ         51.9227   14.0536    5.8079 C.ar      3 PHE5        0.0000 
     33 N          52.6062   12.8257    4.2189 N.2       2 ALA2        0.0000 
     34 CZ         51.2612   13.1965    4.7698 C.ar      3 PHE5        0.0000 
     35 CZ         48.5712   13.9380    5.8717 C.ar      3 PHE5        0.0000 
     36 CA         51.3557   12.9339    9.2611 C.3       4 GLY6        0.0000 
     37 CA         50.0107   13.3046    9.8121 C.3       4 GLY6        0.0000 
     38 O          53.3842   11.3352    7.1211 O.2       2 ALA2        0.0000 
     39 CA         52.0392   11.7060    7.6721 C.3       4 GLY6        0.0000 
     40 CA         50.6942   12.0767    8.2230 C.3       4 GLY6        0.0000 
     41 DU         49.3492   12.4475    8.7739 H         5 CUB7        0.0000 
     42 CA         48.0042   12.8182    9.3249 C.3       4 GLY6        0.0000 
     43 CA         46.6592   13.1890    9.8758 C.3       4 GLY6        0.0000 
     44 O          52.7227   10.4781    6.0830 O.2       2 ALA2        0.0000 
     45 DU         51.3777   10.8488    6.6339 H         5 CUB7        0.0000 
     46 DU         48.6877   11.5903    7.7358 H         5 CUB7        0.0000 
     47 CA         47.3427   11.9611    8.2867 C.3       4 GLY6        0.0000 
     48 CA         53.4062    9.2502    4.4939 C.3       4 GLY6        0.0000 
     49 DU         50.7162    9.9917    5.5958 H         5 CUB7        0.0000 
     50 DU         49.3712   10.3624    6.1467 H         5 CUB7        0.0000 
     51 DU         48.0262   10.7332    6.6977 H         5 CUB7        0.0000 
     52 CA         51.4139   11.7601   10.1932 C.3       4 GLY6        0.0000 
     53 O          53.4424   10.1614    8.0532 O.2       2 ALA2        0.0000 
     54 N          52.0974   10.5322    8.6041 N.2       2 ALA2        0.0000 
     55 DU         50.7524   10.9029    9.1551 H         5 CUB7        0.0000 
     56 CA         49.4074   11.2737    9.7060 C.3       4 GLY6        0.0000 
     57 CA         48.0624   11.6444   10.2569 C.3       4 GLY6        0.0000 
     58 O          52.7809    9.3043    7.0151 O.2       2 ALA2        0.0000 
     59 DU         51.4359    9.6750    7.5660 H         5 CUB7        0.0000 
     60 OG         50.0909   10.0458    8.1169 O.2       1 SER1        0.0000 
     61 CA         48.7459   10.4165    8.6679 C.3       4 GLY6        0.0000 
     62 CA         50.7744    8.8179    6.5279 C.3       4 GLY6        0.0000 
     63 CA         49.4294    9.1886    7.0788 C.3       4 GLY6        0.0000 
     64 CA         48.0844    9.5594    7.6297 C.3       4 GLY6        0.0000 
@<TRIPOS>BOND
@<TRIPOS>SUBSTRUCTURE
     1 SER1       20 GROUP   
     2 ALA2        2 GROUP   
     3 PHE5        5 GROUP   
     4 GLY6        1 GROUP   
     5 CUB7        8 GROUP   
@<TRIPOS>SET

