#    Name: 3zun_ZUN_1_INTS_M
#    Modification time : Tue Mar 25 04:00:49 2014

@<TRIPOS>MOLECULE
3zun_ZUN_1_INTS_M
   50     0     9     0     0
SMALL
NO_CHARGES


@<TRIPOS>ATOM
      1 CA         57.9200    9.7190   -6.3875 C.3       3 GLC5        0.0000 
      2 CA         56.2400   10.0040   -5.2940 C.3       9 GLL5        0.0000 
      3 CA         59.6000    9.4340   -7.4810 C.3       6 GLP5        0.0000 
      4 CA         56.7135    9.8090   -3.2475 C.3       3 GLC5        0.0000 
      5 CA         57.1870    9.6140   -1.2010 C.3       6 GLP5        0.0000 
      6 N          57.8920   12.4320   -4.5700 N.am      2 SEC2        0.0000 
      7 N          56.4410   12.1970   -4.1210 N.am      8 SEL2        0.0000 
      8 N          59.3430   12.6670   -5.0190 N.am      5 SEP2        0.0000 
      9 CA         53.4995   15.0310   -2.8280 C.3       3 GLC5        0.0000 
     10 CA         53.2730   13.0400   -2.4150 C.3       9 GLL5        0.0000 
     11 CA         53.7260   17.0220   -3.2410 C.3       6 GLP5        0.0000 
     12 CA         54.8380   16.4110   -0.8695 C.3       3 GLC5        0.0000 
     13 CA         54.5420   14.8720   -0.1700 C.3       9 GLL5        0.0000 
     14 CA         55.1340   17.9500   -1.5690 C.3       6 GLP5        0.0000 
     15 CA         55.5810   17.0820    0.7155 C.3       3 GLC5        0.0000 
     16 CA         55.2670   15.2510    1.1230 C.3       9 GLL5        0.0000 
     17 CA         55.8950   18.9130    0.3080 C.3       6 GLP5        0.0000 
     18 CA         56.9040   14.5795    2.4165 C.3       3 GLC5        0.0000 
     19 CA         58.5410   13.9080    3.7100 C.3       6 GLP5        0.0000 
     20 N          57.6385   14.8735    1.8860 N.am      2 SEC2        0.0000 
     21 N          56.6350   14.8740    1.0800 N.am      8 SEL2        0.0000 
     22 N          58.6420   14.8730    2.6920 N.am      5 SEP2        0.0000 
     23 O          57.3560   15.2755    0.0620 O.2       1 ALC1        0.0000 
     24 O          56.6350   14.8740    1.0800 O.2       7 ALL1        0.0000 
     25 O          58.0770   15.6770   -0.9560 O.2       4 ALP1        0.0000 
     26 CA         52.7530   15.3285    2.4115 C.3       3 GLC5        0.0000 
     27 CA         54.5890   14.4160    2.1580 C.3       9 GLL5        0.0000 
     28 CA         50.9170   16.2410    2.6650 C.3       6 GLP5        0.0000 
     29 CA         55.5905   11.9920    0.3850 C.3       3 GLC5        0.0000 
     30 CA         54.2940   13.1180    1.4210 C.3       9 GLL5        0.0000 
     31 CA         56.8870   10.8660   -0.6510 C.3       6 GLP5        0.0000 
     32 N          51.6185   14.4595    1.5885 N.am      2 SEC2        0.0000 
     33 N          51.9440   13.1780    1.7490 N.am      8 SEL2        0.0000 
     34 N          51.2930   15.7410    1.4280 N.am      5 SEP2        0.0000 
     35 O          54.4280   11.5460    3.2950 O.2       1 ALC1        0.0000 
     36 O          53.1270   11.5010    2.7520 O.2       7 ALL1        0.0000 
     37 O          55.7290   11.5910    3.8380 O.2       4 ALP1        0.0000 
     38 CA         54.2245   13.2055    6.2070 C.3       3 GLC5        0.0000 
     39 CA         52.4680   12.5990    5.2480 C.3       9 GLL5        0.0000 
     40 CA         55.9810   13.8120    7.1660 C.3       6 GLP5        0.0000 
     41 N          50.5025   15.2850   10.0410 N.am      2 SEC2        0.0000 
     42 N          51.2440   14.7110    8.7570 N.am      8 SEL2        0.0000 
     43 N          49.7610   15.8590   11.3250 N.am      5 SEP2        0.0000 
     44 CA         55.1755   15.9262    2.9283 C.3       3 GLC5        0.0000 
     45 CA         55.4230   17.0190    4.2160 C.3       6 GLP5        0.0000 
     46 CA         56.3143   13.1645    2.4398 C.3       3 GLC5        0.0000 
     47 CA         58.1870   12.5620    3.0900 C.3       6 GLP5        0.0000 
     48 CA         52.6803   13.4548    8.2860 C.3       3 GLC5        0.0000 
     49 CA         52.1140   13.3240    6.3890 C.3       9 GLL5        0.0000 
     50 CA         53.8700   13.7050    9.8940 C.3       6 GLP5        0.0000 
@<TRIPOS>BOND
@<TRIPOS>SUBSTRUCTURE
     1 ALC1       23 GROUP        1 X    ALC  0     ROOT ALC X 1
     2 SEC2        6 GROUP        1 X    SEC  0     **** SEC X 2
     3 GLC5        1 GROUP        1 X    GLC  0     **** GLC X 6
     4 ALP1       25 GROUP        1 Y    ALP  0     ROOT ALP Y 8
     5 SEP2        8 GROUP        1 Y    SEP  0     **** SEP Y 9
     6 GLP5        3 GROUP        1 Y    GLP  0     **** GLP Y 13
     7 ALL1       24 GROUP        1 Z    ALL  0     ROOT ALL Z 15
     8 SEL2        7 GROUP        1 Z    SEL  0     **** SEL Z 16
     9 GLL5        2 GROUP        1 Z    GLL  0     **** GLL Z 20
@<TRIPOS>SET

