#    Name: 3zun_ZUN_1_ligand
#    Modification time : Tue Mar 25 04:00:49 2014

@<TRIPOS>MOLECULE
3zun_ZUN_1_ligand
   48    50     1     0     0
SMALL
NO_CHARGES


@<TRIPOS>ATOM
      1 CAA        56.2400   10.0040   -5.2940 C.3       1 ZUN1205     0.0000 
      2 CAW        55.6940   11.1440   -4.4390 C.2       1 ZUN1205     0.0000 
      3 CAK        54.4590   11.2380   -3.9100 C.2       1 ZUN1205     0.0000 
      4 NAQ        56.4410   12.1970   -4.1210 N.2       1 ZUN1205     0.0000 
      5 OAT        55.6120   13.0200   -3.3180 O.3       1 ZUN1205     0.0000 
      6 CAZ        54.4010   12.3960   -3.2310 C.2       1 ZUN1205     0.0000 
      7 CAM        53.2730   13.0400   -2.4150 C.3       1 ZUN1205     0.0000 
      8 CAU        53.5140   12.6650   -0.9220 C.2       1 ZUN1205     0.0000 
      9 OAB        53.2050   11.5230   -0.5870 O.2       1 ZUN1205     0.0000 
     10 N          54.0660   13.4950    0.0240 N.am      1 ZUN1205     0.0000 
     11 CD2        54.5420   14.8720   -0.1700 C.3       1 ZUN1205     0.0000 
     12 CG         55.2670   15.2510    1.1230 C.3       1 ZUN1205     0.0000 
     13 OD1        56.6350   14.8740    1.0800 O.3       1 ZUN1205     0.0000 
     14 CB         54.5890   14.4160    2.1580 C.3       1 ZUN1205     0.0000 
     15 CA         54.2940   13.1180    1.4210 C.3       1 ZUN1205     0.0000 
     16 C          52.9990   12.5900    1.9860 C.2       1 ZUN1205     0.0000 
     17 O          51.9440   13.1780    1.7490 O.2       1 ZUN1205     0.0000 
     18 NAR        53.1270   11.5010    2.7520 N.am      1 ZUN1205     0.0000 
     19 CAL        51.9710   10.8660    3.4180 C.3       1 ZUN1205     0.0000 
     20 CAX        51.5870   11.6590    4.6800 C.ar      1 ZUN1205     0.0000 
     21 CAE        52.4680   12.5990    5.2480 C.ar      1 ZUN1205     0.0000 
     22 CAG        52.1140   13.3240    6.3890 C.ar      1 ZUN1205     0.0000 
     23 CAF        50.3430   11.4300    5.2640 C.ar      1 ZUN1205     0.0000 
     24 CAH        49.9840   12.1480    6.4030 C.ar      1 ZUN1205     0.0000 
     25 CAY        50.8670   13.0850    6.9670 C.ar      1 ZUN1205     0.0000 
     26 NBB        50.4600   13.7420    8.0500 N.pl3     1 ZUN1205     0.0000 
     27 OAS        49.1410   13.5200    8.4740 O.2       1 ZUN1205     0.0000 
     28 OAD        51.2440   14.7110    8.7570 O.2       1 ZUN1205     0.0000 
     29 H          53.7515   10.5949   -4.0022 H         1 ZUN1205     0.0000 
     30 H          52.3285   12.6447   -2.7240 H         1 ZUN1205     0.0000 
     31 H          53.3120   14.1040   -2.5162 H         1 ZUN1205     0.0000 
     32 H          53.7204   15.5498   -0.3161 H         1 ZUN1205     0.0000 
     33 H          55.2393   14.9304   -0.9862 H         1 ZUN1205     0.0000 
     34 H          55.1015   16.2639    1.3265 H         1 ZUN1205     0.0000 
     35 H          53.6753   14.8657    2.4629 H         1 ZUN1205     0.0000 
     36 H          55.2455   14.2204    2.9709 H         1 ZUN1205     0.0000 
     37 H          55.0640   12.4499    1.5402 H         1 ZUN1205     0.0000 
     38 H          54.0450   11.0418    2.9210 H         1 ZUN1205     0.0000 
     39 H          52.2103    9.8450    3.7159 H         1 ZUN1205     0.0000 
     40 H          51.1073   10.8431    2.7531 H         1 ZUN1205     0.0000 
     41 H          53.3905   12.7520    4.8106 H         1 ZUN1205     0.0000 
     42 H          52.7499   14.0081    6.7870 H         1 ZUN1205     0.0000 
     43 H          49.7014   10.7438    4.8620 H         1 ZUN1205     0.0000 
     44 H          49.0641   11.9945    6.8398 H         1 ZUN1205     0.0000 
     45 H          57.1871   10.1676   -5.5702 H         1 ZUN1205     0.0000 
     46 H          56.2238    9.1321   -4.8046 H         1 ZUN1205     0.0000 
     47 H          55.7077    9.8800   -6.1315 H         1 ZUN1205     0.0000 
     48 H          57.0312   15.4218    0.3432 H         1 ZUN1205     0.0000 
@<TRIPOS>BOND
     1    2    1 1    
     2   45    1 1    
     3   46    1 1    
     4   47    1 1    
     5    3    2 1    
     6    4    2 2    
     7    6    3 2    
     8   29    3 1    
     9    5    4 1    
    10    6    5 1    
    11    7    6 1    
    12    8    7 1    
    13   30    7 1    
    14   31    7 1    
    15    9    8 2    
    16   10    8 am   
    17   11   10 1    
    18   15   10 1    
    19   12   11 1    
    20   32   11 1    
    21   33   11 1    
    22   13   12 1    
    23   14   12 1    
    24   34   12 1    
    25   48   13 1    
    26   15   14 1    
    27   35   14 1    
    28   36   14 1    
    29   16   15 1    
    30   37   15 1    
    31   17   16 2    
    32   18   16 am   
    33   19   18 1    
    34   38   18 1    
    35   20   19 1    
    36   39   19 1    
    37   40   19 1    
    38   21   20 ar   
    39   23   20 ar   
    40   22   21 ar   
    41   41   21 1    
    42   25   22 ar   
    43   42   22 1    
    44   24   23 ar   
    45   43   23 1    
    46   25   24 ar   
    47   44   24 1    
    48   26   25 1    
    49   27   26 1    
    50   28   26 1    
@<TRIPOS>SUBSTRUCTURE
     1 ZUN1205     1 GROUP   
@<TRIPOS>SET

