#    Name: 2bgm_NAJ_1_INTS_M
#    Modification time : Mon Mar 24 20:57:24 2014

@<TRIPOS>MOLECULE
2bgm_NAJ_1_INTS_M
   78     0     9     0     0
SMALL
NO_CHARGES


@<TRIPOS>ATOM
      1 N           2.2365   11.3070   14.0690 N.am      2 SEC2        0.0000 
      2 N           1.8990   10.5040   15.4970 N.am      8 SEL2        0.0000 
      3 N           2.5740   12.1100   12.6410 N.am      5 SEP2        0.0000 
      4 CA          7.6035    8.4855   15.4710 C.3       3 GLC5        0.0000 
      5 CA          5.9580    8.3440   16.2790 C.3       9 GLL5        0.0000 
      6 CA          9.2490    8.6270   14.6630 C.3       6 GLP5        0.0000 
      7 CA          4.3440    8.6580   14.2670 C.3       3 GLC5        0.0000 
      8 CA          4.8480    7.3430   15.9520 C.3       9 GLL5        0.0000 
      9 CA          3.8400    9.9730   12.5820 C.3       6 GLP5        0.0000 
     10 O           5.9485    4.6465   14.7545 O.2       1 ALC1        0.0000 
     11 O           5.0540    4.8780   15.7800 O.2       7 ALL1        0.0000 
     12 O           6.8430    4.4150   13.7290 O.2       4 ALP1        0.0000 
     13 CA          7.9865    7.4485   15.7555 C.3       3 GLC5        0.0000 
     14 CA          6.7240    6.2700   16.8480 C.3       9 GLL5        0.0000 
     15 CA          7.5660    2.5505   18.3695 C.3       3 GLC5        0.0000 
     16 CA          8.6310    4.0920   18.8820 C.3       9 GLL5        0.0000 
     17 CA          6.5010    1.0090   17.8570 C.3       6 GLP5        0.0000 
     18 CA          9.4805    1.8360   17.7485 C.3       3 GLC5        0.0000 
     19 CA          9.7590    3.3390   19.1030 C.3       9 GLL5        0.0000 
     20 CA          9.2020    0.3330   16.3940 C.3       6 GLP5        0.0000 
     21 CA         11.2380    1.9445   18.3650 C.3       3 GLC5        0.0000 
     22 CA         12.7170    0.5500   17.6270 C.3       6 GLP5        0.0000 
     23 CA         11.4635    4.2325   19.4810 C.3       3 GLC5        0.0000 
     24 CA         13.1680    5.1260   19.8590 C.3       6 GLP5        0.0000 
     25 O          10.9075    1.3825   20.3095 O.2       1 ALC1        0.0000 
     26 O           9.9940    2.8020   20.2930 O.2       7 ALL1        0.0000 
     27 O          11.8210   -0.0370   20.3260 O.2       4 ALP1        0.0000 
     28 CA         10.0895    3.8060   14.8905 C.3       3 GLC5        0.0000 
     29 CA         10.4460    3.8990   16.9230 C.3       9 GLL5        0.0000 
     30 CA          9.7330    3.7130   12.8580 C.3       6 GLP5        0.0000 
     31 CA          9.8240    2.1160   16.6585 C.3       3 GLC5        0.0000 
     32 CA         11.5815    2.2245   17.2750 C.3       3 GLC5        0.0000 
     33 CA         12.2415    4.4150   17.1820 C.3       3 GLC5        0.0000 
     34 CA         14.0370    4.9310   17.4410 C.3       6 GLP5        0.0000 
     35 CA          7.7040    3.1200   17.0725 C.3       3 GLC5        0.0000 
     36 CA          8.4310    4.7360   17.6930 C.3       9 GLL5        0.0000 
     37 CA          6.9770    1.5040   16.4520 C.3       6 GLP5        0.0000 
     38 N           4.1280   14.0545   14.4140 N.am      2 SEC2        0.0000 
     39 N           4.0690   13.3080   15.6970 N.am      8 SEL2        0.0000 
     40 N           4.1870   14.8010   13.1310 N.am      5 SEP2        0.0000 
     41 CA          7.9040   15.6860   19.0310 C.3       3 GLC5        0.0000 
     42 CA          6.9250   14.0560   18.9380 C.3       9 GLL5        0.0000 
     43 CA          8.8830   17.3160   19.1240 C.3       6 GLP5        0.0000 
     44 N           8.5695   13.6635   22.1770 N.am      2 SEC2        0.0000 
     45 N           8.0920   13.3210   20.9000 N.am      8 SEL2        0.0000 
     46 N           9.0470   14.0060   23.4540 N.am      5 SEP2        0.0000 
     47 O           9.1940   12.1020   21.0435 O.2       1 ALC1        0.0000 
     48 O           8.0920   13.3210   20.9000 O.2       7 ALL1        0.0000 
     49 O          10.2960   10.8830   21.1870 O.2       4 ALP1        0.0000 
     50 N           5.3990   14.3175   23.3915 N.am      2 SEC2        0.0000 
     51 N           5.9030   13.6330   22.3950 N.am      8 SEL2        0.0000 
     52 N           4.8950   15.0020   24.3880 N.am      5 SEP2        0.0000 
     53 N           7.4750   13.8195   22.9245 N.am      2 SEC2        0.0000 
     54 CA          5.6810   16.2040   18.6840 C.3       3 GLC5        0.0000 
     55 CA          6.1000   15.3890   20.7220 C.3       9 GLL5        0.0000 
     56 CA          5.2620   17.0190   16.6460 C.3       6 GLP5        0.0000 
     57 CA          7.4915   16.3525   19.9230 C.3       3 GLC5        0.0000 
     58 CA          4.4880   16.6165   18.5925 C.3       3 GLC5        0.0000 
     59 CA          3.7140   16.2140   20.5390 C.3       9 GLL5        0.0000 
     60 N           0.0575   19.0140   19.3220 N.am      2 SEC2        0.0000 
     61 N           0.5030   17.9270   20.1660 N.am      8 SEL2        0.0000 
     62 N          -0.3880   20.1010   18.4780 N.am      5 SEP2        0.0000 
     63 CA          4.1265   19.9095   20.3545 C.3       3 GLC5        0.0000 
     64 CA          3.0430   18.3150   21.4990 C.3       9 GLL5        0.0000 
     65 CA          5.2100   21.5040   19.2100 C.3       6 GLP5        0.0000 
     66 CA          7.1075   17.4370   20.4280 C.3       3 GLC5        0.0000 
     67 CA          5.3320   17.5580   21.7320 C.3       9 GLL5        0.0000 
     68 CA          9.3880    5.7674   19.1809 C.3       3 GLC5        0.0000 
     69 CA          9.9630    7.3090   20.0190 C.3       6 GLP5        0.0000 
     70 CA          5.9060   15.3915   17.4917 C.3       3 GLC5        0.0000 
     71 CA          6.1750   13.4720   17.7370 C.3       9 GLL5        0.0000 
     72 CA          7.0128   11.9585   21.3047 C.3       3 GLC5        0.0000 
     73 CA          6.8420   13.2420   20.2130 C.3       9 GLL5        0.0000 
     74 CA          7.7200   10.3220   21.9920 C.3       6 GLP5        0.0000 
     75 CA          5.7642   18.3025   23.4393 C.3       3 GLC5        0.0000 
     76 CA          6.6930   18.5740   25.0220 C.3       6 GLP5        0.0000 
     77 CA          6.0368   19.3715   21.1242 C.3       3 GLC5        0.0000 
     78 CA          7.2380   20.7120   20.3920 C.3       6 GLP5        0.0000 
@<TRIPOS>BOND
@<TRIPOS>SUBSTRUCTURE
     1 ALC1       10 GROUP        1 X    ALC  0     ROOT ALC X 1
     2 SEC2        1 GROUP        1 X    SEC  0     **** SEC X 2
     3 GLC5        4 GROUP        1 X    GLC  0     **** GLC X 6
     4 ALP1       12 GROUP        1 Y    ALP  0     ROOT ALP Y 8
     5 SEP2        3 GROUP        1 Y    SEP  0     **** SEP Y 9
     6 GLP5        6 GROUP        1 Y    GLP  0     **** GLP Y 13
     7 ALL1       11 GROUP        1 Z    ALL  0     ROOT ALL Z 15
     8 SEL2        2 GROUP        1 Z    SEL  0     **** SEL Z 16
     9 GLL5        5 GROUP        1 Z    GLL  0     **** GLL Z 20
@<TRIPOS>SET

