#    Name: 2bgm_NAJ_1_ligand
#    Modification time : Mon Mar 24 20:57:24 2014

@<TRIPOS>MOLECULE
2bgm_NAJ_1_ligand
   71    75     1     0     0
SMALL
NO_CHARGES


@<TRIPOS>ATOM
      1 PA          2.8450   10.3420   16.6190 P.3       1 NAJ1300     0.0000 
      2 O1A         2.5430    9.3720   17.6920 O.co2     1 NAJ1300     0.0000 
      3 O2A         1.8990   10.5040   15.4970 O.co2     1 NAJ1300     0.0000 
      4 O5B         4.3430   10.1060   16.0510 O.3       1 NAJ1300     0.0000 
      5 C5B         5.4260    9.6390   16.8830 C.3       1 NAJ1300     0.0000 
      6 C4B         5.9580    8.3440   16.2790 C.3       1 NAJ1300     0.0000 
      7 O4B         6.8180    7.6600   17.2080 O.3       1 NAJ1300     0.0000 
      8 C3B         4.8480    7.3430   15.9520 C.3       1 NAJ1300     0.0000 
      9 O3B         4.6790    7.1960   14.5380 O.3       1 NAJ1300     0.0000 
     10 C2B         5.2650    6.0260   16.6080 C.3       1 NAJ1300     0.0000 
     11 O2B         5.0540    4.8780   15.7800 O.3       1 NAJ1300     0.0000 
     12 C1B         6.7240    6.2700   16.8480 C.3       1 NAJ1300     0.0000 
     13 N9A         7.2610    5.3410   17.8550 N.pl3     1 NAJ1300     0.0000 
     14 C8A         6.7710    5.0340   19.0670 C.2       1 NAJ1300     0.0000 
     15 N7A         7.6280    4.2520   19.7320 N.2       1 NAJ1300     0.0000 
     16 C5A         8.6310    4.0920   18.8820 C.ar      1 NAJ1300     0.0000 
     17 C6A         9.7590    3.3390   19.1030 C.ar      1 NAJ1300     0.0000 
     18 N6A         9.9940    2.8020   20.2930 N.pl3     1 NAJ1300     0.0000 
     19 N1A        10.6420    3.2700   18.0820 N.pl3     1 NAJ1300     0.0000 
     20 C2A        10.4460    3.8990   16.9230 C.ar      1 NAJ1300     0.0000 
     21 N3A         9.3560    4.6210   16.7250 N.ar      1 NAJ1300     0.0000 
     22 C4A         8.4310    4.7360   17.6930 C.ar      1 NAJ1300     0.0000 
     23 O3          2.9550   11.7540   17.3810 O.3       1 NAJ1300     0.0000 
     24 PN          3.5550   13.2260   17.0820 P.3       1 NAJ1300     0.0000 
     25 O1N         2.5120   14.1900   17.5160 O.co2     1 NAJ1300     0.0000 
     26 O2N         4.0690   13.3080   15.6970 O.co2     1 NAJ1300     0.0000 
     27 O5D         4.8110   13.1880   18.1010 O.3       1 NAJ1300     0.0000 
     28 C5D         6.1750   13.4720   17.7370 C.3       1 NAJ1300     0.0000 
     29 C4D         6.9250   14.0560   18.9380 C.3       1 NAJ1300     0.0000 
     30 O4D         6.3800   15.3460   19.3070 O.3       1 NAJ1300     0.0000 
     31 C3D         6.8420   13.2420   20.2130 C.3       1 NAJ1300     0.0000 
     32 O3D         8.0920   13.3210   20.9000 O.3       1 NAJ1300     0.0000 
     33 C2D         5.7690   13.9480   21.0220 C.3       1 NAJ1300     0.0000 
     34 O2D         5.9030   13.6330   22.3950 O.3       1 NAJ1300     0.0000 
     35 C1D         6.1000   15.3890   20.7220 C.3       1 NAJ1300     0.0000 
     36 N1N         5.0320   16.3800   21.0220 N.pl3     1 NAJ1300     0.0000 
     37 C2N         3.7140   16.2140   20.5390 C.ar      1 NAJ1300     0.0000 
     38 C3N         2.7280   17.1850   20.7420 C.ar      1 NAJ1300     0.0000 
     39 C7N         1.4480   17.1850   19.8870 C.2       1 NAJ1300     0.0000 
     40 O7N         0.5030   17.9270   20.1660 O.2       1 NAJ1300     0.0000 
     41 N7N         1.4330   16.3550   18.8470 N.am      1 NAJ1300     0.0000 
     42 C4N         3.0430   18.3150   21.4990 C.ar      1 NAJ1300     0.0000 
     43 C5N         4.3390   18.5040   21.9810 C.ar      1 NAJ1300     0.0000 
     44 C6N         5.3320   17.5580   21.7320 C.ar      1 NAJ1300     0.0000 
     45 H           5.0901    9.4296   17.8955 H         1 NAJ1300     0.0000 
     46 H           6.2408   10.3579   16.9187 H         1 NAJ1300     0.0000 
     47 H           6.4883    8.5598   15.3692 H         1 NAJ1300     0.0000 
     48 H           3.9504    7.6815   16.4402 H         1 NAJ1300     0.0000 
     49 H           4.7800    5.9707   17.5568 H         1 NAJ1300     0.0000 
     50 H           7.2293    6.1113   15.8890 H         1 NAJ1300     0.0000 
     51 H           5.9052    5.3419   19.4132 H         1 NAJ1300     0.0000 
     52 H          10.8156    2.2367   20.3661 H         1 NAJ1300     0.0000 
     53 H           9.3283    3.0111   21.0093 H         1 NAJ1300     0.0000 
     54 H          11.5215    2.6917   18.2156 H         1 NAJ1300     0.0000 
     55 H          11.1687    3.8171   16.1612 H         1 NAJ1300     0.0000 
     56 H           6.2299   14.2000   16.9209 H         1 NAJ1300     0.0000 
     57 H           6.7030   12.5668   17.4196 H         1 NAJ1300     0.0000 
     58 H           7.9722   14.1770   18.6836 H         1 NAJ1300     0.0000 
     59 H           6.5323   12.2728   19.9898 H         1 NAJ1300     0.0000 
     60 H           4.8351   13.7164   20.5975 H         1 NAJ1300     0.0000 
     61 H           7.0144   15.6351   21.2460 H         1 NAJ1300     0.0000 
     62 H           3.4785   15.3483   20.0219 H         1 NAJ1300     0.0000 
     63 H           2.2445   15.7827   18.7290 H         1 NAJ1300     0.0000 
     64 H           0.6116   16.3784   18.2772 H         1 NAJ1300     0.0000 
     65 H           2.3144   19.0132   21.7028 H         1 NAJ1300     0.0000 
     66 H           4.5629   19.3500   22.5253 H         1 NAJ1300     0.0000 
     67 H           6.2910   17.7158   22.0663 H         1 NAJ1300     0.0000 
     68 H           4.4306    6.2364   14.4055 H         1 NAJ1300     0.0000 
     69 H           5.8198    4.8786   15.1369 H         1 NAJ1300     0.0000 
     70 H           8.5004   12.4138   20.7990 H         1 NAJ1300     0.0000 
     71 H           6.8886   13.6286   22.5644 H         1 NAJ1300     0.0000 
@<TRIPOS>BOND
     1    2    1 ar   
     2    3    1 ar   
     3    4    1 1    
     4   23    1 1    
     5    5    4 1    
     6    6    5 1    
     7   45    5 1    
     8   46    5 1    
     9    7    6 1    
    10    8    6 1    
    11   47    6 1    
    12   12    7 1    
    13    9    8 1    
    14   10    8 1    
    15   48    8 1    
    16   68    9 1    
    17   11   10 1    
    18   12   10 1    
    19   49   10 1    
    20   69   11 1    
    21   13   12 1    
    22   50   12 1    
    23   14   13 1    
    24   22   13 1    
    25   15   14 2    
    26   51   14 1    
    27   16   15 1    
    28   17   16 ar   
    29   22   16 ar   
    30   18   17 1    
    31   19   17 ar   
    32   52   18 1    
    33   53   18 1    
    34   20   19 ar   
    35   54   19 1    
    36   21   20 ar   
    37   55   20 1    
    38   22   21 ar   
    39   24   23 1    
    40   25   24 ar   
    41   26   24 ar   
    42   27   24 1    
    43   28   27 1    
    44   29   28 1    
    45   56   28 1    
    46   57   28 1    
    47   30   29 1    
    48   31   29 1    
    49   58   29 1    
    50   35   30 1    
    51   32   31 1    
    52   33   31 1    
    53   59   31 1    
    54   70   32 1    
    55   34   33 1    
    56   35   33 1    
    57   60   33 1    
    58   71   34 1    
    59   36   35 1    
    60   61   35 1    
    61   37   36 ar   
    62   44   36 ar   
    63   38   37 ar   
    64   62   37 1    
    65   39   38 1    
    66   42   38 ar   
    67   40   39 2    
    68   41   39 am   
    69   63   41 1    
    70   64   41 1    
    71   43   42 ar   
    72   65   42 1    
    73   44   43 ar   
    74   66   43 1    
    75   67   44 1    
@<TRIPOS>SUBSTRUCTURE
     1 NAJ1300     1 GROUP   
@<TRIPOS>SET

