#    Name: 3n2e_OSA_2_INTS_M
#    Modification time : Tue Mar 25 00:33:39 2014

@<TRIPOS>MOLECULE
3n2e_OSA_2_INTS_M
   48     0     9     0     0
SMALL
NO_CHARGES


@<TRIPOS>ATOM
      1 CA         72.1655    8.4030   15.2170 C.3       3 GLC5        0.0000 
      2 CA         72.0630    7.4190   13.9240 C.3       9 GLL5        0.0000 
      3 CA         72.2680    9.3870   16.5100 C.3       6 GLP5        0.0000 
      4 CA         72.5220    5.3435   14.6350 C.3       3 GLC5        0.0000 
      5 CA         72.9810    3.2680   15.3460 C.3       6 GLP5        0.0000 
      6 CA         70.3525    9.9130   13.6765 C.3       3 GLC5        0.0000 
      7 CA         69.2700    9.5700   11.8000 C.3       9 GLL5        0.0000 
      8 CA         71.4350   10.2560   15.5530 C.3       6 GLP5        0.0000 
      9 N          74.1455   13.0735    9.0405 N.am      1 SEC2        0.0000 
     10 N          73.0060   12.4390    9.9310 N.am      7 SEL2        0.0000 
     11 N          75.2850   13.7080    8.1500 N.am      4 SEP2        0.0000 
     12 NZ         69.8535   14.6985   10.2915 N.4       2 LYC4        0.0000 
     13 NZ         71.0210   13.6710   10.4610 N.4       8 LYL4        0.0000 
     14 NZ         67.9740   15.3930   11.1270 N.4       5 LYP4        0.0000 
     15 N          69.8535   14.6985   10.2915 N.am      1 SEC2        0.0000 
     16 N          71.0210   13.6710   10.4610 N.am      7 SEL2        0.0000 
     17 N          68.6860   15.7260   10.1220 N.am      4 SEP2        0.0000 
     18 N          69.7145   14.0950   11.2160 N.am      1 SEC2        0.0000 
     19 N          68.4080   14.5190   11.9710 N.am      4 SEP2        0.0000 
     20 CA         70.8268    8.8260   14.5972 C.3       3 GLC5        0.0000 
     21 CA         69.7370    7.7610   13.2860 C.3       9 GLL5        0.0000 
     22 CA         68.8656    6.7565   12.7649 C.3       3 GLC5        0.0000 
     23 CA         70.1840    8.8500   12.5140 C.3       9 GLL5        0.0000 
     24 CA         67.5300    5.3900   12.4520 C.3       6 GLP5        0.0000 
     25 CA         71.1437    8.4395   10.5718 C.3       3 GLC5        0.0000 
     26 CA         71.5390    9.2230   12.4370 C.3       9 GLL5        0.0000 
     27 CA         70.5470    7.1040    9.0950 C.3       6 GLP5        0.0000 
     28 CA         73.1400    6.3295   12.6472 C.3       3 GLC5        0.0000 
     29 CA         72.4850    8.4970   13.1510 C.3       9 GLL5        0.0000 
     30 CA         74.0060    4.7010   11.7570 C.3       6 GLP5        0.0000 
     31 CA         72.3925   10.1137    9.6650 C.3       3 GLC5        0.0000 
     32 CA         71.9420   10.3270   11.6600 C.3       9 GLL5        0.0000 
     33 CA         73.3140    9.5410    8.0200 C.3       6 GLP5        0.0000 
     34 CA         71.6213    9.9014   13.8948 C.3       3 GLC5        0.0000 
     35 CA         70.4365    8.9805   10.0382 C.3       3 GLC5        0.0000 
     36 CA         71.0000   11.0460   10.9600 C.3       9 GLL5        0.0000 
     37 CA         70.0811    8.0209   10.7225 C.3       3 GLC5        0.0000 
     38 CA         65.3513   15.1505    9.9863 C.3       3 GLC5        0.0000 
     39 CA         64.3450   12.9540   10.0620 C.3       9 GLL5        0.0000 
     40 CA         66.2240   16.9200   10.4390 C.3       6 GLP5        0.0000 
     41 CA         66.3192   15.1913    9.5617 C.3       3 GLC5        0.0000 
     42 CA         65.8990   13.8630    8.4330 C.3       9 GLL5        0.0000 
     43 CA         65.9075   16.0218    8.7875 C.3       3 GLC5        0.0000 
     44 CA         66.1150   14.7200    7.3640 C.3       9 GLL5        0.0000 
     45 CA         62.6415   14.2538    6.3885 C.3       3 GLC5        0.0000 
     46 CA         63.7860   15.4650    7.4680 C.3       9 GLL5        0.0000 
     47 CA         61.6100   13.4810    4.7770 C.3       6 GLP5        0.0000 
     48 CA         64.9485   15.9733    9.2195 C.3       3 GLC5        0.0000 
@<TRIPOS>BOND
@<TRIPOS>SUBSTRUCTURE
     1 SEC2        9 GROUP        1 X    SEC  0     ROOT SEC X 2
     2 LYC4       12 GROUP        1 X    LYC  0     **** LYC X 4
     3 GLC5        1 GROUP        1 X    GLC  0     **** GLC X 6
     4 SEP2       11 GROUP        1 Y    SEP  0     ROOT SEP Y 9
     5 LYP4       14 GROUP        1 Y    LYP  0     **** LYP Y 11
     6 GLP5        3 GROUP        1 Y    GLP  0     **** GLP Y 13
     7 SEL2       10 GROUP        1 Z    SEL  0     ROOT SEL Z 16
     8 LYL4       13 GROUP        1 Z    LYL  0     **** LYL Z 18
     9 GLL5        2 GROUP        1 Z    GLL  0     **** GLL Z 20
@<TRIPOS>SET

