#    Name: 3n2e_OSA_2_ligand
#    Modification time : Tue Mar 25 00:33:39 2014

@<TRIPOS>MOLECULE
3n2e_OSA_2_ligand
   46    49     1     0     0
SMALL
NO_CHARGES


@<TRIPOS>ATOM
      1 CAA        70.7000    7.0310   13.9970 C.ar      1 OSA1001     0.0000 
      2 CAB        69.7370    7.7610   13.2860 C.ar      1 OSA1001     0.0000 
      3 CAC        70.1840    8.8500   12.5140 C.ar      1 OSA1001     0.0000 
      4 CAD        71.5390    9.2230   12.4370 C.ar      1 OSA1001     0.0000 
      5 CAE        72.4850    8.4970   13.1510 C.ar      1 OSA1001     0.0000 
      6 CAF        72.0630    7.4190   13.9240 C.ar      1 OSA1001     0.0000 
      7 NAG        72.9860    6.7440   14.6030 N.pl3     1 OSA1001     0.0000 
      8 CAH        71.9420   10.3270   11.6600 C.ar      1 OSA1001     0.0000 
      9 CAI        71.0000   11.0460   10.9600 C.ar      1 OSA1001     0.0000 
     10 CAJ        69.6520   10.6680   11.0030 C.ar      1 OSA1001     0.0000 
     11 CAK        69.2700    9.5700   11.8000 C.ar      1 OSA1001     0.0000 
     12 OAL        68.0200    9.1440   11.8900 O.3       1 OSA1001     0.0000 
     13 NAM        68.7510   11.4070   10.3230 N.2       1 OSA1001     0.0000 
     14 NAN        67.5430   11.3590   10.5830 N.2       1 OSA1001     0.0000 
     15 CAO        66.6400   12.1630    9.9970 C.ar      1 OSA1001     0.0000 
     16 CAP        65.3700   12.1470   10.5620 C.ar      1 OSA1001     0.0000 
     17 CAQ        64.3450   12.9540   10.0620 C.ar      1 OSA1001     0.0000 
     18 CAR        64.6120   13.8080    9.0050 C.ar      1 OSA1001     0.0000 
     19 CAS        65.8990   13.8630    8.4330 C.ar      1 OSA1001     0.0000 
     20 CAT        66.9300   13.0620    8.9360 C.ar      1 OSA1001     0.0000 
     21 CAU        66.1150   14.7200    7.3640 C.ar      1 OSA1001     0.0000 
     22 CAV        65.0670   15.5270    6.9080 C.ar      1 OSA1001     0.0000 
     23 CAW        63.7860   15.4650    7.4680 C.ar      1 OSA1001     0.0000 
     24 CAX        63.5600   14.5880    8.5320 C.ar      1 OSA1001     0.0000 
     25 OAY        62.3470   14.4690    9.1560 O.3       1 OSA1001     0.0000 
     26 SAZ        65.3870   16.6300    5.5740 S.o2      1 OSA1001     0.0000 
     27 OBA        64.0610   17.2810    5.1860 O.co2     1 OSA1001     0.0000 
     28 OBB        66.4760   17.6190    5.9570 O.co2     1 OSA1001     0.0000 
     29 OBC        65.9440   15.9050    4.3680 O.co2     1 OSA1001     0.0000 
     30 SBD        71.4860   12.3580    9.9890 S.o2      1 OSA1001     0.0000 
     31 OBE        73.0060   12.4390    9.9310 O.co2     1 OSA1001     0.0000 
     32 OBF        70.8190   12.1830    8.6550 O.co2     1 OSA1001     0.0000 
     33 OBG        71.0210   13.6710   10.4610 O.co2     1 OSA1001     0.0000 
     34 H          70.4316    6.2288   14.5626 H         1 OSA1001     0.0000 
     35 H          68.7613    7.5175   13.3244 H         1 OSA1001     0.0000 
     36 H          73.4730    8.7493   13.1099 H         1 OSA1001     0.0000 
     37 H          73.9275    7.0665   14.5056 H         1 OSA1001     0.0000 
     38 H          72.6553    5.9748   15.1497 H         1 OSA1001     0.0000 
     39 H          72.9343   10.5814   11.6258 H         1 OSA1001     0.0000 
     40 H          65.1770   11.5265   11.3686 H         1 OSA1001     0.0000 
     41 H          63.4107   12.9105   10.4754 H         1 OSA1001     0.0000 
     42 H          67.8680   13.1148    8.5577 H         1 OSA1001     0.0000 
     43 H          67.0305   14.7656    6.9093 H         1 OSA1001     0.0000 
     44 H          63.0349   16.0473    7.1069 H         1 OSA1001     0.0000 
     45 H          68.5974    9.7214   12.4674 H         1 OSA1001     0.0000 
     46 H          62.9244   15.0464    9.7334 H         1 OSA1001     0.0000 
@<TRIPOS>BOND
     1    2    1 ar   
     2    6    1 ar   
     3   34    1 1    
     4    3    2 ar   
     5   35    2 1    
     6    4    3 ar   
     7   11    3 ar   
     8    5    4 ar   
     9    8    4 ar   
    10    6    5 ar   
    11   36    5 1    
    12    7    6 1    
    13   37    7 1    
    14   38    7 1    
    15    9    8 ar   
    16   39    8 1    
    17   10    9 ar   
    18   30    9 1    
    19   11   10 ar   
    20   13   10 1    
    21   12   11 1    
    22   45   12 1    
    23   14   13 2    
    24   15   14 1    
    25   16   15 ar   
    26   20   15 ar   
    27   17   16 ar   
    28   40   16 1    
    29   18   17 ar   
    30   41   17 1    
    31   19   18 ar   
    32   24   18 ar   
    33   20   19 ar   
    34   21   19 ar   
    35   42   20 1    
    36   22   21 ar   
    37   43   21 1    
    38   23   22 ar   
    39   26   22 1    
    40   24   23 ar   
    41   44   23 1    
    42   25   24 1    
    43   46   25 1    
    44   27   26 ar   
    45   28   26 ar   
    46   29   26 ar   
    47   31   30 ar   
    48   32   30 ar   
    49   33   30 ar   
@<TRIPOS>SUBSTRUCTURE
     1 OSA1001     1 GROUP   
@<TRIPOS>SET

