#    Name: 2ewy_DBO_1_INTS_M
#    Modification time : Tue Mar 25 12:10:53 2014

@<TRIPOS>MOLECULE
2ewy_DBO_1_INTS_M
   94     0    12     0     0
SMALL
NO_CHARGES


@<TRIPOS>ATOM
      1 O         107.2055   26.9020    0.8645 O.2       1 ALC1        0.0000 
      2 O         107.1910   25.7420    1.6240 O.2       9 ALL1        0.0000 
      3 O         107.2200   28.0620    0.1050 O.2       5 ALP1        0.0000 
      4 CA        106.5820   28.9865    4.8455 C.3       4 GLC5        0.0000 
      5 CA        107.0370   27.1410    3.7160 C.3      12 GLL5        0.0000 
      6 CA        106.1270   30.8320    5.9750 C.3       8 GLP5        0.0000 
      7 CA        107.2970   28.7230    2.2530 C.3       4 GLC5        0.0000 
      8 CA        107.5570   30.3050    0.7900 C.3       8 GLP5        0.0000 
      9 O         108.0195   28.9540    4.1975 O.2       1 ALC1        0.0000 
     10 O         107.7130   27.5260    4.8490 O.2       9 ALL1        0.0000 
     11 O         108.3260   30.3820    3.5460 O.2       5 ALP1        0.0000 
     12 O         108.7135   28.4670    4.8870 O.2       1 ALC1        0.0000 
     13 O         109.7140   29.4080    4.9250 O.2       5 ALP1        0.0000 
     14 OD1       105.0935   29.0235    3.8820 O.co2     3 ASC3        0.0000 
     15 OD1       104.9630   27.4260    4.9820 O.co2    11 ASL3        0.0000 
     16 OD1       105.2240   30.6210    2.7820 O.co2     7 ASP3        0.0000 
     17 OD1       104.3620   28.2130    3.9385 O.co2     3 ASC3        0.0000 
     18 OD1       103.7610   29.0000    2.8950 O.co2     7 ASP3        0.0000 
     19 CA        105.1165   28.8380    6.0075 C.3       4 GLC5        0.0000 
     20 CA        104.1060   26.8440    6.0400 C.3      12 GLL5        0.0000 
     21 CA        103.8105   27.3800    7.7590 C.3       4 GLC5        0.0000 
     22 CA        103.5150   27.9160    9.4780 C.3       8 GLP5        0.0000 
     23 CA        102.4655   28.1230    6.1255 C.3       4 GLC5        0.0000 
     24 CA        100.8250   29.4020    6.2110 C.3       8 GLP5        0.0000 
     25 CA        107.7165   27.2420    7.8420 C.3       4 GLC5        0.0000 
     26 CA        105.9330   25.9350    7.8400 C.3      12 GLL5        0.0000 
     27 CA        109.5000   28.5490    7.8440 C.3       8 GLP5        0.0000 
     28 CA        106.3300   22.5990    6.8905 C.3       4 GLC5        0.0000 
     29 CA        104.6230   23.2080    7.7090 C.3      12 GLL5        0.0000 
     30 CA        108.0370   21.9900    6.0720 C.3       8 GLP5        0.0000 
     31 CA        108.6135   26.8145    8.7215 C.3       4 GLC5        0.0000 
     32 CA        107.7270   25.0800    9.5990 C.3      12 GLL5        0.0000 
     33 CA        109.7485   24.2480    9.4030 C.3       4 GLC5        0.0000 
     34 CA        111.7700   23.4160    9.2070 C.3       8 GLP5        0.0000 
     35 CA        108.7715   24.9070    7.7780 C.3       4 GLC5        0.0000 
     36 CA        109.8160   24.7340    5.9570 C.3       8 GLP5        0.0000 
     37 CA        108.3820   28.5385    1.5955 C.3       4 GLC5        0.0000 
     38 CA        109.2070   26.7720    2.4010 C.3      12 GLL5        0.0000 
     39 CA        113.0925   22.1495   -0.0260 C.3       4 GLC5        0.0000 
     40 CA        111.8280   23.9860   -0.0810 C.3      12 GLL5        0.0000 
     41 CA        114.3570   20.3130    0.0290 C.3       8 GLP5        0.0000 
     42 CA        109.5070   23.5395    3.4425 C.3       4 GLC5        0.0000 
     43 CA        110.3080   24.3500    1.9640 C.3      12 GLL5        0.0000 
     44 CA        108.7060   22.7290    4.9210 C.3       8 GLP5        0.0000 
     45 N         106.2010   22.6950    3.5670 N.am      2 SEC2        0.0000 
     46 N         106.4450   23.6250    2.3010 N.am     10 SEL2        0.0000 
     47 N         105.9570   21.7650    4.8330 N.am      6 SEP2        0.0000 
     48 CA         99.9130   22.9575   -4.0375 C.3       4 GLC5        0.0000 
     49 CA        101.9740   22.7690   -3.2870 C.3      12 GLL5        0.0000 
     50 CA         97.8520   23.1460   -4.7880 C.3       8 GLP5        0.0000 
     51 N         104.7400   26.6995   -2.8910 N.am      2 SEC2        0.0000 
     52 N         104.8060   25.2120   -2.5160 N.am     10 SEL2        0.0000 
     53 N         104.6740   28.1870   -3.2660 N.am      6 SEP2        0.0000 
     54 CA        105.3980   26.6550   -1.6985 C.3       4 GLC5        0.0000 
     55 CA        106.1290   24.8240   -2.5070 C.3      12 GLL5        0.0000 
     56 CA        104.6670   28.4860   -0.8900 C.3       8 GLP5        0.0000 
     57 CA        107.1022   23.0568    7.3635 C.3       4 GLC5        0.0000 
     58 CA        106.4990   24.8120    8.6880 C.3      12 GLL5        0.0000 
     59 CA        104.5803   22.4153    5.7900 C.3       4 GLC5        0.0000 
     60 CA        104.8110   21.0520    4.2900 C.3       8 GLP5        0.0000 
     61 CA        109.0754   25.7254    4.4034 C.3       4 GLC5        0.0000 
     62 CA        107.8880   26.1820    2.8810 C.3      12 GLL5        0.0000 
     63 CA        112.0083   27.3448   -0.5847 C.3       4 GLC5        0.0000 
     64 CA        110.7600   26.3290    0.3420 C.3      12 GLL5        0.0000 
     65 CA        112.8160   28.8140   -1.0880 C.3       8 GLP5        0.0000 
     66 CA        111.4539   27.1429    2.4209 C.3       4 GLC5        0.0000 
     67 CA        112.7040   27.9750    3.6770 C.3       8 GLP5        0.0000 
     68 CA        104.6300   22.9733    1.7437 C.3       4 GLC5        0.0000 
     69 CA        105.8990   24.2200    0.1560 C.3      12 GLL5        0.0000 
     70 CA        104.0340   21.9110    3.3120 C.3       8 GLP5        0.0000 
     71 CA        103.2655   25.5365   -0.6687 C.3       4 GLC5        0.0000 
     72 CA        104.5530   23.8510    0.1950 C.3      12 GLL5        0.0000 
     73 CA        102.4120   27.4050   -0.9470 C.3       8 GLP5        0.0000 
     74 CA        103.1723   22.0085    0.7707 C.3       4 GLC5        0.0000 
     75 CA        103.6850   23.4850   -0.9760 C.3      12 GLL5        0.0000 
     76 CA        103.1580   21.0520    2.4280 C.3       8 GLP5        0.0000 
     77 CA        101.7805   24.2150   -1.0765 C.3       4 GLC5        0.0000 
     78 CA         99.8000   24.5920   -0.4950 C.3       8 GLP5        0.0000 
     79 CA        102.9103   25.7052   -1.9257 C.3       4 GLC5        0.0000 
     80 CA        103.8370   24.1910   -2.3400 C.3      12 GLL5        0.0000 
     81 CA        101.5390   23.9002   -5.1160 C.3       4 GLC5        0.0000 
     82 CA        102.9800   23.8200   -3.4690 C.3      12 GLL5        0.0000 
     83 CA        100.6010   24.5060   -6.8540 C.3       8 GLP5        0.0000 
     84 CA        101.1385   23.9432   -1.9365 C.3       4 GLC5        0.0000 
     85 CA        103.3855   21.4692   -3.2175 C.3       4 GLC5        0.0000 
     86 CA        104.2940   19.6440   -3.0570 C.3       8 GLP5        0.0000 
     87 CA        101.0272   23.4262   -0.9350 C.3       4 GLC5        0.0000 
     88 CA        101.8210   22.0760   -1.9530 C.3      12 GLL5        0.0000 
     89 CA        103.3989   21.0822   -2.2384 C.3       4 GLC5        0.0000 
     90 CA        105.7552   26.1148   -4.3325 C.3       4 GLC5        0.0000 
     91 CA        105.0060   27.3530   -5.5100 C.3       8 GLP5        0.0000 
     92 CA        109.8792   22.9680   -4.2870 C.3       4 GLC5        0.0000 
     93 CA        108.3240   24.5270   -3.8660 C.3      12 GLL5        0.0000 
     94 CA        111.0990   21.6630   -5.3360 C.3       8 GLP5        0.0000 
@<TRIPOS>BOND
@<TRIPOS>SUBSTRUCTURE
     1 ALC1        1 GROUP        1 X    ALC  0     ROOT ALC X 1
     2 SEC2       45 GROUP        1 X    SEC  0     **** SEC X 2
     3 ASC3       14 GROUP        1 X    ASC  0     **** ASC X 3
     4 GLC5        4 GROUP        1 X    GLC  0     **** GLC X 6
     5 ALP1        3 GROUP        1 Y    ALP  0     ROOT ALP Y 8
     6 SEP2       47 GROUP        1 Y    SEP  0     **** SEP Y 9
     7 ASP3       16 GROUP        1 Y    ASP  0     **** ASP Y 10
     8 GLP5        6 GROUP        1 Y    GLP  0     **** GLP Y 13
     9 ALL1        2 GROUP        1 Z    ALL  0     ROOT ALL Z 15
    10 SEL2       46 GROUP        1 Z    SEL  0     **** SEL Z 16
    11 ASL3       15 GROUP        1 Z    ASL  0     **** ASL Z 17
    12 GLL5        5 GROUP        1 Z    GLL  0     **** GLL Z 20
@<TRIPOS>SET

