#    Name: 2ewy_DBO_1_ligand
#    Modification time : Tue Mar 25 12:10:53 2014

@<TRIPOS>MOLECULE
2ewy_DBO_1_ligand
   69    73     1     0     0
SMALL
NO_CHARGES


@<TRIPOS>ATOM
      1 N1        107.1910   25.7420    1.6240 N.am      1 DBO1001     0.0000 
      2 C3        107.8880   26.1820    2.8810 C.3       1 DBO1001     0.0000 
      3 C5        107.0370   27.1410    3.7160 C.3       1 DBO1001     0.0000 
      4 O7        107.7130   27.5260    4.8490 O.3       1 DBO1001     0.0000 
      5 C9        105.7550   26.5120    4.1790 C.3       1 DBO1001     0.0000 
      6 N12       104.9630   27.4260    4.9820 N.4       1 DBO1001     0.0000 
      7 C14       104.1060   26.8440    6.0400 C.3       1 DBO1001     0.0000 
      8 C17       104.7210   25.7210    6.9250 C.ar      1 DBO1001     0.0000 
      9 C18       105.9330   25.9350    7.8400 C.ar      1 DBO1001     0.0000 
     10 C20       106.4990   24.8120    8.6880 C.ar      1 DBO1001     0.0000 
     11 C21       105.8360   23.4350    8.6220 C.ar      1 DBO1001     0.0000 
     12 C23       104.6230   23.2080    7.7090 C.ar      1 DBO1001     0.0000 
     13 C25       104.0760   24.3490    6.8710 C.ar      1 DBO1001     0.0000 
     14 C27       107.7270   25.0800    9.5990 C.3       1 DBO1001     0.0000 
     15 C31       109.2070   26.7720    2.4010 C.3       1 DBO1001     0.0000 
     16 C34       110.0880   25.8130    1.5740 C.ar      1 DBO1001     0.0000 
     17 C35       110.7600   26.3290    0.3420 C.ar      1 DBO1001     0.0000 
     18 C37       111.6410   25.4220   -0.5050 C.ar      1 DBO1001     0.0000 
     19 C39       111.8280   23.9860   -0.0810 C.ar      1 DBO1001     0.0000 
     20 C41       111.1550   23.4710    1.1530 C.ar      1 DBO1001     0.0000 
     21 C43       110.3080   24.3500    1.9640 C.ar      1 DBO1001     0.0000 
     22 C45       106.5330   24.5220    1.4260 C.2       1 DBO1001     0.0000 
     23 O46       106.4450   23.6250    2.3010 O.2       1 DBO1001     0.0000 
     24 C47       105.8990   24.2200    0.1560 C.2       1 DBO1001     0.0000 
     25 C48       104.5530   23.8510    0.1950 C.2       1 DBO1001     0.0000 
     26 C50       103.6850   23.4850   -0.9760 C.2       1 DBO1001     0.0000 
     27 C51       103.8370   24.1910   -2.3400 C.2       1 DBO1001     0.0000 
     28 C52       102.9800   23.8200   -3.4690 C.2       1 DBO1001     0.0000 
     29 C54       101.9740   22.7690   -3.2870 C.2       1 DBO1001     0.0000 
     30 C56       101.8210   22.0760   -1.9530 C.2       1 DBO1001     0.0000 
     31 C58       102.6880   22.4450   -0.7970 C.2       1 DBO1001     0.0000 
     32 O60       104.8060   25.2120   -2.5160 O.3       1 DBO1001     0.0000 
     33 C61       106.1290   24.8240   -2.5070 C.2       1 DBO1001     0.0000 
     34 C62       106.7690   24.3140   -1.2080 C.2       1 DBO1001     0.0000 
     35 C63       108.2210   23.9150   -1.2970 C.2       1 DBO1001     0.0000 
     36 C65       108.9950   24.0190   -2.6100 C.2       1 DBO1001     0.0000 
     37 C67       108.3240   24.5270   -3.8660 C.2       1 DBO1001     0.0000 
     38 C69       106.8800   24.9290   -3.8030 C.2       1 DBO1001     0.0000 
     39 H         107.2222   26.4464    0.8390 H         1 DBO1001     0.0000 
     40 H         108.1157   25.2936    3.4630 H         1 DBO1001     0.0000 
     41 H         106.7844   27.9952    3.0941 H         1 DBO1001     0.0000 
     42 H         105.9984   25.6013    4.7552 H         1 DBO1001     0.0000 
     43 H         105.1850   26.1821    3.2920 H         1 DBO1001     0.0000 
     44 H         103.1680   26.4296    5.5882 H         1 DBO1001     0.0000 
     45 H         103.7512   27.6506    6.7323 H         1 DBO1001     0.0000 
     46 H         106.3544   26.8373    7.8734 H         1 DBO1001     0.0000 
     47 H         106.1849   22.6941    9.1633 H         1 DBO1001     0.0000 
     48 H         104.2045   22.3181    7.6723 H         1 DBO1001     0.0000 
     49 H         103.2930   24.1966    6.2853 H         1 DBO1001     0.0000 
     50 H         109.7909   27.1146    3.2757 H         1 DBO1001     0.0000 
     51 H         109.0015   27.6707    1.7899 H         1 DBO1001     0.0000 
     52 H         110.6366   27.2766    0.0625 H         1 DBO1001     0.0000 
     53 H         112.0759   25.7693   -1.3091 H         1 DBO1001     0.0000 
     54 H         112.4001   23.3850   -0.6255 H         1 DBO1001     0.0000 
     55 H         111.2936   22.5131    1.4159 H         1 DBO1001     0.0000 
     56 H         109.8546   24.0141    2.7905 H         1 DBO1001     0.0000 
     57 H         104.0549   23.8130    1.1302 H         1 DBO1001     0.0000 
     58 H         103.0793   24.2761   -4.3500 H         1 DBO1001     0.0000 
     59 H         101.3755   22.4949   -4.0393 H         1 DBO1001     0.0000 
     60 H         101.1294   21.3643   -1.8528 H         1 DBO1001     0.0000 
     61 H         102.5717   21.9780    0.0706 H         1 DBO1001     0.0000 
     62 H         108.6921   23.5757   -0.4874 H         1 DBO1001     0.0000 
     63 H         109.9485   23.7485   -2.6318 H         1 DBO1001     0.0000 
     64 H         108.8285   24.5907   -4.7049 H         1 DBO1001     0.0000 
     65 H         106.4218   25.2635   -4.6155 H         1 DBO1001     0.0000 
     66 H         108.5222   25.3797    9.0718 H         1 DBO1001     0.0000 
     67 H         107.5390   25.7916   10.2760 H         1 DBO1001     0.0000 
     68 H         108.0013   24.2610   10.1031 H         1 DBO1001     0.0000 
     69 H         108.3436   28.2397    4.5440 H         1 DBO1001     0.0000 
@<TRIPOS>BOND
     1    2    1 1    
     2   22    1 am   
     3   39    1 1    
     4    3    2 1    
     5   15    2 1    
     6   40    2 1    
     7    4    3 1    
     8    5    3 1    
     9   41    3 1    
    10   69    4 1    
    11    6    5 1    
    12   42    5 1    
    13   43    5 1    
    14    7    6 1    
    15    8    7 1    
    16   44    7 1    
    17   45    7 1    
    18    9    8 ar   
    19   13    8 ar   
    20   10    9 ar   
    21   46    9 1    
    22   11   10 ar   
    23   14   10 1    
    24   12   11 ar   
    25   47   11 1    
    26   13   12 ar   
    27   48   12 1    
    28   49   13 1    
    29   66   14 1    
    30   67   14 1    
    31   68   14 1    
    32   16   15 1    
    33   50   15 1    
    34   51   15 1    
    35   17   16 ar   
    36   21   16 ar   
    37   18   17 ar   
    38   52   17 1    
    39   19   18 ar   
    40   53   18 1    
    41   20   19 ar   
    42   54   19 1    
    43   21   20 ar   
    44   55   20 1    
    45   56   21 1    
    46   23   22 2    
    47   24   22 1    
    48   25   24 2    
    49   34   24 1    
    50   26   25 1    
    51   57   25 1    
    52   27   26 2    
    53   31   26 1    
    54   28   27 1    
    55   32   27 1    
    56   29   28 2    
    57   58   28 1    
    58   30   29 1    
    59   59   29 1    
    60   31   30 2    
    61   60   30 1    
    62   61   31 1    
    63   33   32 1    
    64   34   33 2    
    65   38   33 1    
    66   35   34 1    
    67   36   35 2    
    68   62   35 1    
    69   37   36 1    
    70   63   36 1    
    71   38   37 2    
    72   64   37 1    
    73   65   38 1    
@<TRIPOS>SUBSTRUCTURE
     1 DBO1001     1 GROUP   
@<TRIPOS>SET

