#    Name: 1k6m_AGS_1_INTS_M
#    Modification time : Mon Apr  7 13:16:25 2014

@<TRIPOS>MOLECULE
1k6m_AGS_1_INTS_M
   82     0    12     0     0
SMALL
NO_CHARGES


@<TRIPOS>ATOM
      1 CA        -18.8380   46.0345   29.6885 C.3       4 GLC5        0.0000 
      2 CA        -19.9150   44.8320   28.8780 C.3      12 GLL5        0.0000 
      3 CA        -17.7610   47.2370   30.4990 C.3       8 GLP5        0.0000 
      4 NZ        -20.5330   42.4810   29.9720 N.4       3 LYC4        0.0000 
      5 NZ        -19.0920   42.2850   29.2350 N.4      11 LYL4        0.0000 
      6 NZ        -21.9740   42.6770   30.7090 N.4       7 LYP4        0.0000 
      7 N         -20.5330   42.4810   29.9720 N.am      2 SEC2        0.0000 
      8 N         -19.0920   42.2850   29.2350 N.am     10 SEL2        0.0000 
      9 N         -21.9740   42.6770   30.7090 N.am      6 SEP2        0.0000 
     10 NZ        -20.6860   42.2755   31.2520 N.4       3 LYC4        0.0000 
     11 NZ        -19.3980   41.8740   31.7950 N.4      11 LYL4        0.0000 
     12 N         -19.4570   40.7295   32.5540 N.am      2 SEC2        0.0000 
     13 N         -19.3980   41.8740   31.7950 N.am     10 SEL2        0.0000 
     14 N         -19.5160   39.5850   33.3130 N.am      6 SEP2        0.0000 
     15 N         -20.6860   42.2755   31.2520 N.am      2 SEC2        0.0000 
     16 NZ        -16.2175   41.3475   31.6815 N.4       3 LYC4        0.0000 
     17 NZ        -16.9850   42.2280   32.5620 N.4      11 LYL4        0.0000 
     18 NZ        -15.4500   40.4670   30.8010 N.4       7 LYP4        0.0000 
     19 N         -17.4230   41.3690   33.9635 N.am      2 SEC2        0.0000 
     20 N         -16.9850   42.2280   32.5620 N.am     10 SEL2        0.0000 
     21 N         -17.8610   40.5100   35.3650 N.am      6 SEP2        0.0000 
     22 N         -16.2855   43.2510   33.2555 N.am      2 SEC2        0.0000 
     23 N         -15.5860   44.2740   33.9490 N.am      6 SEP2        0.0000 
     24 N         -16.2175   41.3475   31.6815 N.am      2 SEC2        0.0000 
     25 N         -15.4500   40.4670   30.8010 N.am      6 SEP2        0.0000 
     26 N         -17.1690   45.0485   31.4435 N.am      2 SEC2        0.0000 
     27 N         -18.2720   43.9180   30.9750 N.am     10 SEL2        0.0000 
     28 N         -16.0660   46.1790   31.9120 N.am      6 SEP2        0.0000 
     29 N         -17.6705   46.9975   33.4700 N.am      2 SEC2        0.0000 
     30 N         -18.3950   45.7750   33.4270 N.am     10 SEL2        0.0000 
     31 N         -16.9460   48.2200   33.5130 N.am      6 SEP2        0.0000 
     32 NZ        -21.2790   43.7115   31.6210 N.4       3 LYC4        0.0000 
     33 NZ        -20.5840   44.7460   32.5330 N.4      11 LYL4        0.0000 
     34 N         -21.2790   43.7115   31.6210 N.am      2 SEC2        0.0000 
     35 N         -20.5840   44.7460   32.5330 N.am     10 SEL2        0.0000 
     36 N         -21.5135   45.8725   32.5000 N.am      2 SEC2        0.0000 
     37 N         -22.4430   46.9990   32.4670 N.am      6 SEP2        0.0000 
     38 N         -17.9325   43.1405   34.6435 N.am      2 SEC2        0.0000 
     39 N         -18.7060   43.3050   33.4750 N.am     10 SEL2        0.0000 
     40 N         -17.1590   42.9760   35.8120 N.am      6 SEP2        0.0000 
     41 N         -17.1460   43.7895   33.7120 N.am      2 SEC2        0.0000 
     42 CA        -19.0805   47.1545   35.7130 C.3       4 GLC5        0.0000 
     43 CA        -20.5390   45.7460   35.6170 C.3      12 GLL5        0.0000 
     44 CA        -17.6220   48.5630   35.8090 C.3       8 GLP5        0.0000 
     45 CA        -20.7445   47.2495   34.3560 C.3       4 GLC5        0.0000 
     46 CA        -20.9500   48.7530   33.0950 C.3       8 GLP5        0.0000 
     47 CA        -21.6405   43.4690   37.5705 C.3       4 GLC5        0.0000 
     48 CA        -20.6880   45.3220   37.0620 C.3      12 GLL5        0.0000 
     49 CA        -22.5930   41.6160   38.0790 C.3       8 GLP5        0.0000 
     50 CA        -22.3410   48.2205   37.3110 C.3       4 GLC5        0.0000 
     51 CA        -21.2400   46.4230   38.0160 C.3      12 GLL5        0.0000 
     52 CA        -23.4420   50.0180   36.6060 C.3       8 GLP5        0.0000 
     53 O         -23.1805   46.4465   39.3200 O.2       1 ALC1        0.0000 
     54 O         -22.1740   45.7600   38.8850 O.2       9 ALL1        0.0000 
     55 O         -24.1870   47.1330   39.7550 O.2       5 ALP1        0.0000 
     56 CA        -18.7920   48.0585   37.9630 C.3       4 GLC5        0.0000 
     57 CA        -20.0200   46.6800   38.9040 C.3      12 GLL5        0.0000 
     58 CA        -17.5640   49.4370   37.0220 C.3       8 GLP5        0.0000 
     59 CA        -18.9020   47.5920   40.4410 C.3       4 GLC5        0.0000 
     60 CA        -17.7840   48.5040   41.9780 C.3       8 GLP5        0.0000 
     61 CA        -18.1810   44.8555   37.4270 C.3       4 GLC5        0.0000 
     62 CA        -19.4270   45.3110   38.9190 C.3      12 GLL5        0.0000 
     63 CA        -16.9350   44.4000   35.9350 C.3       8 GLP5        0.0000 
     64 CA        -16.8465   41.3105   38.3465 C.3       4 GLC5        0.0000 
     65 CA        -16.9120   41.9880   40.3450 C.3      12 GLL5        0.0000 
     66 CA        -16.7810   40.6330   36.3480 C.3       8 GLP5        0.0000 
     67 CA        -16.2440   39.9990   40.7570 C.3       4 GLC5        0.0000 
     68 CA        -15.5760   38.0100   41.1690 C.3       8 GLP5        0.0000 
     69 CA        -18.2270   41.2435   41.7085 C.3       4 GLC5        0.0000 
     70 CA        -19.5420   40.4990   43.0720 C.3       8 GLP5        0.0000 
     71 CA        -16.5440   43.1305   41.9580 C.3       4 GLC5        0.0000 
     72 CA        -16.1760   44.2730   43.5710 C.3       8 GLP5        0.0000 
     73 N         -19.0945   42.2855   39.4025 N.am      2 SEC2        0.0000 
     74 N         -17.8430   42.8950   39.9640 N.am     10 SEL2        0.0000 
     75 N         -20.3460   41.6760   38.8410 N.am      6 SEP2        0.0000 
     76 CA        -18.7743   44.9670   36.1372 C.3       4 GLC5        0.0000 
     77 CA        -22.4069   45.4463   36.0594 C.3       4 GLC5        0.0000 
     78 CA        -23.8870   44.9140   34.9410 C.3       8 GLP5        0.0000 
     79 CA        -16.7948   44.3832   37.9447 C.3       4 GLC5        0.0000 
     80 CA        -17.3450   44.1690   39.8580 C.3      12 GLL5        0.0000 
     81 CA        -16.3024   44.1865   41.8113 C.3       4 GLC5        0.0000 
     82 CA        -15.9640   44.5640   40.0510 C.3      12 GLL5        0.0000 
@<TRIPOS>BOND
@<TRIPOS>SUBSTRUCTURE
     1 ALC1       53 GROUP        1 X    ALC  0     ROOT ALC X 1
     2 SEC2        7 GROUP        1 X    SEC  0     **** SEC X 2
     3 LYC4        4 GROUP        1 X    LYC  0     **** LYC X 4
     4 GLC5        1 GROUP        1 X    GLC  0     **** GLC X 6
     5 ALP1       55 GROUP        1 Y    ALP  0     ROOT ALP Y 8
     6 SEP2        9 GROUP        1 Y    SEP  0     **** SEP Y 9
     7 LYP4        6 GROUP        1 Y    LYP  0     **** LYP Y 11
     8 GLP5        3 GROUP        1 Y    GLP  0     **** GLP Y 13
     9 ALL1       54 GROUP        1 Z    ALL  0     ROOT ALL Z 15
    10 SEL2        8 GROUP        1 Z    SEL  0     **** SEL Z 16
    11 LYL4        5 GROUP        1 Z    LYL  0     **** LYL Z 18
    12 GLL5        2 GROUP        1 Z    GLL  0     **** GLL Z 20
@<TRIPOS>SET

