#    Name: 1k6m_AGS_1_ligand
#    Modification time : Mon Apr  7 13:16:25 2014

@<TRIPOS>MOLECULE
1k6m_AGS_1_ligand
   43    45     1     0     0
SMALL
NO_CHARGES


@<TRIPOS>ATOM
      1 PG        -18.6210   43.7350   29.3770 P.3       1 AGS503      0.0000 
      2 S1G       -19.9150   44.8320   28.8780 S.3       1 AGS503      0.0000 
      3 O2G       -19.0920   42.2850   29.2350 O.co2     1 AGS503      0.0000 
      4 O3G       -17.3220   44.0820   28.6900 O.co2     1 AGS503      0.0000 
      5 PB        -18.2710   42.7550   32.1380 P.3       1 AGS503      0.0000 
      6 O1B       -19.3980   41.8740   31.7950 O.co2     1 AGS503      0.0000 
      7 O2B       -16.9850   42.2280   32.5620 O.co2     1 AGS503      0.0000 
      8 O3B       -18.2720   43.9180   30.9750 O.3       1 AGS503      0.0000 
      9 PA        -19.4640   44.7130   33.5260 P.3       1 AGS503      0.0000 
     10 O1A       -18.3950   45.7750   33.4270 O.co2     1 AGS503      0.0000 
     11 O2A       -20.5840   44.7460   32.5330 O.co2     1 AGS503      0.0000 
     12 O3A       -18.7060   43.3050   33.4750 O.3       1 AGS503      0.0000 
     13 O5'       -20.0960   44.6260   34.9800 O.3       1 AGS503      0.0000 
     14 C5'       -20.5390   45.7460   35.6170 C.3       1 AGS503      0.0000 
     15 C4'       -20.6880   45.3220   37.0620 C.3       1 AGS503      0.0000 
     16 O4'       -19.5130   44.9080   37.6280 O.3       1 AGS503      0.0000 
     17 C3'       -21.2400   46.4230   38.0160 C.3       1 AGS503      0.0000 
     18 O3'       -22.1740   45.7600   38.8850 O.3       1 AGS503      0.0000 
     19 C2'       -20.0200   46.6800   38.9040 C.3       1 AGS503      0.0000 
     20 O2'       -20.3150   46.9060   40.2920 O.3       1 AGS503      0.0000 
     21 C1'       -19.4270   45.3110   38.9190 C.3       1 AGS503      0.0000 
     22 N9        -18.0280   45.2730   39.3400 N.pl3     1 AGS503      0.0000 
     23 C8        -17.0330   46.2450   39.3090 C.2       1 AGS503      0.0000 
     24 N7        -15.7950   45.8890   39.7270 N.2       1 AGS503      0.0000 
     25 C5        -15.9640   44.5640   40.0510 C.ar      1 AGS503      0.0000 
     26 C6        -15.0610   43.4980   40.4390 C.ar      1 AGS503      0.0000 
     27 N6        -13.5950   43.6790   40.5920 N.pl3     1 AGS503      0.0000 
     28 N1        -15.5890   42.2350   40.5430 N.ar      1 AGS503      0.0000 
     29 C2        -16.9120   41.9880   40.3450 C.ar      1 AGS503      0.0000 
     30 N3        -17.8430   42.8950   39.9640 N.ar      1 AGS503      0.0000 
     31 C4        -17.3450   44.1690   39.8580 C.ar      1 AGS503      0.0000 
     32 H         -21.5105   46.0879   35.2750 H         1 AGS503      0.0000 
     33 H         -19.8351   46.5716   35.5897 H         1 AGS503      0.0000 
     34 H         -21.4389   44.5041   37.1061 H         1 AGS503      0.0000 
     35 H         -21.5356   47.2182   37.5360 H         1 AGS503      0.0000 
     36 H         -19.3688   47.3291   38.4702 H         1 AGS503      0.0000 
     37 H         -20.0320   44.6906   39.5634 H         1 AGS503      0.0000 
     38 H         -17.2456   47.1848   38.9810 H         1 AGS503      0.0000 
     39 H         -13.2425   44.5953   40.4017 H         1 AGS503      0.0000 
     40 H         -13.0787   42.8700   40.8730 H         1 AGS503      0.0000 
     41 H         -17.2491   40.9738   40.5073 H         1 AGS503      0.0000 
     42 H         -23.0460   46.2243   38.7300 H         1 AGS503      0.0000 
     43 H         -21.2346   46.5364   40.4245 H         1 AGS503      0.0000 
@<TRIPOS>BOND
     1    2    1 1    
     2    3    1 ar   
     3    4    1 ar   
     4    8    1 1    
     5    6    5 ar   
     6    7    5 ar   
     7    8    5 1    
     8   12    5 1    
     9   10    9 ar   
    10   11    9 ar   
    11   12    9 1    
    12   13    9 1    
    13   14   13 1    
    14   15   14 1    
    15   32   14 1    
    16   33   14 1    
    17   16   15 1    
    18   17   15 1    
    19   34   15 1    
    20   21   16 1    
    21   18   17 1    
    22   19   17 1    
    23   35   17 1    
    24   42   18 1    
    25   20   19 1    
    26   21   19 1    
    27   36   19 1    
    28   43   20 1    
    29   22   21 1    
    30   37   21 1    
    31   23   22 1    
    32   31   22 1    
    33   24   23 2    
    34   38   23 1    
    35   25   24 1    
    36   26   25 ar   
    37   31   25 ar   
    38   27   26 1    
    39   28   26 ar   
    40   39   27 1    
    41   40   27 1    
    42   29   28 ar   
    43   30   29 ar   
    44   41   29 1    
    45   31   30 ar   
@<TRIPOS>SUBSTRUCTURE
     1 AGS503      1 GROUP   
@<TRIPOS>SET

