#    Name: 3vf6_0H6_1_INTS_M
#    Modification time : Tue Mar 25 00:45:46 2014

@<TRIPOS>MOLECULE
3vf6_0H6_1_INTS_M
   73     0     9     0     0
SMALL
NO_CHARGES


@<TRIPOS>ATOM
      1 CA        -11.9600    1.4105   20.7205 C.3       3 GLC5        0.0000 
      2 CA        -10.8560    2.8550   20.4660 C.3       9 GLL5        0.0000 
      3 CA        -13.0640   -0.0340   20.9750 C.3       6 GLP5        0.0000 
      4 CA        -11.7810    2.2285   18.6660 C.3       3 GLC5        0.0000 
      5 CA        -12.7060    1.6020   16.8660 C.3       6 GLP5        0.0000 
      6 CA        -11.7395    7.5040   20.9200 C.3       3 GLC5        0.0000 
      7 CA        -12.5760    5.9930   21.6830 C.3       9 GLL5        0.0000 
      8 CA        -10.9030    9.0150   20.1570 C.3       6 GLP5        0.0000 
      9 CA        -11.1020    4.6215   23.7520 C.3       3 GLC5        0.0000 
     10 CA        -11.5080    4.9070   21.8400 C.3       9 GLL5        0.0000 
     11 CA        -10.6960    4.3360   25.6640 C.3       6 GLP5        0.0000 
     12 CA        -10.5745    6.6760   21.0515 C.3       3 GLC5        0.0000 
     13 CA         -9.6410    8.4450   20.2630 C.3       6 GLP5        0.0000 
     14 CA        -13.1170    4.3685   23.0710 C.3       3 GLC5        0.0000 
     15 CA        -14.7260    3.8300   24.3020 C.3       6 GLP5        0.0000 
     16 CA        -12.7055    3.0160   18.3280 C.3       3 GLC5        0.0000 
     17 CA        -12.7050    4.4300   19.7900 C.3       9 GLL5        0.0000 
     18 CA        -11.9830    6.1435   18.9185 C.3       3 GLC5        0.0000 
     19 CA        -11.2610    7.8570   18.0470 C.3       6 GLP5        0.0000 
     20 CA         -9.5275    2.7185   17.0375 C.3       3 GLC5        0.0000 
     21 CA         -8.3890    3.3420   18.7060 C.3       9 GLL5        0.0000 
     22 CA        -10.6660    2.0950   15.3690 C.3       6 GLP5        0.0000 
     23 CA        -12.5145    7.2115   19.7140 C.3       3 GLC5        0.0000 
     24 CA        -13.3340    5.6900   20.3860 C.3       9 GLL5        0.0000 
     25 CA        -11.6950    8.7330   19.0420 C.3       6 GLP5        0.0000 
     26 CA        -11.0440   -2.1060   23.3955 C.3       3 GLC5        0.0000 
     27 CA         -9.0340   -2.4610   23.9660 C.3       9 GLL5        0.0000 
     28 CA        -13.0540   -1.7510   22.8250 C.3       6 GLP5        0.0000 
     29 CA        -10.0140   -1.1800   25.3245 C.3       3 GLC5        0.0000 
     30 CA        -10.9940    0.1010   26.6830 C.3       6 GLP5        0.0000 
     31 CA        -10.6535    5.8090   19.3045 C.3       3 GLC5        0.0000 
     32 CA        -11.3200    4.3130   20.4390 C.3       9 GLL5        0.0000 
     33 CA         -9.9870    7.3050   18.1700 C.3       6 GLP5        0.0000 
     34 O          -9.8745    1.2870   23.0840 O.2       1 ALC1        0.0000 
     35 O          -9.2820    0.5200   22.0720 O.2       7 ALL1        0.0000 
     36 O         -10.4670    2.0540   24.0960 O.2       4 ALP1        0.0000 
     37 CA        -11.0125   -1.2925   22.5695 C.3       3 GLC5        0.0000 
     38 CA         -8.9710   -0.8340   22.3140 C.3       9 GLL5        0.0000 
     39 CA         -7.9575    0.3045   23.7970 C.3       3 GLC5        0.0000 
     40 CA         -6.9440    1.4430   25.2800 C.3       6 GLP5        0.0000 
     41 CA         -6.3285   -3.9170   21.1080 C.3       3 GLC5        0.0000 
     42 CA         -7.8900   -2.9270   21.8990 C.3       9 GLL5        0.0000 
     43 CA         -4.7670   -4.9070   20.3170 C.3       6 GLP5        0.0000 
     44 N         -10.6730   -0.7635   24.0030 N.am      2 SEC2        0.0000 
     45 N          -9.4030   -1.2400   23.5600 N.am      8 SEL2        0.0000 
     46 N         -11.9430   -0.2870   24.4460 N.am      5 SEP2        0.0000 
     47 CA         -9.1860    3.1060   15.6740 C.3       3 GLC5        0.0000 
     48 CA         -7.7060    4.1170   15.9790 C.3       9 GLL5        0.0000 
     49 CA         -7.5980    2.7560   14.6550 C.3       3 GLC5        0.0000 
     50 CA         -7.4900    1.3950   13.3310 C.3       6 GLP5        0.0000 
     51 CA         -5.6685    3.4815   14.5610 C.3       3 GLC5        0.0000 
     52 CA         -5.7000    4.0700   16.6970 C.3       9 GLL5        0.0000 
     53 CA         -5.6370    2.8930   12.4250 C.3       6 GLP5        0.0000 
     54 CA        -14.5363    4.1955   19.6215 C.3       3 GLC5        0.0000 
     55 CA        -16.0530    3.3310   19.1550 C.3       6 GLP5        0.0000 
     56 CA        -14.2910    4.5434   21.6076 C.3       3 GLC5        0.0000 
     57 CA        -15.7520    3.9510   22.8030 C.3       6 GLP5        0.0000 
     58 CA         -9.0682   -2.3555   19.9132 C.3       3 GLC5        0.0000 
     59 CA         -8.2690   -1.6710   21.4360 C.3       9 GLL5        0.0000 
     60 CA        -10.0570   -2.4120   18.1590 C.3       6 GLP5        0.0000 
     61 CA         -6.5187    2.3767   18.6542 C.3       3 GLC5        0.0000 
     62 CA         -5.1390    0.9560   18.7870 C.3       6 GLP5        0.0000 
     63 CA         -9.7634   -3.9710   21.8912 C.3       3 GLC5        0.0000 
     64 CA         -8.2330   -3.3170   23.1900 C.3       9 GLL5        0.0000 
     65 CA        -11.2650   -5.0340   21.0440 C.3       6 GLP5        0.0000 
     66 CA         -6.7250   -1.0359   21.4940 C.3       3 GLC5        0.0000 
     67 CA         -5.1950    0.0180   21.1010 C.3       6 GLP5        0.0000 
     68 CA         -5.7223    2.6415   17.8080 C.3       3 GLC5        0.0000 
     69 CA         -6.9110    4.5840   16.9610 C.3       9 GLL5        0.0000 
     70 CA         -8.5231    6.2146   17.3818 C.3       3 GLC5        0.0000 
     71 CA         -6.8100    5.8980   16.7170 C.3       9 GLL5        0.0000 
     72 CA         -6.1956    5.7371   15.0386 C.3       3 GLC5        0.0000 
     73 CA         -5.7340    6.4200   13.4270 C.3       6 GLP5        0.0000 
@<TRIPOS>BOND
@<TRIPOS>SUBSTRUCTURE
     1 ALC1       34 GROUP        1 X    ALC  0     ROOT ALC X 1
     2 SEC2       44 GROUP        1 X    SEC  0     **** SEC X 2
     3 GLC5        1 GROUP        1 X    GLC  0     **** GLC X 6
     4 ALP1       36 GROUP        1 Y    ALP  0     ROOT ALP Y 8
     5 SEP2       46 GROUP        1 Y    SEP  0     **** SEP Y 9
     6 GLP5        3 GROUP        1 Y    GLP  0     **** GLP Y 13
     7 ALL1       35 GROUP        1 Z    ALL  0     ROOT ALL Z 15
     8 SEL2       45 GROUP        1 Z    SEL  0     **** SEL Z 16
     9 GLL5        2 GROUP        1 Z    GLL  0     **** GLL Z 20
@<TRIPOS>SET

