#    Name: 3vf6_0H6_1_ligand
#    Modification time : Tue Mar 25 00:45:46 2014

@<TRIPOS>MOLECULE
3vf6_0H6_1_ligand
   46    48     1     0     0
SMALL
NO_CHARGES


@<TRIPOS>ATOM
      1 C4        -10.8560    2.8550   20.4660 C.3       1 0H6502      0.0000 
      2 C7        -12.5760    5.9930   21.6830 C.3       1 0H6502      0.0000 
      3 C6        -11.5080    4.9070   21.8400 C.3       1 0H6502      0.0000 
      4 C9        -12.7050    4.4300   19.7900 C.3       1 0H6502      0.0000 
      5 C13        -8.2690   -1.6710   21.4360 C.ar      1 0H6502      0.0000 
      6 C21        -8.3890    3.3420   18.7060 C.2       1 0H6502      0.0000 
      7 C8        -13.3340    5.6900   20.3860 C.3       1 0H6502      0.0000 
      8 C18        -7.8030   -4.5760   23.7950 C.2       1 0H6502      0.0000 
      9 C16        -9.0340   -2.4610   23.9660 C.ar      1 0H6502      0.0000 
     10 N1         -8.4660    3.4380   20.0960 N.pl3     1 0H6502      0.0000 
     11 C2         -9.4040    2.7190   20.9520 C.3       1 0H6502      0.0000 
     12 C3         -9.0390    1.2220   20.8930 C.2       1 0H6502      0.0000 
     13 C5        -11.3200    4.3130   20.4390 C.3       1 0H6502      0.0000 
     14 N10        -9.2820    0.5200   22.0720 N.am      1 0H6502      0.0000 
     15 O11        -8.6050    0.7160   19.8730 O.2       1 0H6502      0.0000 
     16 C12        -8.9710   -0.8340   22.3140 C.ar      1 0H6502      0.0000 
     17 C14        -7.8900   -2.9270   21.8990 C.ar      1 0H6502      0.0000 
     18 C15        -8.2330   -3.3170   23.1900 C.ar      1 0H6502      0.0000 
     19 N17        -9.4030   -1.2400   23.5600 N.ar      1 0H6502      0.0000 
     20 O19        -8.1580   -5.0200   24.8770 O.co2     1 0H6502      0.0000 
     21 O20        -6.9140   -5.2740   23.0550 O.co2     1 0H6502      0.0000 
     22 C22        -7.4080    4.2530   18.3370 C.2       1 0H6502      0.0000 
     23 N23        -6.8600    4.8970   19.4530 N.2       1 0H6502      0.0000 
     24 C24        -7.5140    4.3940   20.5140 C.2       1 0H6502      0.0000 
     25 C25        -6.9110    4.5840   16.9610 C.3       1 0H6502      0.0000 
     26 F26        -7.7060    4.1170   15.9790 F         1 0H6502      0.0000 
     27 F27        -5.7000    4.0700   16.6970 F         1 0H6502      0.0000 
     28 F28        -6.8100    5.8980   16.7170 F         1 0H6502      0.0000 
     29 H         -11.5078    2.2822   21.1305 H         1 0H6502      0.0000 
     30 H         -10.9347    2.4337   19.4606 H         1 0H6502      0.0000 
     31 H         -12.1045    6.9525   21.6068 H         1 0H6502      0.0000 
     32 H         -13.2540    5.9529   22.5121 H         1 0H6502      0.0000 
     33 H         -11.8586    4.1515   22.5050 H         1 0H6502      0.0000 
     34 H         -10.5941    5.3464   22.1681 H         1 0H6502      0.0000 
     35 H         -12.5966    4.5454   18.7353 H         1 0H6502      0.0000 
     36 H         -13.2927    3.5777   20.0464 H         1 0H6502      0.0000 
     37 H          -8.0474   -1.3673   20.4972 H         1 0H6502      0.0000 
     38 H          -8.8863    2.7891   18.1530 H         1 0H6502      0.0000 
     39 H         -13.2177    6.5081   19.7039 H         1 0H6502      0.0000 
     40 H         -14.3659    5.5068   20.6088 H         1 0H6502      0.0000 
     41 H          -9.3443   -2.8236   24.9079 H         1 0H6502      0.0000 
     42 H          -9.3412    3.0320   21.9648 H         1 0H6502      0.0000 
     43 H         -10.6413    4.9198   19.8932 H         1 0H6502      0.0000 
     44 H          -9.7482    1.0528   22.8728 H         1 0H6502      0.0000 
     45 H          -7.3607   -3.5621   21.2923 H         1 0H6502      0.0000 
     46 H          -7.3802    4.6277   21.4434 H         1 0H6502      0.0000 
@<TRIPOS>BOND
     1   11    1 1    
     2   13    1 1    
     3   29    1 1    
     4   30    1 1    
     5    3    2 1    
     6    7    2 1    
     7   31    2 1    
     8   32    2 1    
     9   13    3 1    
    10   33    3 1    
    11   34    3 1    
    12    7    4 1    
    13   13    4 1    
    14   35    4 1    
    15   36    4 1    
    16   16    5 ar   
    17   17    5 ar   
    18   37    5 1    
    19   10    6 1    
    20   22    6 2    
    21   38    6 1    
    22   39    7 1    
    23   40    7 1    
    24   18    8 1    
    25   20    8 ar   
    26   21    8 ar   
    27   18    9 ar   
    28   19    9 ar   
    29   41    9 1    
    30   11   10 1    
    31   24   10 1    
    32   12   11 1    
    33   42   11 1    
    34   14   12 am   
    35   15   12 2    
    36   43   13 1    
    37   16   14 1    
    38   44   14 1    
    39   19   16 ar   
    40   18   17 ar   
    41   45   17 1    
    42   23   22 1    
    43   25   22 1    
    44   24   23 2    
    45   46   24 1    
    46   26   25 1    
    47   27   25 1    
    48   28   25 1    
@<TRIPOS>SUBSTRUCTURE
     1 0H6502      1 GROUP   
@<TRIPOS>SET

