#    Name: 3lan_KBT_1_INTS_M
#    Modification time : Mon Mar 24 21:16:44 2014

@<TRIPOS>MOLECULE
3lan_KBT_1_INTS_M
   69     0     6     0     0
SMALL
NO_CHARGES


@<TRIPOS>ATOM
      1 CA          8.2415    9.3985   15.1740 C.3       2 GLC5        0.0000 
      2 CA          6.6540   10.2910   16.0940 C.3       6 GLL5        0.0000 
      3 CA          9.8290    8.5060   14.2540 C.3       4 GLP5        0.0000 
      4 CA          6.9690    8.9510   18.7220 C.3       2 GLC5        0.0000 
      5 CA          6.0340    9.5920   17.3160 C.3       6 GLL5        0.0000 
      6 CA          7.9040    8.3100   20.1280 C.3       4 GLP5        0.0000 
      7 CA          5.4195   10.7810   18.6720 C.3       2 GLC5        0.0000 
      8 CA          4.8050   11.9700   20.0280 C.3       4 GLP5        0.0000 
      9 CA          5.1845    6.4465   17.8335 C.3       2 GLC5        0.0000 
     10 CA          5.6690    8.1410   16.9450 C.3       6 GLL5        0.0000 
     11 CA          4.7000    4.7520   18.7220 C.3       4 GLP5        0.0000 
     12 CA          7.0700    7.7780   18.1010 C.3       2 GLC5        0.0000 
     13 CA          8.4710    7.4150   19.2570 C.3       4 GLP5        0.0000 
     14 CA          7.4400   13.7965   16.5955 C.3       2 GLC5        0.0000 
     15 CA          7.0190   11.7460   16.4800 C.3       6 GLL5        0.0000 
     16 CA          7.8610   15.8470   16.7110 C.3       4 GLP5        0.0000 
     17 CA          5.9120   11.8580   18.2540 C.3       2 GLC5        0.0000 
     18 CA          5.3440   12.7340   15.8320 C.3       2 GLC5        0.0000 
     19 CA          3.6690   13.7220   15.1840 C.3       4 GLP5        0.0000 
     20 CA         11.3815   11.2135   22.6635 C.3       2 GLC5        0.0000 
     21 CA         10.0320   12.1070   22.6320 C.3       6 GLL5        0.0000 
     22 CA         12.7310   10.3200   22.6950 C.3       4 GLP5        0.0000 
     23 CA         11.5485   18.0160   19.9925 C.3       2 GLC5        0.0000 
     24 CA         10.6220   16.2500   19.8160 C.3       6 GLL5        0.0000 
     25 CA         12.4750   19.7820   20.1690 C.3       4 GLP5        0.0000 
     26 CA         12.4395   16.0130   20.1255 C.3       2 GLC5        0.0000 
     27 CA         14.2570   15.7760   20.4350 C.3       4 GLP5        0.0000 
     28 CA          9.9895   17.2670   21.2270 C.3       2 GLC5        0.0000 
     29 CA          9.3570   18.2840   22.6380 C.3       4 GLP5        0.0000 
     30 CA         11.2735   15.5935   15.8840 C.3       2 GLC5        0.0000 
     31 CA         12.7560   14.0890   16.0320 C.3       6 GLL5        0.0000 
     32 CA          9.7910   17.0980   15.7360 C.3       4 GLP5        0.0000 
     33 CA         13.9775   14.3150   14.4755 C.3       2 GLC5        0.0000 
     34 CA         15.1990   14.5410   12.9190 C.3       4 GLP5        0.0000 
     35 CA         14.0490   14.7415   17.1070 C.3       2 GLC5        0.0000 
     36 CA         15.3420   15.3940   18.1820 C.3       4 GLP5        0.0000 
     37 CA         14.1065   13.1025   14.0375 C.3       2 GLC5        0.0000 
     38 CA         13.0140   11.6640   15.1560 C.3       6 GLL5        0.0000 
     39 CA         14.4005   10.3900   15.3010 C.3       2 GLC5        0.0000 
     40 CA         15.7870    9.1160   15.4460 C.3       4 GLP5        0.0000 
     41 CA         13.2905   10.3725   13.7730 C.3       2 GLC5        0.0000 
     42 CA         13.5670    9.0810   12.3900 C.3       4 GLP5        0.0000 
     43 O           8.5620   13.7355   12.4420 O.2       1 ALC1        0.0000 
     44 O           9.0530   13.1270   13.7110 O.2       5 ALL1        0.0000 
     45 O           8.0710   14.3440   11.1730 O.2       3 ALP1        0.0000 
     46 CA          7.4837    7.8172   16.5138 C.3       2 GLC5        0.0000 
     47 CA          9.1160    6.7680   15.8970 C.3       4 GLP5        0.0000 
     48 CA          3.8527    9.0593   17.4307 C.3       2 GLC5        0.0000 
     49 CA          1.8540    9.2520   17.7310 C.3       4 GLP5        0.0000 
     50 CA          4.4757    8.4577   15.7282 C.3       2 GLC5        0.0000 
     51 CA          3.1000    8.0490   14.3260 C.3       4 GLP5        0.0000 
     52 CA          8.9955   14.1325   16.3010 C.3       2 GLC5        0.0000 
     53 CA          9.5730   12.1940   16.2580 C.3       6 GLL5        0.0000 
     54 CA          9.9795   10.4620   15.0725 C.3       2 GLC5        0.0000 
     55 CA          8.9410   14.5430   17.7840 C.3       2 GLC5        0.0000 
     56 CA          9.9010   12.5270   18.9080 C.3       6 GLL5        0.0000 
     57 CA         11.9045   11.7605   19.3860 C.3       2 GLC5        0.0000 
     58 CA         13.9190   11.3000   19.2200 C.3       4 GLP5        0.0000 
     59 CA          8.3837   12.8645   21.4357 C.3       2 GLC5        0.0000 
     60 CA          6.7070   13.3180   20.8760 C.3       4 GLP5        0.0000 
     61 CA          9.1369   13.4630   23.3471 C.3       2 GLC5        0.0000 
     62 CA         10.0890   12.7150   21.3590 C.3       6 GLL5        0.0000 
     63 CA          8.0770   13.6560   25.0690 C.3       4 GLP5        0.0000 
     64 CA          9.1773   15.6730   18.3012 C.3       2 GLC5        0.0000 
     65 CA         10.3650   14.7480   19.9670 C.3       6 GLL5        0.0000 
     66 CA         13.3254   11.9079   17.4069 C.3       2 GLC5        0.0000 
     67 CA         12.1430   12.6460   16.0310 C.3       6 GLL5        0.0000 
     68 CA          8.4446   13.5401   20.3855 C.3       2 GLC5        0.0000 
     69 CA         10.1410   13.9510   18.8060 C.3       6 GLL5        0.0000 
@<TRIPOS>BOND
@<TRIPOS>SUBSTRUCTURE
     1 ALC1       43 GROUP        1 X    ALC  0     ROOT ALC X 1
     2 GLC5        1 GROUP        1 X    GLC  0     **** GLC X 6
     3 ALP1       45 GROUP        1 Y    ALP  0     ROOT ALP Y 8
     4 GLP5        3 GROUP        1 Y    GLP  0     **** GLP Y 13
     5 ALL1       44 GROUP        1 Z    ALL  0     ROOT ALL Z 15
     6 GLL5        2 GROUP        1 Z    GLL  0     **** GLL Z 20
@<TRIPOS>SET

