#    Name: 3lan_KBT_1_ligand
#    Modification time : Mon Mar 24 21:16:44 2014

@<TRIPOS>MOLECULE
3lan_KBT_1_ligand
   49    50     1     0     0
SMALL
NO_CHARGES


@<TRIPOS>ATOM
      1 C1          6.6540   10.2910   16.0940 C.3       1 KBT561      0.0000 
      2 C2          6.0340    9.5920   17.3160 C.3       1 KBT561      0.0000 
      3 C3          5.6690    8.1410   16.9450 C.3       1 KBT561      0.0000 
      4 C4          7.0190   11.7460   16.4800 C.3       1 KBT561      0.0000 
      5 N5          8.2520   12.2250   15.7100 N.am      1 KBT561      0.0000 
      6 C6          9.5730   12.1940   16.2580 C.2       1 KBT561      0.0000 
      7 C7          9.6430   11.6580   17.6840 C.2       1 KBT561      0.0000 
      8 O8          9.4480   10.4590   17.8200 O.2       1 KBT561      0.0000 
      9 C9          9.9010   12.5270   18.9080 C.ar      1 KBT561      0.0000 
     10 C10         9.8790   11.9150   20.1960 C.ar      1 KBT561      0.0000 
     11 C11        10.0890   12.7150   21.3590 C.ar      1 KBT561      0.0000 
     12 C12        10.0320   12.1070   22.6320 C.1       1 KBT561      0.0000 
     13 N13         9.9510   11.6150   23.6670 N.1       1 KBT561      0.0000 
     14 C14        10.3330   14.1290   21.2550 C.ar      1 KBT561      0.0000 
     15 C15        10.3650   14.7480   19.9670 C.ar      1 KBT561      0.0000 
     16 C16        10.6220   16.2500   19.8160 C.3       1 KBT561      0.0000 
     17 C17        10.1410   13.9510   18.8060 C.ar      1 KBT561      0.0000 
     18 C18        10.6870   12.6420   15.5240 C.2       1 KBT561      0.0000 
     19 C19        12.1430   12.6460   16.0310 C.3       1 KBT561      0.0000 
     20 C20        12.7560   14.0890   16.0320 C.3       1 KBT561      0.0000 
     21 C21        13.0140   11.6640   15.1560 C.3       1 KBT561      0.0000 
     22 C22        10.3390   13.1470   14.1140 C.2       1 KBT561      0.0000 
     23 O23        11.1820   13.5750   13.3420 O.2       1 KBT561      0.0000 
     24 N24         9.0530   13.1270   13.7110 N.am      1 KBT561      0.0000 
     25 C25         8.0270   12.6800   14.4650 C.2       1 KBT561      0.0000 
     26 O26         6.9020   12.7200   13.9650 O.2       1 KBT561      0.0000 
     27 H           5.9392   10.3089   15.2884 H         1 KBT561      0.0000 
     28 H           7.5489    9.7702   15.7970 H         1 KBT561      0.0000 
     29 H           5.1395   10.1187   17.6143 H         1 KBT561      0.0000 
     30 H           6.7497    9.5831   18.1248 H         1 KBT561      0.0000 
     31 H           7.2197   11.7850   17.5475 H         1 KBT561      0.0000 
     32 H           6.1747   12.3911   16.2511 H         1 KBT561      0.0000 
     33 H           9.7155   10.9193   20.2852 H         1 KBT561      0.0000 
     34 H          10.4806   14.6784   22.0910 H         1 KBT561      0.0000 
     35 H          10.1482   14.3843   17.8806 H         1 KBT561      0.0000 
     36 H          12.1572   12.2715   17.0470 H         1 KBT561      0.0000 
     37 H           8.8300   13.4897   12.7275 H         1 KBT561      0.0000 
     38 H           6.4715    7.6180   16.6578 H         1 KBT561      0.0000 
     39 H           5.2609    7.6520   17.7159 H         1 KBT561      0.0000 
     40 H           5.0108    8.1043   16.1931 H         1 KBT561      0.0000 
     41 H          11.5082   16.5152   20.1959 H         1 KBT561      0.0000 
     42 H          10.6178   16.5329   18.8569 H         1 KBT561      0.0000 
     43 H           9.9270   16.7947   20.2854 H         1 KBT561      0.0000 
     44 H          13.7008   14.0909   16.3598 H         1 KBT561      0.0000 
     45 H          12.7627   14.4903   15.1161 H         1 KBT561      0.0000 
     46 H          12.2402   14.7112   16.6209 H         1 KBT561      0.0000 
     47 H          13.9673   11.6445   15.4573 H         1 KBT561      0.0000 
     48 H          12.6731   10.7250   15.2009 H         1 KBT561      0.0000 
     49 H          13.0168   11.9290   14.1918 H         1 KBT561      0.0000 
@<TRIPOS>BOND
     1    2    1 1    
     2    4    1 1    
     3   27    1 1    
     4   28    1 1    
     5    3    2 1    
     6   29    2 1    
     7   30    2 1    
     8   38    3 1    
     9   39    3 1    
    10   40    3 1    
    11    5    4 1    
    12   31    4 1    
    13   32    4 1    
    14    6    5 1    
    15   25    5 1    
    16    7    6 1    
    17   18    6 2    
    18    8    7 2    
    19    9    7 1    
    20   10    9 ar   
    21   17    9 ar   
    22   11   10 ar   
    23   33   10 1    
    24   12   11 1    
    25   14   11 ar   
    26   13   12 3    
    27   15   14 ar   
    28   34   14 1    
    29   16   15 1    
    30   17   15 ar   
    31   41   16 1    
    32   42   16 1    
    33   43   16 1    
    34   35   17 1    
    35   19   18 1    
    36   22   18 1    
    37   20   19 1    
    38   21   19 1    
    39   36   19 1    
    40   44   20 1    
    41   45   20 1    
    42   46   20 1    
    43   47   21 1    
    44   48   21 1    
    45   49   21 1    
    46   23   22 2    
    47   24   22 1    
    48   25   24 1    
    49   37   24 1    
    50   26   25 2    
@<TRIPOS>SUBSTRUCTURE
     1 KBT561      1 GROUP   
@<TRIPOS>SET

