#    Name: 4gw8_3RA_1_INTS_M
#    Modification time : Mon Mar 24 23:53:26 2014

@<TRIPOS>MOLECULE
4gw8_3RA_1_INTS_M
   53     0     6     0     0
SMALL
NO_CHARGES


@<TRIPOS>ATOM
      1 CA        -20.3375   34.0960   -0.9870 C.3       2 GLC5        0.0000 
      2 CA        -19.3410   35.4410   -1.9370 C.3       6 GLL5        0.0000 
      3 CA        -21.3340   32.7510   -0.0370 C.3       4 GLP5        0.0000 
      4 CA        -19.0095   33.7590   -0.5080 C.3       2 GLC5        0.0000 
      5 CA        -18.0000   35.2550   -1.5570 C.3       6 GLL5        0.0000 
      6 CA        -20.0190   32.2630    0.5410 C.3       4 GLP5        0.0000 
      7 O         -16.5895   34.5860    0.9960 O.2       1 ALC1        0.0000 
      8 O         -17.6140   35.1710   -0.2780 O.2       5 ALL1        0.0000 
      9 O         -15.5650   34.0010    2.2700 O.2       3 ALP1        0.0000 
     10 O         -16.3535   34.7115   -0.0475 O.2       1 ALC1        0.0000 
     11 O         -15.0930   34.2520    0.1830 O.2       3 ALP1        0.0000 
     12 CA        -19.0515   34.0755    0.6410 C.3       2 GLC5        0.0000 
     13 CA        -18.0840   35.8880    0.7410 C.3       6 GLL5        0.0000 
     14 CA        -16.8485   37.0820    0.2660 C.3       2 GLC5        0.0000 
     15 CA        -15.6130   38.2760   -0.2090 C.3       4 GLP5        0.0000 
     16 O         -16.5740   34.8670    2.1135 O.2       1 ALC1        0.0000 
     17 O         -17.5830   35.7330    1.9570 O.2       5 ALL1        0.0000 
     18 CA        -19.1950   38.9070    4.5020 C.3       2 GLC5        0.0000 
     19 CA        -19.9850   38.2610    2.6140 C.3       6 GLL5        0.0000 
     20 CA        -18.4050   39.5530    6.3900 C.3       4 GLP5        0.0000 
     21 CA        -17.9445   38.8135    2.6635 C.3       2 GLC5        0.0000 
     22 CA        -15.9040   39.3660    2.7130 C.3       4 GLP5        0.0000 
     23 CA        -19.9730   41.2900    3.7805 C.3       2 GLC5        0.0000 
     24 CA        -21.2000   40.2960    2.3350 C.3       6 GLL5        0.0000 
     25 CA        -18.7460   42.2840    5.2260 C.3       4 GLP5        0.0000 
     26 CA        -22.5050   40.9610    3.3780 C.3       2 GLC5        0.0000 
     27 CA        -23.8100   41.6260    4.4210 C.3       4 GLP5        0.0000 
     28 CA        -23.4550   38.8785   -1.3935 C.3       2 GLC5        0.0000 
     29 CA        -22.7890   40.7140   -1.9670 C.3       6 GLL5        0.0000 
     30 CA        -24.1210   37.0430   -0.8200 C.3       4 GLP5        0.0000 
     31 CA        -22.6885   42.1835   -1.8595 C.3       2 GLC5        0.0000 
     32 CA        -22.5880   43.6530   -1.7520 C.3       4 GLP5        0.0000 
     33 CA        -16.5625   36.7225   -1.1285 C.3       2 GLC5        0.0000 
     34 CA        -20.2505   33.9885   -4.5098 C.3       2 GLC5        0.0000 
     35 CA        -19.6890   35.4810   -3.2890 C.3       6 GLL5        0.0000 
     36 CA        -21.3080   32.5740   -5.2450 C.3       4 GLP5        0.0000 
     37 CA        -21.5980   35.5855   -2.7600 C.3       2 GLC5        0.0000 
     38 CA        -23.6810   35.7100   -2.9070 C.3       4 GLP5        0.0000 
     39 CA        -19.9383   40.3715    0.5715 C.3       2 GLC5        0.0000 
     40 CA        -21.0620   38.7430    0.4840 C.3       6 GLL5        0.0000 
     41 CA        -18.4490   41.5740    1.0580 C.3       4 GLP5        0.0000 
     42 CA        -22.9816   38.5127   -0.3357 C.3       2 GLC5        0.0000 
     43 CA        -22.2570   40.7960    0.2120 C.3       6 GLL5        0.0000 
     44 CA        -23.6578   40.9845    1.5987 C.3       2 GLC5        0.0000 
     45 CA        -25.2080   40.9990    2.3280 C.3       4 GLP5        0.0000 
     46 CA        -20.2782   41.2720    0.9637 C.3       2 GLC5        0.0000 
     47 CA        -21.9580   41.1440    1.5270 C.3       6 GLL5        0.0000 
     48 CA        -21.6540   42.1890    3.0570 C.3       2 GLC5        0.0000 
     49 CA        -21.7290   43.6580    4.1830 C.3       4 GLP5        0.0000 
     50 CA        -22.2897   42.1614   -0.5070 C.3       2 GLC5        0.0000 
     51 CA        -22.0029   38.1159    2.6514 C.3       2 GLC5        0.0000 
     52 CA        -23.0490   36.7280    3.4610 C.3       4 GLP5        0.0000 
     53 CA        -19.6157   40.5310    1.6660 C.3       2 GLC5        0.0000 
@<TRIPOS>BOND
@<TRIPOS>SUBSTRUCTURE
     1 ALC1        7 GROUP        1 X    ALC  0     ROOT ALC X 1
     2 GLC5        1 GROUP        1 X    GLC  0     **** GLC X 6
     3 ALP1        9 GROUP        1 Y    ALP  0     ROOT ALP Y 8
     4 GLP5        3 GROUP        1 Y    GLP  0     **** GLP Y 13
     5 ALL1        8 GROUP        1 Z    ALL  0     ROOT ALL Z 15
     6 GLL5        2 GROUP        1 Z    GLL  0     **** GLL Z 20
@<TRIPOS>SET

