#    Name: 4gw8_3RA_1_ligand
#    Modification time : Mon Mar 24 23:53:26 2014

@<TRIPOS>MOLECULE
4gw8_3RA_1_ligand
   37    40     1     0     0
SMALL
NO_CHARGES


@<TRIPOS>ATOM
      1 CAA       -17.0240   35.0830   -2.5390 C.ar      1 3RA401      0.0000 
      2 CAB       -17.3690   35.1350   -3.8730 C.ar      1 3RA401      0.0000 
      3 CAC       -18.6970   35.3250   -4.2600 C.ar      1 3RA401      0.0000 
      4 CAD       -19.6890   35.4810   -3.2890 C.ar      1 3RA401      0.0000 
      5 CAE       -19.3410   35.4410   -1.9370 C.ar      1 3RA401      0.0000 
      6 CAF       -18.0000   35.2550   -1.5570 C.ar      1 3RA401      0.0000 
      7 NAG       -17.6140   35.1710   -0.2780 N.pl3     1 3RA401      0.0000 
      8 CAH       -18.0840   35.8880    0.7410 C.ar      1 3RA401      0.0000 
      9 NAI       -19.0610   36.8190    0.7550 N.2       1 3RA401      0.0000 
     10 CAJ       -19.1680   37.2950    2.0070 C.2       1 3RA401      0.0000 
     11 CAK       -18.2280   36.5960    2.7570 C.2       1 3RA401      0.0000 
     12 NAL       -17.5830   35.7330    1.9570 N.am      1 3RA401      0.0000 
     13 OAM       -18.0030   36.7460    3.9690 O.2       1 3RA401      0.0000 
     14 CAN       -19.9850   38.2610    2.6140 C.3       1 3RA401      0.0000 
     15 CAO       -20.7450   39.0990    1.8120 C.ar      1 3RA401      0.0000 
     16 CAP       -21.0620   38.7430    0.4840 C.ar      1 3RA401      0.0000 
     17 CAQ       -21.7930   39.5950   -0.3140 C.ar      1 3RA401      0.0000 
     18 CAR       -22.2570   40.7960    0.2120 C.ar      1 3RA401      0.0000 
     19 CAS       -21.9580   41.1440    1.5270 C.ar      1 3RA401      0.0000 
     20 CAT       -21.2000   40.2960    2.3350 C.ar      1 3RA401      0.0000 
     21 OAU       -22.2250   39.4650   -1.6060 O.3       1 3RA401      0.0000 
     22 CAV       -22.7890   40.7140   -1.9670 C.3       1 3RA401      0.0000 
     23 OAW       -22.9860   41.4490   -0.7400 O.3       1 3RA401      0.0000 
     24 H         -16.0465   34.9173   -2.2597 H         1 3RA401      0.0000 
     25 H         -16.6412   35.0329   -4.6012 H         1 3RA401      0.0000 
     26 H         -18.9439   35.3500   -5.2549 H         1 3RA401      0.0000 
     27 H         -20.6632   35.6235   -3.5662 H         1 3RA401      0.0000 
     28 H         -20.0629   35.5472   -1.2156 H         1 3RA401      0.0000 
     29 H         -16.8356   34.4405   -0.0501 H         1 3RA401      0.0000 
     30 H         -16.8897   35.1221    2.2261 H         1 3RA401      0.0000 
     31 H         -19.3371   38.8982    3.3248 H         1 3RA401      0.0000 
     32 H         -20.6734   37.7357    3.3764 H         1 3RA401      0.0000 
     33 H         -20.7368   37.8340    0.1216 H         1 3RA401      0.0000 
     34 H         -22.3008   42.0398    1.9094 H         1 3RA401      0.0000 
     35 H         -20.9869   40.5605    3.2991 H         1 3RA401      0.0000 
     36 H         -23.7460   40.5795   -2.4793 H         1 3RA401      0.0000 
     37 H         -22.1209   41.2693   -2.6316 H         1 3RA401      0.0000 
@<TRIPOS>BOND
     1    2    1 ar   
     2    6    1 ar   
     3   24    1 1    
     4    3    2 ar   
     5   25    2 1    
     6    4    3 ar   
     7   26    3 1    
     8    5    4 ar   
     9   27    4 1    
    10    6    5 ar   
    11   28    5 1    
    12    7    6 1    
    13    8    7 ar   
    14   29    7 1    
    15    9    8 1    
    16   12    8 ar   
    17   10    9 2    
    18   11   10 1    
    19   14   10 1    
    20   12   11 am   
    21   13   11 2    
    22   30   12 1    
    23   15   14 1    
    24   31   14 1    
    25   32   14 1    
    26   16   15 ar   
    27   20   15 ar   
    28   17   16 ar   
    29   33   16 1    
    30   18   17 ar   
    31   21   17 1    
    32   19   18 ar   
    33   23   18 1    
    34   20   19 ar   
    35   34   19 1    
    36   35   20 1    
    37   22   21 1    
    38   23   22 1    
    39   36   22 1    
    40   37   22 1    
@<TRIPOS>SUBSTRUCTURE
     1 3RA401      1 GROUP   
@<TRIPOS>SET

