#    Name: 1e4g_ATP_1_INTS_M
#    Modification time : Mon Mar 24 22:52:56 2014

@<TRIPOS>MOLECULE
1e4g_ATP_1_INTS_M
   82     0    15     0     0
SMALL
NO_CHARGES


@<TRIPOS>ATOM
      1 N          24.1360   11.2745   47.5480 N.am      2 SEC2        0.0000 
      2 N          25.1760   10.4510   48.2700 N.am     12 SEL2        0.0000 
      3 N          23.0960   12.0980   46.8260 N.am      7 SEP2        0.0000 
      4 N          23.8055   10.6045   48.7415 N.am      2 SEC2        0.0000 
      5 N          22.4350   10.7580   49.2130 N.am      7 SEP2        0.0000 
      6 N          26.4830   10.3410   47.2020 N.am      2 SEC2        0.0000 
      7 N          27.7900   10.2310   46.1340 N.am      7 SEP2        0.0000 
      8 N          25.7660   10.9450   51.5505 N.am      2 SEC2        0.0000 
      9 N          26.6070   10.9650   50.2180 N.am     12 SEL2        0.0000 
     10 N          24.9250   10.9250   52.8830 N.am      7 SEP2        0.0000 
     11 Zn         27.9595   12.8370   48.4495 Zn        4 ZIC7        0.0000 
     12 Zn         27.0390   12.0340   48.0170 Zn       14 ZIL7        0.0000 
     13 Zn         28.8800   13.6400   48.8820 Zn        9 ZIP7        0.0000 
     14 N          27.4145   11.1325   47.0755 N.am      2 SEC2        0.0000 
     15 N          27.0390   12.0340   48.0170 N.am     12 SEL2        0.0000 
     16 NZ         25.5955   15.9030   48.5115 N.4       3 LYC4        0.0000 
     17 NZ         23.9800   14.8810   48.8520 N.4      13 LYL4        0.0000 
     18 NZ         27.2110   16.9250   48.1710 N.4       8 LYP4        0.0000 
     19 N          22.7595   14.3465   48.5430 N.am      2 SEC2        0.0000 
     20 N          23.9800   14.8810   48.8520 N.am     12 SEL2        0.0000 
     21 N          21.5390   13.8120   48.2340 N.am      7 SEP2        0.0000 
     22 N          23.0935   15.6795   48.2870 N.am      2 SEC2        0.0000 
     23 N          22.2070   16.4780   47.7220 N.am      7 SEP2        0.0000 
     24 NZ         26.8600   15.7650   48.5170 N.4       3 LYC4        0.0000 
     25 NZ         26.5090   14.6050   48.8630 N.4      13 LYL4        0.0000 
     26 Zn         27.6945   14.1225   48.8725 Zn        4 ZIC7        0.0000 
     27 Zn         26.5090   14.6050   48.8630 Zn       14 ZIL7        0.0000 
     28 N          24.0585   12.3600   48.1365 N.am      2 SEC2        0.0000 
     29 N          25.0210   12.6220   49.4470 N.am     12 SEL2        0.0000 
     30 N          27.9375   15.1480   53.2535 N.am      2 SEC2        0.0000 
     31 N          27.1800   14.3150   52.2010 N.am     12 SEL2        0.0000 
     32 N          28.6950   15.9810   54.3060 N.am      7 SEP2        0.0000 
     33 NZ         26.7130   16.7885   50.0025 N.4       3 LYC4        0.0000 
     34 NZ         26.2150   16.6520   51.8340 N.4      13 LYL4        0.0000 
     35 CA         22.5360   15.3325   51.9085 C.3       5 GLC5        0.0000 
     36 CA         23.8570   15.6810   53.4680 C.3      15 GLL5        0.0000 
     37 CA         21.2150   14.9840   50.3490 C.3      10 GLP5        0.0000 
     38 CA         23.2010   17.2685   52.5840 C.3       5 GLC5        0.0000 
     39 CA         22.5450   18.8560   51.7000 C.3      10 GLP5        0.0000 
     40 CA         25.8450   16.2065   54.3370 C.3       5 GLC5        0.0000 
     41 CA         27.8330   16.7320   55.2060 C.3      10 GLP5        0.0000 
     42 CA         21.1205   15.8605   53.2350 C.3       5 GLC5        0.0000 
     43 CA         22.1230   16.2520   55.1950 C.3      15 GLL5        0.0000 
     44 CA         20.1180   15.4690   51.2750 C.3      10 GLP5        0.0000 
     45 CA         22.3340   17.5540   53.4475 C.3       5 GLC5        0.0000 
     46 O          20.1505   16.5020   54.9445 O.2       1 ALC1        0.0000 
     47 O          21.0420   15.3230   55.0560 O.2      11 ALL1        0.0000 
     48 O          19.2590   17.6810   54.8330 O.2       6 ALP1        0.0000 
     49 CA         20.3795   17.3930   56.8110 C.3       5 GLC5        0.0000 
     50 CA         22.3640   16.7300   56.6030 C.3      15 GLL5        0.0000 
     51 CA         18.3950   18.0560   57.0190 C.3      10 GLP5        0.0000 
     52 CA         21.8535   18.6090   57.4965 C.3       5 GLC5        0.0000 
     53 CA         21.3430   20.4880   58.3900 C.3      10 GLP5        0.0000 
     54 CA         25.8605   16.7395   56.0170 C.3       5 GLC5        0.0000 
     55 CA         23.8880   16.7470   56.8280 C.3      15 GLL5        0.0000 
     56 CA         27.0025   20.4275   56.7590 C.3       5 GLC5        0.0000 
     57 CA         25.2950   20.0230   57.4490 C.3      15 GLL5        0.0000 
     58 CA         28.7100   20.8320   56.0690 C.3      10 GLP5        0.0000 
     59 CA         24.0570   21.8465   58.5600 C.3       5 GLC5        0.0000 
     60 CA         25.8300   20.9080   58.4280 C.3      15 GLL5        0.0000 
     61 CA         22.2840   22.7850   58.6920 C.3      10 GLP5        0.0000 
     62 CA         27.5565   20.6030   58.4085 C.3       5 GLC5        0.0000 
     63 CA         29.2830   20.2980   58.3890 C.3      10 GLP5        0.0000 
     64 CA         25.5560   17.0270   59.7940 C.3       5 GLC5        0.0000 
     65 CA         25.5010   19.2390   60.0350 C.3      15 GLL5        0.0000 
     66 CA         25.6110   14.8150   59.5530 C.3      10 GLP5        0.0000 
     67 CA         23.7695   20.2560   60.3605 C.3       5 GLC5        0.0000 
     68 CA         22.0380   21.2730   60.6860 C.3      10 GLP5        0.0000 
     69 CA         27.3920   19.7685   59.2120 C.3       5 GLC5        0.0000 
     70 CA         26.2145   17.9470   61.0705 C.3       5 GLC5        0.0000 
     71 CA         26.9280   16.6550   62.1060 C.3      10 GLP5        0.0000 
     72 CA         25.2565   16.7960   58.7320 C.3       5 GLC5        0.0000 
     73 CA         24.9020   18.7770   57.9110 C.3      15 GLL5        0.0000 
     74 CA         26.3675   17.7545   56.5585 C.3       5 GLC5        0.0000 
     75 CA         21.8226   14.1901   54.0155 C.3       5 GLC5        0.0000 
     76 CA         23.3940   15.5040   54.8700 C.3      15 GLL5        0.0000 
     77 CA         20.7710   12.4580   53.3490 C.3      10 GLP5        0.0000 
     78 CA         20.5473   15.3435   56.6640 C.3       5 GLC5        0.0000 
     79 CA         18.8510   14.1960   57.4290 C.3      10 GLP5        0.0000 
     80 CA         23.2208   19.9440   58.0350 C.3       5 GLC5        0.0000 
     81 CA         23.3461   14.8086   56.9225 C.3       5 GLC5        0.0000 
     82 CA         23.7500   13.3090   57.9710 C.3      10 GLP5        0.0000 
@<TRIPOS>BOND
@<TRIPOS>SUBSTRUCTURE
     1 ALC1       46 GROUP        1 X    ALC  0     ROOT ALC X 1
     2 SEC2        1 GROUP        1 X    SEC  0     **** SEC X 2
     3 LYC4       16 GROUP        1 X    LYC  0     **** LYC X 4
     4 ZIC7       11 GROUP        1 X    ZIC  0     **** ZIC X 5
     5 GLC5       35 GROUP        1 X    GLC  0     **** GLC X 6
     6 ALP1       48 GROUP        1 Y    ALP  0     ROOT ALP Y 8
     7 SEP2        3 GROUP        1 Y    SEP  0     **** SEP Y 9
     8 LYP4       18 GROUP        1 Y    LYP  0     **** LYP Y 11
     9 ZIP7       13 GROUP        1 Y    ZIP  0     **** ZIP Y 12
    10 GLP5       37 GROUP        1 Y    GLP  0     **** GLP Y 13
    11 ALL1       47 GROUP        1 Z    ALL  0     ROOT ALL Z 15
    12 SEL2        2 GROUP        1 Z    SEL  0     **** SEL Z 16
    13 LYL4       17 GROUP        1 Z    LYL  0     **** LYL Z 18
    14 ZIL7       12 GROUP        1 Z    ZIL  0     **** ZIL Z 19
    15 GLL5       36 GROUP        1 Z    GLL  0     **** GLL Z 20
@<TRIPOS>SET

