#    Name: 1e4g_ATP_1_ligand
#    Modification time : Mon Mar 24 22:52:56 2014

@<TRIPOS>MOLECULE
1e4g_ATP_1_ligand
   43    45     1     0     0
SMALL
NO_CHARGES


@<TRIPOS>ATOM
      1 PG         26.0210   11.4390   48.9640 P.3       1 ATP500      0.0000 
      2 O1G        25.1760   10.4510   48.2700 O.co2     1 ATP500      0.0000 
      3 O2G        26.6070   10.9650   50.2180 O.co2     1 ATP500      0.0000 
      4 O3G        27.0390   12.0340   48.0170 O.co2     1 ATP500      0.0000 
      5 PB         25.2030   14.2590   49.4440 P.3       1 ATP500      0.0000 
      6 O1B        23.9800   14.8810   48.8520 O.co2     1 ATP500      0.0000 
      7 O2B        26.5090   14.6050   48.8630 O.co2     1 ATP500      0.0000 
      8 O3B        25.0210   12.6220   49.4470 O.3       1 ATP500      0.0000 
      9 PA         26.0120   15.1920   52.0680 P.3       1 ATP500      0.0000 
     10 O1A        27.1800   14.3150   52.2010 O.co2     1 ATP500      0.0000 
     11 O2A        26.2150   16.6520   51.8340 O.co2     1 ATP500      0.0000 
     12 O3A        25.1100   14.5240   50.9590 O.3       1 ATP500      0.0000 
     13 O5'        25.0740   14.9600   53.2910 O.3       1 ATP500      0.0000 
     14 C5'        23.8570   15.6810   53.4680 C.3       1 ATP500      0.0000 
     15 C4'        23.3940   15.5040   54.8700 C.3       1 ATP500      0.0000 
     16 O4'        24.4320   16.0300   55.7190 O.3       1 ATP500      0.0000 
     17 C3'        22.1230   16.2520   55.1950 C.3       1 ATP500      0.0000 
     18 O3'        21.0420   15.3230   55.0560 O.3       1 ATP500      0.0000 
     19 C2'        22.3640   16.7300   56.6030 C.3       1 ATP500      0.0000 
     20 O2'        21.7570   15.9310   57.6100 O.3       1 ATP500      0.0000 
     21 C1'        23.8880   16.7470   56.8280 C.3       1 ATP500      0.0000 
     22 N9         24.4290   18.1190   56.8250 N.pl3     1 ATP500      0.0000 
     23 C8         24.5680   19.0020   55.7800 C.2       1 ATP500      0.0000 
     24 N7         25.0780   20.1530   56.0930 N.2       1 ATP500      0.0000 
     25 C5         25.2950   20.0230   57.4490 C.ar      1 ATP500      0.0000 
     26 C6         25.8300   20.9080   58.4280 C.ar      1 ATP500      0.0000 
     27 N6         26.2360   22.1260   58.0940 N.pl3     1 ATP500      0.0000 
     28 N1         25.9190   20.4810   59.7190 N.ar      1 ATP500      0.0000 
     29 C2         25.5010   19.2390   60.0350 C.ar      1 ATP500      0.0000 
     30 N3         24.9770   18.3070   59.2140 N.ar      1 ATP500      0.0000 
     31 C4         24.9020   18.7770   57.9110 C.ar      1 ATP500      0.0000 
     32 H          23.0761   15.3170   52.7893 H         1 ATP500      0.0000 
     33 H          23.9965   16.7515   53.2743 H         1 ATP500      0.0000 
     34 H          23.2537   14.4588   55.0788 H         1 ATP500      0.0000 
     35 H          22.0597   17.0794   54.5408 H         1 ATP500      0.0000 
     36 H          22.0414   17.7707   56.6704 H         1 ATP500      0.0000 
     37 H          24.0939   16.2491   57.7428 H         1 ATP500      0.0000 
     38 H          24.2800   18.7345   54.8439 H         1 ATP500      0.0000 
     39 H          26.5822   22.6945   58.8403 H         1 ATP500      0.0000 
     40 H          26.1592   22.3655   57.1261 H         1 ATP500      0.0000 
     41 H          25.5993   18.9514   61.0895 H         1 ATP500      0.0000 
     42 H          20.2243   15.8903   54.9587 H         1 ATP500      0.0000 
     43 H          21.0234   15.4382   57.1420 H         1 ATP500      0.0000 
@<TRIPOS>BOND
     1    2    1 ar   
     2    3    1 ar   
     3    4    1 ar   
     4    8    1 1    
     5    6    5 ar   
     6    7    5 ar   
     7    8    5 1    
     8   12    5 1    
     9   10    9 ar   
    10   11    9 ar   
    11   12    9 1    
    12   13    9 1    
    13   14   13 1    
    14   15   14 1    
    15   32   14 1    
    16   33   14 1    
    17   16   15 1    
    18   17   15 1    
    19   34   15 1    
    20   21   16 1    
    21   18   17 1    
    22   19   17 1    
    23   35   17 1    
    24   42   18 1    
    25   20   19 1    
    26   21   19 1    
    27   36   19 1    
    28   43   20 1    
    29   22   21 1    
    30   37   21 1    
    31   23   22 1    
    32   31   22 1    
    33   24   23 2    
    34   38   23 1    
    35   25   24 1    
    36   26   25 ar   
    37   31   25 ar   
    38   27   26 1    
    39   28   26 ar   
    40   39   27 1    
    41   40   27 1    
    42   29   28 ar   
    43   30   29 ar   
    44   41   29 1    
    45   31   30 ar   
@<TRIPOS>SUBSTRUCTURE
     1 ATP500      1 GROUP   
@<TRIPOS>SET

