#    Name: 2Y6R_2_CAVITY_N1_6.mol2
#    Modification time : Tue Mar 11 02:31:02 2014

@<TRIPOS>MOLECULE
2Y6R_2_CAVITY_N1_6.mol2
  137     0     5     0     0
SMALL
NO_CHARGES


@<TRIPOS>ATOM
      1 O          32.3939   29.2743   37.2719 O.2       1 ALA2        0.0000 
      2 O          31.9552   30.4755   36.4879 O.2       1 ALA2        0.0000 
      3 O          31.5165   31.6767   35.7039 O.2       1 ALA2        0.0000 
      4 N          32.6708   24.8395   38.9320 N.2       1 ALA2        0.0000 
      5 N          32.2321   26.0407   38.1480 N.2       1 ALA2        0.0000 
      6 N          31.7934   27.2419   37.3640 N.2       1 ALA2        0.0000 
      7 DU         31.3547   28.4430   36.5799 H         5 CUB7        0.0000 
      8 DU         30.9160   29.6442   35.7959 H         5 CUB7        0.0000 
      9 DU         30.4772   30.8454   35.0118 H         5 CUB7        0.0000 
     10 CA         30.0385   32.0465   34.2278 C.3       4 GLY6        0.0000 
     11 O          31.6316   24.0082   38.2400 O.2       1 ALA2        0.0000 
     12 DU         31.1928   25.2094   37.4560 H         5 CUB7        0.0000 
     13 DU         30.7541   26.4106   36.6719 H         5 CUB7        0.0000 
     14 DU         30.3154   27.6118   35.8879 H         5 CUB7        0.0000 
     15 DU         29.8767   28.8129   35.1039 H         5 CUB7        0.0000 
     16 O          29.4380   30.0141   34.3198 O.2       1 ALA2        0.0000 
     17 O          28.9992   31.2153   33.5358 O.2       1 ALA2        0.0000 
     18 CZ         30.5923   23.1770   37.5480 C.ar      3 PHE5        0.0000 
     19 N          30.1536   24.3781   36.7640 N.2       1 ALA2        0.0000 
     20 N          29.7149   25.5793   35.9799 N.2       1 ALA2        0.0000 
     21 N          29.2761   26.7805   35.1959 N.2       1 ALA2        0.0000 
     22 N          28.8374   27.9816   34.4119 N.2       1 ALA2        0.0000 
     23 O          28.3987   29.1828   33.6278 O.2       1 ALA2        0.0000 
     24 N          28.2369   25.9492   34.5039 N.2       1 ALA2        0.0000 
     25 N          27.7981   27.1504   33.7198 N.2       1 ALA2        0.0000 
     26 N          27.1976   25.1179   33.8119 N.2       1 ALA2        0.0000 
     27 N          26.7589   26.3191   33.0278 N.2       1 ALA2        0.0000 
     28 O          26.3201   27.5202   32.2438 O.2       1 ALA2        0.0000 
     29 O          25.7196   25.4878   32.3358 O.2       1 ALA2        0.0000 
     30 CA         25.2809   26.6890   31.5518 C.3       4 GLY6        0.0000 
     31 CA         24.2416   25.8577   30.8598 C.3       4 GLY6        0.0000 
     32 N          23.2023   25.0264   30.1677 N.2       1 ALA2        0.0000 
     33 N          22.1631   24.1951   29.4757 N.2       1 ALA2        0.0000 
     34 N          21.1238   23.3638   28.7837 N.2       1 ALA2        0.0000 
     35 CZ         29.3774   29.1247   38.7306 C.ar      3 PHE5        0.0000 
     36 CA         28.9386   30.3258   37.9466 C.3       4 GLY6        0.0000 
     37 N          27.8994   29.4946   37.2546 N.2       1 ALA2        0.0000 
     38 N          27.4606   30.6957   36.4705 N.2       1 ALA2        0.0000 
     39 O          31.4053   29.6151   38.3473 O.2       1 ALA2        0.0000 
     40 N          30.8047   27.5827   38.4393 N.2       1 ALA2        0.0000 
     41 O          30.3660   28.7839   37.6553 O.2       1 ALA2        0.0000 
     42 CA         29.9273   29.9850   36.8712 C.3       4 GLY6        0.0000 
     43 CA         29.4886   31.1862   36.0872 C.3       4 GLY6        0.0000 
     44 O          29.0499   32.3874   35.3032 O.2       1 ALA2        0.0000 
     45 CZ         30.2042   25.5502   38.5313 C.ar      3 PHE5        0.0000 
     46 CZ         29.7655   26.7514   37.7473 C.ar      3 PHE5        0.0000 
     47 N          29.3267   27.9526   36.9633 N.2       1 ALA2        0.0000 
     48 N          28.8880   29.1537   36.1792 N.2       1 ALA2        0.0000 
     49 N          28.4493   30.3549   35.3952 N.2       1 ALA2        0.0000 
     50 N          28.0106   31.5561   34.6111 N.2       1 ALA2        0.0000 
     51 CA         29.1649   24.7189   37.8393 C.3       4 GLY6        0.0000 
     52 N          28.7262   25.9201   37.0553 N.2       1 ALA2        0.0000 
     53 N          28.2875   27.1213   36.2713 N.2       1 ALA2        0.0000 
     54 CA         31.8034   26.9592   31.1858 C.3       4 GLY6        0.0000 
     55 CZ         31.2028   24.9267   31.2778 C.ar      3 PHE5        0.0000 
     56 CA         30.7641   26.1279   30.4938 C.3       4 GLY6        0.0000 
     57 CA         31.0410   21.6931   32.1539 C.3       4 GLY6        0.0000 
     58 CZ         30.6023   22.8943   31.3698 C.ar      3 PHE5        0.0000 
     59 CA         30.1636   24.0954   30.5858 C.3       4 GLY6        0.0000 
     60 CA         29.7248   25.2966   29.8017 C.3       4 GLY6        0.0000 
     61 CA         29.5630   22.0630   30.6778 C.3       4 GLY6        0.0000 
     62 DU         29.1243   23.2642   29.8938 H         5 CUB7        0.0000 
     63 CA         28.6856   24.4653   29.1097 C.3       4 GLY6        0.0000 
     64 O          28.2468   25.6665   28.3257 O.2       1 ALA2        0.0000 
     65 N          28.5237   21.2317   29.9858 N.2       1 ALA2        0.0000 
     66 DU         28.0850   22.4329   29.2018 H         5 CUB7        0.0000 
     67 N          27.4845   20.4004   29.2938 N.2       1 ALA2        0.0000 
     68 N          32.4545   30.1637   32.8611 N.2       1 ALA2        0.0000 
     69 CA         31.8540   28.1313   32.9531 C.3       4 GLY6        0.0000 
     70 O          31.4153   29.3325   32.1691 O.2       1 ALA2        0.0000 
     71 CZ         31.2534   26.0988   33.0452 C.ar      3 PHE5        0.0000 
     72 O          30.8147   27.3000   32.2611 O.2       1 ALA2        0.0000 
     73 CZ         31.0916   22.8652   33.9212 C.ar      3 PHE5        0.0000 
     74 CZ         30.6529   24.0664   33.1372 C.ar      3 PHE5        0.0000 
     75 CZ         30.2142   25.2675   32.3532 C.ar      3 PHE5        0.0000 
     76 O          29.7755   26.4687   31.5691 O.2       1 ALA2        0.0000 
     77 N          29.6136   23.2351   32.4452 N.2       1 ALA2        0.0000 
     78 DU         29.1749   24.4363   31.6611 H         5 CUB7        0.0000 
     79 O          28.7362   25.6374   30.8771 O.2       1 ALA2        0.0000 
     80 N          28.5744   22.4038   31.7532 N.2       1 ALA2        0.0000 
     81 CZ         31.5909   22.5535   30.2945 C.ar      3 PHE5        0.0000 
     82 CA         30.5517   21.7222   29.6024 C.3       4 GLY6        0.0000 
     83 CA         30.1129   22.9233   28.8184 C.3       4 GLY6        0.0000 
     84 CA         29.5124   20.8909   28.9104 C.3       4 GLY6        0.0000 
     85 N          28.1356   23.6050   30.9691 N.2       1 ALA2        0.0000 
     86 DU         27.6969   24.8061   30.1851 H         5 CUB7        0.0000 
     87 O          27.2582   26.0073   29.4011 O.2       1 ALA2        0.0000 
     88 O          26.8195   27.2085   28.6170 O.2       1 ALA2        0.0000 
     89 N          27.0964   22.7737   30.2771 N.2       1 ALA2        0.0000 
     90 DU         26.6576   23.9749   29.4931 H         5 CUB7        0.0000 
     91 DU         26.2189   25.1760   28.7090 H         5 CUB7        0.0000 
     92 O          25.7802   26.3772   27.9250 O.2       1 ALA2        0.0000 
     93 N          26.4958   20.7412   30.3691 N.2       1 ALA2        0.0000 
     94 CA         26.0571   21.9424   29.5851 C.3       4 GLY6        0.0000 
     95 N          25.6184   23.1436   28.8011 N.2       1 ALA2        0.0000 
     96 DU         25.1796   24.3447   28.0170 H         5 CUB7        0.0000 
     97 N          25.4565   19.9100   29.6771 N.2       1 ALA2        0.0000 
     98 CA         33.8213   27.7323   36.9806 C.3       4 GLY6        0.0000 
     99 O          33.3826   28.9335   36.1966 O.2       1 ALA2        0.0000 
    100 N          32.9439   30.1347   35.4125 N.2       1 ALA2        0.0000 
    101 O          32.5052   31.3358   34.6285 O.2       1 ALA2        0.0000 
    102 CZ         33.2208   25.6999   37.0726 C.ar      3 PHE5        0.0000 
    103 CA         32.7820   26.9010   36.2886 C.3       4 GLY6        0.0000 
    104 CA         32.3433   28.1022   35.5046 C.3       4 GLY6        0.0000 
    105 CA         31.9046   29.3034   34.7205 C.3       4 GLY6        0.0000 
    106 O          31.4659   30.5046   33.9365 O.2       1 ALA2        0.0000 
    107 CA         31.0272   31.7057   33.1524 C.3       4 GLY6        0.0000 
    108 CZ         32.6202   23.6674   37.1647 C.ar      3 PHE5        0.0000 
    109 CZ         32.1815   24.8686   36.3806 C.ar      3 PHE5        0.0000 
    110 CZ         31.7428   26.0698   35.5966 C.ar      3 PHE5        0.0000 
    111 CA         31.3041   27.2709   34.8125 C.3       4 GLY6        0.0000 
    112 O          30.8653   28.4721   34.0285 O.2       1 ALA2        0.0000 
    113 O          30.4266   29.6733   33.2445 O.2       1 ALA2        0.0000 
    114 CZ         31.1422   24.0373   35.6886 C.ar      3 PHE5        0.0000 
    115 CZ         30.7035   25.2385   34.9046 C.ar      3 PHE5        0.0000 
    116 CZ         30.2648   26.4396   34.1205 C.ar      3 PHE5        0.0000 
    117 O          29.8261   27.6408   33.3365 O.2       1 ALA2        0.0000 
    118 CZ         30.1030   23.2060   34.9966 C.ar      3 PHE5        0.0000 
    119 N          29.6642   24.4072   34.2126 N.2       1 ALA2        0.0000 
    120 O          29.2255   25.6084   33.4285 O.2       1 ALA2        0.0000 
    121 O          28.7868   26.8095   32.6445 O.2       1 ALA2        0.0000 
    122 N          28.6250   23.5759   33.5205 N.2       1 ALA2        0.0000 
    123 N          28.1862   24.7771   32.7365 N.2       1 ALA2        0.0000 
    124 O          27.7475   25.9782   31.9525 O.2       1 ALA2        0.0000 
    125 O          27.1470   23.9458   32.0445 O.2       1 ALA2        0.0000 
    126 O          26.7083   25.1470   31.2605 O.2       1 ALA2        0.0000 
    127 O          26.2695   26.3481   30.4764 O.2       1 ALA2        0.0000 
    128 O          25.8308   27.5493   29.6924 O.2       1 ALA2        0.0000 
    129 NZ         25.3921   28.7505   28.9083 N.2       2 LYS4        0.0000 
    130 CA         26.1077   23.1145   31.3525 C.3       4 GLY6        0.0000 
    131 N          25.6690   24.3157   30.5684 N.2       1 ALA2        0.0000 
    132 DU         25.2303   25.5168   29.7844 H         5 CUB7        0.0000 
    133 NZ         24.7915   26.7180   29.0004 N.2       2 LYS4        0.0000 
    134 N          24.6297   23.4844   29.8764 N.2       1 ALA2        0.0000 
    135 N          24.1910   24.6856   29.0924 N.2       1 ALA2        0.0000 
    136 NZ         23.7523   25.8867   28.3083 N.2       2 LYS4        0.0000 
    137 DU         30.0623   21.7512   27.0510 H         5 CUB7        0.0000 
@<TRIPOS>BOND
@<TRIPOS>SUBSTRUCTURE
     1 ALA2        1 GROUP   
     2 LYS4      129 GROUP   
     3 PHE5       18 GROUP   
     4 GLY6       10 GROUP   
     5 CUB7        7 GROUP   
@<TRIPOS>SET

