#    Name: 2y6r_CTC_2_INTS_M
#    Modification time : Tue Mar 25 07:45:08 2014

@<TRIPOS>MOLECULE
2y6r_CTC_2_INTS_M
   47     0     9     0     0
SMALL
NO_CHARGES


@<TRIPOS>ATOM
      1 N          29.2575   28.7410   32.3435 N.am      2 SEC2        0.0000 
      2 N          29.6810   28.6900   33.6450 N.am      8 SEL2        0.0000 
      3 N          28.8340   28.7920   31.0420 N.am      5 SEP2        0.0000 
      4 CA         32.8660   25.2655   35.5825 C.3       3 GLC5        0.0000 
      5 CA         31.2140   25.7610   36.0490 C.3       9 GLL5        0.0000 
      6 CA         34.5180   24.7700   35.1160 C.3       6 GLP5        0.0000 
      7 CA         28.9855   25.0155   38.7535 C.3       3 GLC5        0.0000 
      8 CA         30.7950   26.2760   38.4300 C.3       9 GLL5        0.0000 
      9 CA         27.1760   23.7550   39.0770 C.3       6 GLP5        0.0000 
     10 CA         29.2450   26.7755   39.1335 C.3       3 GLC5        0.0000 
     11 CA         27.6950   27.2750   39.8370 C.3       6 GLP5        0.0000 
     12 CA         28.5780   23.9950   38.2525 C.3       3 GLC5        0.0000 
     13 CA         29.9800   24.2350   37.4280 C.3       9 GLL5        0.0000 
     14 CA         30.4050   22.3465   36.8685 C.3       3 GLC5        0.0000 
     15 CA         30.8300   20.4580   36.3090 C.3       6 GLP5        0.0000 
     16 CA         28.4565   22.6670   34.1165 C.3       3 GLC5        0.0000 
     17 CA         29.1110   24.3440   32.9730 C.3       9 GLL5        0.0000 
     18 CA         27.8020   20.9900   35.2600 C.3       6 GLP5        0.0000 
     19 CA         30.5915   20.9505   31.5145 C.3       3 GLC5        0.0000 
     20 CA         30.4620   22.6920   31.6970 C.3       9 GLL5        0.0000 
     21 CA         30.7210   19.2090   31.3320 C.3       6 GLP5        0.0000 
     22 CA         32.2870   22.0245   30.6885 C.3       3 GLC5        0.0000 
     23 CA         34.1120   21.3570   29.6800 C.3       6 GLP5        0.0000 
     24 CA         24.4650   24.2350   31.8265 C.3       3 GLC5        0.0000 
     25 CA         25.8460   23.7450   30.2610 C.3       9 GLL5        0.0000 
     26 CA         23.0840   24.7250   33.3920 C.3       6 GLP5        0.0000 
     27 O          27.0395   27.4220   35.7810 O.2       1 ALC1        0.0000 
     28 O          28.3560   26.9910   36.1310 O.2       7 ALL1        0.0000 
     29 O          25.7230   27.8530   35.4310 O.2       4 ALP1        0.0000 
     30 CA         32.9850   27.3745   34.8600 C.3       3 GLC5        0.0000 
     31 CA         31.2390   28.2030   35.3200 C.3       9 GLL5        0.0000 
     32 CA         34.4430   27.0570   34.0390 C.3       6 GLP5        0.0000 
     33 CA         31.9065   25.0587   33.6805 C.3       3 GLC5        0.0000 
     34 CA         29.9580   25.5010   35.1590 C.3       9 GLL5        0.0000 
     35 CA         33.6790   24.9500   32.8730 C.3       6 GLP5        0.0000 
     36 CA         31.2602   24.1930   30.1433 C.3       3 GLC5        0.0000 
     37 CA         32.5650   25.1260   28.6570 C.3       6 GLP5        0.0000 
     38 CA         31.6635   23.4775   32.4181 C.3       3 GLC5        0.0000 
     39 CA         33.4560   23.5660   32.8540 C.3       6 GLP5        0.0000 
     40 CA         26.4675   22.0502   31.6750 C.3       3 GLC5        0.0000 
     41 CA         28.1750   23.3650   30.8450 C.3       9 GLL5        0.0000 
     42 CA         24.7990   21.3240   32.8890 C.3       6 GLP5        0.0000 
     43 CA         29.7640   20.4385   30.6630 C.3       3 GLC5        0.0000 
     44 CA         28.0970   22.1880   30.0770 C.3       9 GLL5        0.0000 
     45 CA         25.5790   21.7515   31.1775 C.3       3 GLC5        0.0000 
     46 CA         26.9290   21.7880   29.4210 C.3       9 GLL5        0.0000 
     47 CA         25.6175   22.6370   31.7410 C.3       3 GLC5        0.0000 
@<TRIPOS>BOND
@<TRIPOS>SUBSTRUCTURE
     1 ALC1       27 GROUP        1 X    ALC  0     ROOT ALC X 1
     2 SEC2        1 GROUP        1 X    SEC  0     **** SEC X 2
     3 GLC5        4 GROUP        1 X    GLC  0     **** GLC X 6
     4 ALP1       29 GROUP        1 Y    ALP  0     ROOT ALP Y 8
     5 SEP2        3 GROUP        1 Y    SEP  0     **** SEP Y 9
     6 GLP5        6 GROUP        1 Y    GLP  0     **** GLP Y 13
     7 ALL1       28 GROUP        1 Z    ALL  0     ROOT ALL Z 15
     8 SEL2        2 GROUP        1 Z    SEL  0     **** SEL Z 16
     9 GLL5        5 GROUP        1 Z    GLL  0     **** GLL Z 20
@<TRIPOS>SET

