#    Name: 2y6r_CTC_2_ligand
#    Modification time : Tue Mar 25 07:45:08 2014

@<TRIPOS>MOLECULE
2y6r_CTC_2_ligand
   57    60     1     0     0
SMALL
NO_CHARGES


@<TRIPOS>ATOM
      1 C1         30.0050   27.9270   34.5730 C.2       1 CTC1385     0.0000 
      2 O1         29.6810   28.6900   33.6450 O.2       1 CTC1385     0.0000 
      3 C2         31.2390   28.2030   35.3200 C.2       1 CTC1385     0.0000 
      4 C2'        31.8770   29.5460   35.2820 C.2       1 CTC1385     0.0000 
      5 O2'        32.8920   29.7480   35.9420 O.2       1 CTC1385     0.0000 
      6 N2'        31.4150   30.5240   34.4840 N.am      1 CTC1385     0.0000 
      7 C3         31.8150   27.1810   36.0420 C.2       1 CTC1385     0.0000 
      8 O3         32.9500   27.3840   36.7490 O.3       1 CTC1385     0.0000 
      9 C4         31.2140   25.7610   36.0490 C.3       1 CTC1385     0.0000 
     10 N4         31.0570   25.2330   37.4120 N.4       1 CTC1385     0.0000 
     11 C4'        30.7950   26.2760   38.4300 C.3       1 CTC1385     0.0000 
     12 C4D        29.9800   24.2350   37.4280 C.3       1 CTC1385     0.0000 
     13 C4A        29.9580   25.5010   35.1590 C.3       1 CTC1385     0.0000 
     14 C5         30.3100   24.8340   33.8170 C.3       1 CTC1385     0.0000 
     15 C5A        29.1110   24.3440   32.9730 C.3       1 CTC1385     0.0000 
     16 C6         29.4490   23.8280   31.5620 C.3       1 CTC1385     0.0000 
     17 O6         30.0430   24.8960   30.7520 O.3       1 CTC1385     0.0000 
     18 C6'        30.4620   22.6920   31.6970 C.3       1 CTC1385     0.0000 
     19 C6A        28.1750   23.3650   30.8450 C.ar      1 CTC1385     0.0000 
     20 C7         28.0970   22.1880   30.0770 C.ar      1 CTC1385     0.0000 
     21 CL7        29.5170   21.1480   29.9110 Cl        1 CTC1385     0.0000 
     22 C8         26.9290   21.7880   29.4210 C.ar      1 CTC1385     0.0000 
     23 C9         25.7890   22.5700   29.5110 C.ar      1 CTC1385     0.0000 
     24 C10        25.8460   23.7450   30.2610 C.ar      1 CTC1385     0.0000 
     25 O10        24.7320   24.4630   30.3180 O.3       1 CTC1385     0.0000 
     26 C6B        27.0260   24.1550   30.9250 C.ar      1 CTC1385     0.0000 
     27 C11        27.0980   25.3700   31.7370 C.2       1 CTC1385     0.0000 
     28 O11        26.1660   26.2600   31.5400 O.2       1 CTC1385     0.0000 
     29 C5B        28.0690   25.4560   32.8200 C.2       1 CTC1385     0.0000 
     30 C12        28.0900   26.5420   33.7590 C.2       1 CTC1385     0.0000 
     31 O12        27.2000   27.5020   33.6510 O.3       1 CTC1385     0.0000 
     32 C4B        29.0990   26.7300   34.9180 C.3       1 CTC1385     0.0000 
     33 O4B        28.3560   26.9910   36.1310 O.3       1 CTC1385     0.0000 
     34 H          30.6256   30.2921   33.9157 H         1 CTC1385     0.0000 
     35 H          31.9020   31.3962   34.5299 H         1 CTC1385     0.0000 
     36 H          32.0398   25.0978   35.5662 H         1 CTC1385     0.0000 
     37 H          31.9937   24.7103   37.6905 H         1 CTC1385     0.0000 
     38 H          29.3243   24.7631   35.7125 H         1 CTC1385     0.0000 
     39 H          30.9767   23.9715   34.0129 H         1 CTC1385     0.0000 
     40 H          30.8984   25.5485   33.2086 H         1 CTC1385     0.0000 
     41 H          28.6168   23.5265   33.5170 H         1 CTC1385     0.0000 
     42 H          26.9219   20.9184   28.8769 H         1 CTC1385     0.0000 
     43 H          24.9276   22.2976   29.0425 H         1 CTC1385     0.0000 
     44 H          31.5359   26.9461   38.4744 H         1 CTC1385     0.0000 
     45 H          29.9541   26.7812   38.2362 H         1 CTC1385     0.0000 
     46 H          30.6979   25.8854   39.3454 H         1 CTC1385     0.0000 
     47 H          30.1733   23.4701   36.8136 H         1 CTC1385     0.0000 
     48 H          29.8436   23.8504   38.3409 H         1 CTC1385     0.0000 
     49 H          29.1059   24.6273   37.1416 H         1 CTC1385     0.0000 
     50 H          30.7221   22.3186   30.8066 H         1 CTC1385     0.0000 
     51 H          31.3031   22.9957   32.1445 H         1 CTC1385     0.0000 
     52 H          30.0994   21.9334   32.2384 H         1 CTC1385     0.0000 
     53 H          33.1889   28.3412   36.5855 H         1 CTC1385     0.0000 
     54 H          30.8064   24.4630   30.2726 H         1 CTC1385     0.0000 
     55 H          24.9822   25.2890   30.8231 H         1 CTC1385     0.0000 
     56 H          26.6450   27.2521   32.8577 H         1 CTC1385     0.0000 
     57 H          27.4638   27.3205   35.8220 H         1 CTC1385     0.0000 
@<TRIPOS>BOND
     1    2    1 2    
     2    3    1 1    
     3   32    1 1    
     4    4    3 1    
     5    7    3 2    
     6    5    4 2    
     7    6    4 am   
     8   34    6 1    
     9   35    6 1    
    10    8    7 1    
    11    9    7 1    
    12   53    8 1    
    13   10    9 1    
    14   13    9 1    
    15   36    9 1    
    16   11   10 1    
    17   12   10 1    
    18   37   10 1    
    19   44   11 1    
    20   45   11 1    
    21   46   11 1    
    22   47   12 1    
    23   48   12 1    
    24   49   12 1    
    25   14   13 1    
    26   32   13 1    
    27   38   13 1    
    28   15   14 1    
    29   39   14 1    
    30   40   14 1    
    31   16   15 1    
    32   29   15 1    
    33   41   15 1    
    34   17   16 1    
    35   18   16 1    
    36   19   16 1    
    37   54   17 1    
    38   50   18 1    
    39   51   18 1    
    40   52   18 1    
    41   20   19 ar   
    42   26   19 ar   
    43   21   20 1    
    44   22   20 ar   
    45   23   22 ar   
    46   42   22 1    
    47   24   23 ar   
    48   43   23 1    
    49   25   24 1    
    50   26   24 ar   
    51   55   25 1    
    52   27   26 1    
    53   28   27 2    
    54   29   27 1    
    55   30   29 2    
    56   31   30 1    
    57   32   30 1    
    58   56   31 1    
    59   33   32 1    
    60   57   33 1    
@<TRIPOS>SUBSTRUCTURE
     1 CTC1385     1 GROUP   
@<TRIPOS>SET

