#    Name: 3hja_NAD_3_INTS_M
#    Modification time : Tue Mar 25 14:24:30 2014

@<TRIPOS>MOLECULE
3hja_NAD_3_INTS_M
   83     0     9     0     0
SMALL
NO_CHARGES


@<TRIPOS>ATOM
      1 N           7.6455   37.3665   30.3120 N.am      2 SEC2        0.0000 
      2 N           6.9900   35.9520   29.9490 N.am      8 SEL2        0.0000 
      3 N           8.3010   38.7810   30.6750 N.am      5 SEP2        0.0000 
      4 N           6.0660   35.4420   30.8670 N.am      2 SEC2        0.0000 
      5 N           5.1420   34.9320   31.7850 N.am      5 SEP2        0.0000 
      6 CA          8.2820   38.2880   24.2405 C.3       3 GLC5        0.0000 
      7 CA          7.2080   36.9710   25.3200 C.3       9 GLL5        0.0000 
      8 CA          9.3560   39.6050   23.1610 C.3       6 GLP5        0.0000 
      9 CA          4.5175   36.2525   26.8170 C.3       3 GLC5        0.0000 
     10 CA          5.6840   36.9810   25.3300 C.3       9 GLL5        0.0000 
     11 CA          3.3510   35.5240   28.3040 C.3       6 GLP5        0.0000 
     12 O           5.5170   39.3330   24.5795 O.2       1 ALC1        0.0000 
     13 O           5.2470   38.3280   25.5230 O.2       7 ALL1        0.0000 
     14 O           5.7870   40.3380   23.6360 O.2       4 ALP1        0.0000 
     15 O           4.5915   38.9575   24.1240 O.2       1 ALC1        0.0000 
     16 O           3.9360   39.5870   22.7250 O.2       4 ALP1        0.0000 
     17 O           3.9830   38.3145   23.1295 O.2       1 ALC1        0.0000 
     18 O           4.0300   37.0420   23.5340 O.2       7 ALL1        0.0000 
     19 CA          7.9010   38.2640   23.1395 C.3       3 GLC5        0.0000 
     20 CA          6.4460   36.9230   23.1180 C.3       9 GLL5        0.0000 
     21 CA          8.5850   36.3435   23.1350 C.3       3 GLC5        0.0000 
     22 CA         10.7240   35.7640   23.1520 C.3       6 GLP5        0.0000 
     23 CA          5.2480   35.6650   19.7000 C.3       3 GLC5        0.0000 
     24 CA          7.0880   35.6960   19.7620 C.3       9 GLL5        0.0000 
     25 CA          3.4080   35.6340   19.6380 C.3       6 GLP5        0.0000 
     26 CA          8.4460   33.9460   19.5695 C.3       3 GLC5        0.0000 
     27 CA          9.8040   32.1960   19.3770 C.3       6 GLP5        0.0000 
     28 CA          5.5670   36.5845   18.0395 C.3       3 GLC5        0.0000 
     29 CA          7.4430   36.0350   18.4560 C.3       9 GLL5        0.0000 
     30 CA          3.6910   37.1340   17.6230 C.3       6 GLP5        0.0000 
     31 CA          6.7580   36.4110   16.3985 C.3       3 GLC5        0.0000 
     32 CA          6.0730   36.7870   14.3410 C.3       6 GLP5        0.0000 
     33 O           7.8705   35.3765   16.0160 O.2       1 ALC1        0.0000 
     34 O           7.5500   35.0830   17.4960 O.2       7 ALL1        0.0000 
     35 O           8.1910   35.6700   14.5360 O.2       4 ALP1        0.0000 
     36 CA          6.5385   39.7225   19.7320 C.3       3 GLC5        0.0000 
     37 CA          7.5940   38.3050   19.0930 C.3       9 GLL5        0.0000 
     38 CA          5.4830   41.1400   20.3710 C.3       6 GLP5        0.0000 
     39 CA          5.5640   37.6905   19.1205 C.3       3 GLC5        0.0000 
     40 CA          3.5340   37.0760   19.1480 C.3       6 GLP5        0.0000 
     41 CA          9.0360   37.6265   20.0095 C.3       3 GLC5        0.0000 
     42 CA         10.4780   36.9480   20.9260 C.3       6 GLP5        0.0000 
     43 CA          8.1750   38.1585   21.9360 C.3       3 GLC5        0.0000 
     44 CA          6.9940   36.7120   20.7110 C.3       9 GLL5        0.0000 
     45 CA          5.2640   36.8940   19.9295 C.3       3 GLC5        0.0000 
     46 N          10.6190   37.9090   30.4015 N.am      2 SEC2        0.0000 
     47 N          10.1620   36.6790   29.7250 N.am      8 SEL2        0.0000 
     48 N          11.0760   39.1390   31.0780 N.am      5 SEP2        0.0000 
     49 CA         12.6630   36.2075   29.5085 C.3       3 GLC5        0.0000 
     50 CA         11.8520   35.0390   27.9150 C.3       9 GLL5        0.0000 
     51 CA         13.4740   37.3760   31.1020 C.3       6 GLP5        0.0000 
     52 N          15.0450   35.7215   27.7410 N.am      2 SEC2        0.0000 
     53 N          14.1400   34.8620   28.6970 N.am      8 SEL2        0.0000 
     54 N          15.9500   36.5810   26.7850 N.am      5 SEP2        0.0000 
     55 CA         14.0710   35.5315   30.2230 C.3       3 GLC5        0.0000 
     56 CA         14.6680   33.6870   29.3440 C.3       9 GLL5        0.0000 
     57 CA         16.1055   32.8000   28.0020 C.3       3 GLC5        0.0000 
     58 CA         17.5430   31.9130   26.6600 C.3       6 GLP5        0.0000 
     59 CA         13.6580   35.6650   31.3710 C.3       3 GLC5        0.0000 
     60 CA         13.8420   33.9540   31.6400 C.3       9 GLL5        0.0000 
     61 N          12.9940   33.9040   36.6460 N.am      2 SEC2        0.0000 
     62 N          13.2030   33.9770   35.2790 N.am      8 SEL2        0.0000 
     63 N          12.7850   33.8310   38.0130 N.am      5 SEP2        0.0000 
     64 CA         17.4790   36.0430   33.5965 C.3       3 GLC5        0.0000 
     65 CA         16.4210   34.5120   32.4970 C.3       9 GLL5        0.0000 
     66 CA         18.5370   37.5740   34.6960 C.3       6 GLP5        0.0000 
     67 CA         14.8010   35.8050   31.1315 C.3       3 GLC5        0.0000 
     68 CA         16.1280   34.2340   31.1610 C.3       9 GLL5        0.0000 
     69 CA          9.0965   36.0785   24.4470 C.3       3 GLC5        0.0000 
     70 CA          7.0263   38.0105   27.0060 C.3       3 GLC5        0.0000 
     71 CA          7.7300   35.8150   26.1640 C.3       9 GLL5        0.0000 
     72 CA          7.4760   39.3340   28.4760 C.3       6 GLP5        0.0000 
     73 CA          8.8039   36.6184   20.4180 C.3       3 GLC5        0.0000 
     74 CA         13.0730   36.2330   26.2702 C.3       3 GLC5        0.0000 
     75 CA         13.6030   37.7100   24.7560 C.3       6 GLP5        0.0000 
     76 CA         12.7035   33.0710   25.9550 C.3       3 GLC5        0.0000 
     77 CA         13.2340   34.4730   27.6540 C.3       9 GLL5        0.0000 
     78 CA         12.1750   32.4260   24.2640 C.3       6 GLP5        0.0000 
     79 CA         17.0393   34.0737   34.4090 C.3       3 GLC5        0.0000 
     80 CA         15.3860   34.5130   33.4250 C.3       9 GLL5        0.0000 
     81 CA         18.1750   33.6350   35.8570 C.3       6 GLP5        0.0000 
     82 CA         14.7477   36.0611   32.6959 C.3       3 GLC5        0.0000 
     83 CA         13.9170   37.6800   32.5390 C.3       6 GLP5        0.0000 
@<TRIPOS>BOND
@<TRIPOS>SUBSTRUCTURE
     1 ALC1       12 GROUP        1 X    ALC  0     ROOT ALC X 1
     2 SEC2        1 GROUP        1 X    SEC  0     **** SEC X 2
     3 GLC5        6 GROUP        1 X    GLC  0     **** GLC X 6
     4 ALP1       14 GROUP        1 Y    ALP  0     ROOT ALP Y 8
     5 SEP2        3 GROUP        1 Y    SEP  0     **** SEP Y 9
     6 GLP5        8 GROUP        1 Y    GLP  0     **** GLP Y 13
     7 ALL1       13 GROUP        1 Z    ALL  0     ROOT ALL Z 15
     8 SEL2        2 GROUP        1 Z    SEL  0     **** SEL Z 16
     9 GLL5        7 GROUP        1 Z    GLL  0     **** GLL Z 20
@<TRIPOS>SET

