#    Name: 3hja_NAD_3_ligand
#    Modification time : Tue Mar 25 14:24:30 2014

@<TRIPOS>MOLECULE
3hja_NAD_3_ligand
   70    74     1     0     0
SMALL
NO_CHARGES


@<TRIPOS>ATOM
      1 PA          7.3970   35.1770   28.7240 P.3       1 NAD337      0.0000 
      2 O1A         6.6070   33.9830   28.2540 O.co2     1 NAD337      0.0000 
      3 O2A         6.9900   35.9520   29.9490 O.co2     1 NAD337      0.0000 
      4 O5B         7.5840   36.2190   27.5240 O.3       1 NAD337      0.0000 
      5 C5B         7.7300   35.8150   26.1640 C.3       1 NAD337      0.0000 
      6 C4B         7.2080   36.9710   25.3200 C.3       1 NAD337      0.0000 
      7 O4B         7.5950   36.7980   23.9600 O.3       1 NAD337      0.0000 
      8 C3B         5.6840   36.9810   25.3300 C.3       1 NAD337      0.0000 
      9 O3B         5.2470   38.3280   25.5230 O.3       1 NAD337      0.0000 
     10 C2B         5.2700   36.4640   23.9650 C.3       1 NAD337      0.0000 
     11 O2B         4.0300   37.0420   23.5340 O.3       1 NAD337      0.0000 
     12 C1B         6.4460   36.9230   23.1180 C.3       1 NAD337      0.0000 
     13 N9A         6.6420   36.1500   21.8640 N.pl3     1 NAD337      0.0000 
     14 C8A         6.5110   34.8170   21.6690 C.2       1 NAD337      0.0000 
     15 N7A         6.7750   34.5290   20.3720 N.2       1 NAD337      0.0000 
     16 C5A         7.0880   35.6960   19.7620 C.ar      1 NAD337      0.0000 
     17 C6A         7.4430   36.0350   18.4560 C.ar      1 NAD337      0.0000 
     18 N6A         7.5500   35.0830   17.4960 N.pl3     1 NAD337      0.0000 
     19 N1A         7.6890   37.3270   18.1590 N.ar      1 NAD337      0.0000 
     20 C2A         7.5940   38.3050   19.0930 C.ar      1 NAD337      0.0000 
     21 N3A         7.2530   38.0050   20.3640 N.ar      1 NAD337      0.0000 
     22 C4A         6.9940   36.7120   20.7110 C.ar      1 NAD337      0.0000 
     23 O3          8.9110   34.6140   28.8690 O.3       1 NAD337      0.0000 
     24 PN         10.0610   35.1690   29.8610 P.3       1 NAD337      0.0000 
     25 O1N         9.9490   34.4760   31.2010 O.co2     1 NAD337      0.0000 
     26 O2N        10.1620   36.6790   29.7250 O.co2     1 NAD337      0.0000 
     27 O5D        11.3700   34.5400   29.1660 O.3       1 NAD337      0.0000 
     28 C5D        11.8520   35.0390   27.9150 C.3       1 NAD337      0.0000 
     29 C4D        13.2340   34.4730   27.6540 C.3       1 NAD337      0.0000 
     30 O4D        14.1400   34.8620   28.6970 O.3       1 NAD337      0.0000 
     31 C3D        13.2300   32.9590   27.6380 C.3       1 NAD337      0.0000 
     32 O3D        14.2130   32.5850   26.6580 O.3       1 NAD337      0.0000 
     33 C2D        13.6740   32.5750   29.0440 C.3       1 NAD337      0.0000 
     34 O2D        14.2790   31.2840   29.1190 O.3       1 NAD337      0.0000 
     35 C1D        14.6680   33.6870   29.3440 C.3       1 NAD337      0.0000 
     36 N1N        14.8700   33.9590   30.7620 N.pl3     1 NAD337      0.0000 
     37 C2N        13.8420   33.9540   31.6400 C.ar      1 NAD337      0.0000 
     38 C3N        14.0860   34.2320   32.9920 C.ar      1 NAD337      0.0000 
     39 C7N        12.9580   34.2480   33.9920 C.2       1 NAD337      0.0000 
     40 O7N        13.2030   33.9770   35.2790 O.2       1 NAD337      0.0000 
     41 N7N        11.7320   34.5630   33.5890 N.am      1 NAD337      0.0000 
     42 C4N        15.3860   34.5130   33.4250 C.ar      1 NAD337      0.0000 
     43 C5N        16.4210   34.5120   32.4970 C.ar      1 NAD337      0.0000 
     44 C6N        16.1280   34.2340   31.1610 C.ar      1 NAD337      0.0000 
     45 H           7.1409   34.9366   25.9340 H         1 NAD337      0.0000 
     46 H           8.7652   35.6440   25.8983 H         1 NAD337      0.0000 
     47 H           7.5568   37.8920   25.7181 H         1 NAD337      0.0000 
     48 H           5.3478   36.3183   26.0760 H         1 NAD337      0.0000 
     49 H           5.2750   35.4085   23.9958 H         1 NAD337      0.0000 
     50 H           6.2890   37.9744   22.8828 H         1 NAD337      0.0000 
     51 H           6.2672   34.1711   22.3486 H         1 NAD337      0.0000 
     52 H           7.8062   35.4043   16.5843 H         1 NAD337      0.0000 
     53 H           7.3632   34.1440   17.7847 H         1 NAD337      0.0000 
     54 H           7.7863   39.2952   18.8249 H         1 NAD337      0.0000 
     55 H          11.9260   36.1309   27.9183 H         1 NAD337      0.0000 
     56 H          11.2010   34.7446   27.0860 H         1 NAD337      0.0000 
     57 H          13.5880   34.8208   26.6994 H         1 NAD337      0.0000 
     58 H          12.2776   32.6161   27.4443 H         1 NAD337      0.0000 
     59 H          12.8408   32.7078   29.6954 H         1 NAD337      0.0000 
     60 H          15.6093   33.4215   28.8669 H         1 NAD337      0.0000 
     61 H          12.8780   33.7500   31.3399 H         1 NAD337      0.0000 
     62 H          11.0289   34.5913   34.2995 H         1 NAD337      0.0000 
     63 H          11.6229   34.7434   32.6115 H         1 NAD337      0.0000 
     64 H          15.5679   34.7152   34.4082 H         1 NAD337      0.0000 
     65 H          17.3787   34.7107   32.7848 H         1 NAD337      0.0000 
     66 H          16.9130   34.2443   30.4730 H         1 NAD337      0.0000 
     67 H           5.5610   38.8206   24.7114 H         1 NAD337      0.0000 
     68 H           4.2589   37.9794   23.2716 H         1 NAD337      0.0000 
     69 H          14.7208   31.8315   27.0756 H         1 NAD337      0.0000 
     70 H          15.0204   31.3839   29.7826 H         1 NAD337      0.0000 
@<TRIPOS>BOND
     1    2    1 ar   
     2    3    1 ar   
     3    4    1 1    
     4   23    1 1    
     5    5    4 1    
     6    6    5 1    
     7   45    5 1    
     8   46    5 1    
     9    7    6 1    
    10    8    6 1    
    11   47    6 1    
    12   12    7 1    
    13    9    8 1    
    14   10    8 1    
    15   48    8 1    
    16   67    9 1    
    17   11   10 1    
    18   12   10 1    
    19   49   10 1    
    20   68   11 1    
    21   13   12 1    
    22   50   12 1    
    23   14   13 1    
    24   22   13 1    
    25   15   14 2    
    26   51   14 1    
    27   16   15 1    
    28   17   16 ar   
    29   22   16 ar   
    30   18   17 1    
    31   19   17 ar   
    32   52   18 1    
    33   53   18 1    
    34   20   19 ar   
    35   21   20 ar   
    36   54   20 1    
    37   22   21 ar   
    38   24   23 1    
    39   25   24 ar   
    40   26   24 ar   
    41   27   24 1    
    42   28   27 1    
    43   29   28 1    
    44   55   28 1    
    45   56   28 1    
    46   30   29 1    
    47   31   29 1    
    48   57   29 1    
    49   35   30 1    
    50   32   31 1    
    51   33   31 1    
    52   58   31 1    
    53   69   32 1    
    54   34   33 1    
    55   35   33 1    
    56   59   33 1    
    57   70   34 1    
    58   36   35 1    
    59   60   35 1    
    60   37   36 ar   
    61   44   36 ar   
    62   38   37 ar   
    63   61   37 1    
    64   39   38 1    
    65   42   38 ar   
    66   40   39 2    
    67   41   39 am   
    68   62   41 1    
    69   63   41 1    
    70   43   42 ar   
    71   64   42 1    
    72   44   43 ar   
    73   65   43 1    
    74   66   44 1    
@<TRIPOS>SUBSTRUCTURE
     1 NAD337      1 GROUP   
@<TRIPOS>SET

