#    Name: 1dtl_BEP_2_INTS_M
#    Modification time : Mon Mar 24 22:26:36 2014

@<TRIPOS>MOLECULE
1dtl_BEP_2_INTS_M
   58     0     3     0     0
SMALL
NO_CHARGES


@<TRIPOS>ATOM
      1 CA          4.3245    2.3060   11.4435 C.3       1 GLC5        0.0000 
      2 CA          5.4780    3.6450   11.4300 C.3       3 GLL5        0.0000 
      3 CA          3.1710    0.9670   11.4570 C.3       2 GLP5        0.0000 
      4 CA          5.9070    6.9805   14.3450 C.3       1 GLC5        0.0000 
      5 CA          5.7040    5.8220   12.7390 C.3       3 GLL5        0.0000 
      6 CA          6.1100    8.1390   15.9510 C.3       2 GLP5        0.0000 
      7 CA          4.0230    2.2145   10.3840 C.3       1 GLC5        0.0000 
      8 CA          4.8750    3.4620    9.3110 C.3       3 GLL5        0.0000 
      9 CA          6.2580    6.0980    6.5545 C.3       1 GLC5        0.0000 
     10 CA          6.1930    4.5160    7.4360 C.3       3 GLL5        0.0000 
     11 CA          6.3230    7.6800    5.6730 C.3       2 GLP5        0.0000 
     12 CA          7.7545    5.4470    8.2910 C.3       1 GLC5        0.0000 
     13 CA          9.3160    6.3780    9.1460 C.3       2 GLP5        0.0000 
     14 CA          4.7010    0.4015    7.6765 C.3       1 GLC5        0.0000 
     15 CA          5.7330    2.0420    7.4540 C.3       3 GLL5        0.0000 
     16 CA          3.6690   -1.2390    7.8990 C.3       2 GLP5        0.0000 
     17 CA          6.9210    0.9630    6.8200 C.3       1 GLC5        0.0000 
     18 CA          8.1090   -0.1160    6.1860 C.3       2 GLP5        0.0000 
     19 CA         10.2910    5.5235   14.7050 C.3       1 GLC5        0.0000 
     20 CA          9.7900    4.2600   13.2980 C.3       3 GLL5        0.0000 
     21 CA         10.7920    6.7870   16.1120 C.3       2 GLP5        0.0000 
     22 CA          8.9060    5.9670   14.7390 C.3       1 GLC5        0.0000 
     23 CA          8.3610    4.7520   13.4870 C.3       3 GLL5        0.0000 
     24 CA          9.4510    7.1820   15.9910 C.3       2 GLP5        0.0000 
     25 CA          3.5965    7.1520   13.7285 C.3       1 GLC5        0.0000 
     26 CA          3.5490    6.2760   11.8990 C.3       3 GLL5        0.0000 
     27 CA          3.6440    8.0280   15.5580 C.3       2 GLP5        0.0000 
     28 CA          2.4220    3.0155   11.1605 C.3       1 GLC5        0.0000 
     29 CA          1.6730    5.0640   10.8640 C.3       3 GLL5        0.0000 
     30 CA         -0.3795    5.0785    7.0210 C.3       1 GLC5        0.0000 
     31 CA          1.3220    5.0870    8.4700 C.3       3 GLL5        0.0000 
     32 CA         -2.0810    5.0700    5.5720 C.3       2 GLP5        0.0000 
     33 CA          7.5700   11.1080   13.6995 C.3       1 GLC5        0.0000 
     34 CA          6.8170    9.5470   12.2800 C.3       3 GLL5        0.0000 
     35 CA          8.3230   12.6690   15.1190 C.3       2 GLP5        0.0000 
     36 CA          6.2370   12.4150   10.9820 C.3       1 GLC5        0.0000 
     37 CA          5.9300   10.5120   11.8190 C.3       3 GLL5        0.0000 
     38 CA          6.5440   14.3180   10.1450 C.3       2 GLP5        0.0000 
     39 CA          2.6860    8.9075   12.4775 C.3       1 GLC5        0.0000 
     40 CA          4.3900    8.7560   11.2350 C.3       3 GLL5        0.0000 
     41 CA          0.9820    9.0590   13.7200 C.3       2 GLP5        0.0000 
     42 CA          7.5507    6.0445   11.7033 C.3       1 GLC5        0.0000 
     43 CA          9.1470    6.9760   10.7750 C.3       2 GLP5        0.0000 
     44 CA          9.1540    1.5685   11.3268 C.3       1 GLC5        0.0000 
     45 CA          8.1640    3.1010   12.0430 C.3       3 GLL5        0.0000 
     46 CA          9.3880   -0.0670   10.5760 C.3       2 GLP5        0.0000 
     47 CA          0.0643    4.1510   11.6867 C.3       1 GLC5        0.0000 
     48 CA         -1.1800    3.4290   13.0690 C.3       2 GLP5        0.0000 
     49 CA          0.8357    6.4595   11.3392 C.3       1 GLC5        0.0000 
     50 CA          0.3630    8.0460   12.3740 C.3       2 GLP5        0.0000 
     51 CA          1.7671    7.1125   11.3736 C.3       1 GLC5        0.0000 
     52 CA          4.2382    8.1505   13.5080 C.3       1 GLC5        0.0000 
     53 CA          6.3827    8.5050   14.0983 C.3       1 GLC5        0.0000 
     54 CA          6.4940    8.1950   12.2110 C.3       3 GLL5        0.0000 
     55 CA          7.7489    7.8729   11.4440 C.3       1 GLC5        0.0000 
     56 CA          4.1513   10.8830   12.6189 C.3       1 GLC5        0.0000 
     57 CA          3.4460   12.2330   13.8470 C.3       2 GLP5        0.0000 
     58 CA          9.0724    5.4155   11.7550 C.3       1 GLC5        0.0000 
@<TRIPOS>BOND
@<TRIPOS>SUBSTRUCTURE
     1 GLC5        1 GROUP        1 X    GLC  0     ROOT GLC X 6
     2 GLP5        3 GROUP        1 Y    GLP  0     ROOT GLP Y 13
     3 GLL5        2 GROUP        1 Z    GLL  0     ROOT GLL Z 20
@<TRIPOS>SET

