#    Name: 1dtl_BEP_2_ligand
#    Modification time : Mon Mar 24 22:26:36 2014

@<TRIPOS>MOLECULE
1dtl_BEP_2_ligand
   62    64     1     0     0
SMALL
NO_CHARGES


@<TRIPOS>ATOM
      1 C1          5.4780    3.6450   11.4300 C.3       1 BEP205      0.0000 
      2 C2          6.2050    4.4040   12.5240 C.3       1 BEP205      0.0000 
      3 C3          5.7040    5.8220   12.7390 C.3       1 BEP205      0.0000 
      4 O1          5.9720    3.8620   10.1200 O.3       1 BEP205      0.0000 
      5 N2          7.6450    4.4330   12.2700 N.4       1 BEP205      0.0000 
      6 N3          4.9790    6.4220   11.6310 N.pl3     1 BEP205      0.0000 
      7 C4          4.8750    3.4620    9.3110 C.3       1 BEP205      0.0000 
      8 C5          5.1970    3.4250    7.8260 C.3       1 BEP205      0.0000 
      9 C6          6.1930    4.5160    7.4360 C.3       1 BEP205      0.0000 
     10 C7          5.7330    2.0420    7.4540 C.3       1 BEP205      0.0000 
     11 C8          8.1640    3.1010   12.0430 C.3       1 BEP205      0.0000 
     12 C9          9.6760    3.3070   12.1120 C.3       1 BEP205      0.0000 
     13 C10         9.7900    4.2600   13.2980 C.3       1 BEP205      0.0000 
     14 C11         8.3610    4.7520   13.4870 C.3       1 BEP205      0.0000 
     15 C12         3.5490    6.2760   11.8990 C.3       1 BEP205      0.0000 
     16 C13         2.7980    5.8780   10.7160 C.ar      1 BEP205      0.0000 
     17 C14         1.6730    5.0640   10.8640 C.ar      1 BEP205      0.0000 
     18 C15         0.9440    4.6820    9.7450 C.ar      1 BEP205      0.0000 
     19 C16         1.3220    5.0870    8.4700 C.ar      1 BEP205      0.0000 
     20 C17         2.4400    5.9020    8.3180 C.ar      1 BEP205      0.0000 
     21 C18         3.1690    6.2810    9.4390 C.ar      1 BEP205      0.0000 
     22 C19         5.2750    7.7900   11.6810 C.ar      1 BEP205      0.0000 
     23 C20         6.4940    8.1950   12.2110 C.ar      1 BEP205      0.0000 
     24 C21         6.8170    9.5470   12.2800 C.ar      1 BEP205      0.0000 
     25 C22         5.9300   10.5120   11.8190 C.ar      1 BEP205      0.0000 
     26 C23         4.7160   10.1080   11.2740 C.ar      1 BEP205      0.0000 
     27 C24         4.3900    8.7560   11.2350 C.ar      1 BEP205      0.0000 
     28 H           4.3926    3.9160   11.5033 H         1 BEP205      0.0000 
     29 H           5.5133    2.5577   11.7009 H         1 BEP205      0.0000 
     30 H           6.0405    3.8547   13.4755 H         1 BEP205      0.0000 
     31 H           6.5878    6.4566   13.0118 H         1 BEP205      0.0000 
     32 H           5.0672    5.8206   13.6625 H         1 BEP205      0.0000 
     33 H           7.9209    5.0770   11.5008 H         1 BEP205      0.0000 
     34 H           4.0029    4.1418    9.4458 H         1 BEP205      0.0000 
     35 H           4.5079    2.4500    9.5974 H         1 BEP205      0.0000 
     36 H           4.2746    3.5854    7.2710 H         1 BEP205      0.0000 
     37 H           7.9139    2.7362   11.0722 H         1 BEP205      0.0000 
     38 H           7.8768    2.4245   12.8162 H         1 BEP205      0.0000 
     39 H          10.0130    3.7807   11.2369 H         1 BEP205      0.0000 
     40 H          10.1514    2.3971   12.3354 H         1 BEP205      0.0000 
     41 H          10.4211    5.0721   13.0468 H         1 BEP205      0.0000 
     42 H          10.1052    3.7279   14.1573 H         1 BEP205      0.0000 
     43 H           7.9347    4.2457   14.3430 H         1 BEP205      0.0000 
     44 H           8.3867    5.8191   13.6647 H         1 BEP205      0.0000 
     45 H           3.1464    7.2334   12.2935 H         1 BEP205      0.0000 
     46 H           3.3980    5.5289   12.7073 H         1 BEP205      0.0000 
     47 H           1.3881    4.7504   11.7990 H         1 BEP205      0.0000 
     48 H           0.1049    4.0856    9.8620 H         1 BEP205      0.0000 
     49 H           0.7847    4.7896    7.6517 H         1 BEP205      0.0000 
     50 H           2.7230    6.2199    7.3857 H         1 BEP205      0.0000 
     51 H           4.0101    6.8790    9.3193 H         1 BEP205      0.0000 
     52 H           7.1635    7.4908   12.5553 H         1 BEP205      0.0000 
     53 H           7.7256    9.8349   12.6781 H         1 BEP205      0.0000 
     54 H           6.1657   11.5044   11.8793 H         1 BEP205      0.0000 
     55 H           4.0613   10.8060   10.9010 H         1 BEP205      0.0000 
     56 H           3.4638    8.4694   10.8634 H         1 BEP205      0.0000 
     57 H           7.0594    4.4204    7.9262 H         1 BEP205      0.0000 
     58 H           6.4050    4.4933    6.4590 H         1 BEP205      0.0000 
     59 H           5.8410    5.4298    7.6384 H         1 BEP205      0.0000 
     60 H           5.9586    1.9803    6.4817 H         1 BEP205      0.0000 
     61 H           6.5640    1.8166    7.9626 H         1 BEP205      0.0000 
     62 H           5.0669    1.3214    7.6466 H         1 BEP205      0.0000 
@<TRIPOS>BOND
     1    2    1 1    
     2    4    1 1    
     3   28    1 1    
     4   29    1 1    
     5    3    2 1    
     6    5    2 1    
     7   30    2 1    
     8    6    3 1    
     9   31    3 1    
    10   32    3 1    
    11    7    4 1    
    12   11    5 1    
    13   14    5 1    
    14   33    5 1    
    15   15    6 1    
    16   22    6 1    
    17    8    7 1    
    18   34    7 1    
    19   35    7 1    
    20    9    8 1    
    21   10    8 1    
    22   36    8 1    
    23   57    9 1    
    24   58    9 1    
    25   59    9 1    
    26   60   10 1    
    27   61   10 1    
    28   62   10 1    
    29   12   11 1    
    30   37   11 1    
    31   38   11 1    
    32   13   12 1    
    33   39   12 1    
    34   40   12 1    
    35   14   13 1    
    36   41   13 1    
    37   42   13 1    
    38   43   14 1    
    39   44   14 1    
    40   16   15 1    
    41   45   15 1    
    42   46   15 1    
    43   17   16 ar   
    44   21   16 ar   
    45   18   17 ar   
    46   47   17 1    
    47   19   18 ar   
    48   48   18 1    
    49   20   19 ar   
    50   49   19 1    
    51   21   20 ar   
    52   50   20 1    
    53   51   21 1    
    54   23   22 ar   
    55   27   22 ar   
    56   24   23 ar   
    57   52   23 1    
    58   25   24 ar   
    59   53   24 1    
    60   26   25 ar   
    61   54   25 1    
    62   27   26 ar   
    63   55   26 1    
    64   56   27 1    
@<TRIPOS>SUBSTRUCTURE
     1 BEP205      1 GROUP   
@<TRIPOS>SET

