#    Name: 2y67_N21_1_INTS_M
#    Modification time : Tue Mar 25 07:42:43 2014

@<TRIPOS>MOLECULE
2y67_N21_1_INTS_M
   45     0    12     0     0
SMALL
NO_CHARGES


@<TRIPOS>ATOM
      1 N          36.8415    1.0095   22.7600 N.am      2 SEC2        0.0000 
      2 N          37.1420    0.9450   21.4090 N.am     10 SEL2        0.0000 
      3 N          36.5410    1.0740   24.1110 N.am      6 SEP2        0.0000 
      4 N          36.8545   -0.1520   22.0020 N.am      2 SEC2        0.0000 
      5 N          36.5670   -1.2490   22.5950 N.am      6 SEP2        0.0000 
      6 N          36.9270   -0.6620   19.5340 N.am      2 SEC2        0.0000 
      7 N          38.0470    0.2840   19.5260 N.am     10 SEL2        0.0000 
      8 N          35.8070   -1.6080   19.5420 N.am      6 SEP2        0.0000 
      9 CA         36.9175    3.3205   20.2825 C.3       4 GLC5        0.0000 
     10 CA         38.8340    2.3340   20.5600 C.3      12 GLL5        0.0000 
     11 CA         35.0010    4.3070   20.0050 C.3       8 GLP5        0.0000 
     12 CA         38.7215    2.9195   22.3095 C.3       4 GLC5        0.0000 
     13 CA         38.6090    3.5050   24.0590 C.3       8 GLP5        0.0000 
     14 CA         39.8285    1.0685   21.8285 C.3       4 GLC5        0.0000 
     15 CA         40.8230   -0.1970   23.0970 C.3       8 GLP5        0.0000 
     16 NZ         39.3665    6.4135   21.8455 N.4       3 LYC4        0.0000 
     17 NZ         40.0290    5.2120   21.3060 N.4      11 LYL4        0.0000 
     18 NZ         38.7040    7.6150   22.3850 N.4       7 LYP4        0.0000 
     19 N          39.3665    6.4135   21.8455 N.am      2 SEC2        0.0000 
     20 N          40.0290    5.2120   21.3060 N.am     10 SEL2        0.0000 
     21 N          38.7040    7.6150   22.3850 N.am      6 SEP2        0.0000 
     22 NZ         39.2320    6.6490   20.7780 N.4       3 LYC4        0.0000 
     23 NZ         39.7600    5.6830   19.1710 N.4      11 LYL4        0.0000 
     24 CA         47.0415    2.4880   15.1480 C.3       4 GLC5        0.0000 
     25 CA         45.4330    1.8360   16.1920 C.3      12 GLL5        0.0000 
     26 CA         48.6500    3.1400   14.1040 C.3       8 GLP5        0.0000 
     27 CA         50.3240   -0.8050   16.6135 C.3       4 GLC5        0.0000 
     28 CA         48.5670   -1.8280   17.2730 C.3      12 GLL5        0.0000 
     29 CA         52.0810    0.2180   15.9540 C.3       8 GLP5        0.0000 
     30 CA         52.5910   -2.4185   18.7010 C.3       4 GLC5        0.0000 
     31 CA         51.8440   -1.5040   20.0840 C.3      12 GLL5        0.0000 
     32 CA         53.3380   -3.3330   17.3180 C.3       8 GLP5        0.0000 
     33 CA         51.9625   -0.6430   18.0190 C.3       4 GLC5        0.0000 
     34 O          52.8405   -1.9505   23.7605 O.2       1 ALC1        0.0000 
     35 O          52.5130   -1.8600   22.6490 O.2       9 ALL1        0.0000 
     36 O          53.1680   -2.0410   24.8720 O.2       5 ALP1        0.0000 
     37 N          54.5920   -2.9140   22.2465 N.am      2 SEC2        0.0000 
     38 N          54.4190   -1.8160   21.1720 N.am     10 SEL2        0.0000 
     39 N          54.7650   -4.0120   23.3210 N.am      6 SEP2        0.0000 
     40 CA         48.6389    0.8856   19.1811 C.3       4 GLC5        0.0000 
     41 CA         47.4430   -0.5220   19.4760 C.3      12 GLL5        0.0000 
     42 CA         49.4100    2.6550   19.1180 C.3       8 GLP5        0.0000 
     43 CA         49.3738   -3.2707   22.2278 C.3       4 GLC5        0.0000 
     44 CA         49.0990   -1.4580   21.0580 C.3      12 GLL5        0.0000 
     45 CA         48.9000   -5.0200   23.2630 C.3       8 GLP5        0.0000 
@<TRIPOS>BOND
@<TRIPOS>SUBSTRUCTURE
     1 ALC1       34 GROUP        1 X    ALC  0     ROOT ALC X 1
     2 SEC2        1 GROUP        1 X    SEC  0     **** SEC X 2
     3 LYC4       16 GROUP        1 X    LYC  0     **** LYC X 4
     4 GLC5        9 GROUP        1 X    GLC  0     **** GLC X 6
     5 ALP1       36 GROUP        1 Y    ALP  0     ROOT ALP Y 8
     6 SEP2        3 GROUP        1 Y    SEP  0     **** SEP Y 9
     7 LYP4       18 GROUP        1 Y    LYP  0     **** LYP Y 11
     8 GLP5       11 GROUP        1 Y    GLP  0     **** GLP Y 13
     9 ALL1       35 GROUP        1 Z    ALL  0     ROOT ALL Z 15
    10 SEL2        2 GROUP        1 Z    SEL  0     **** SEL Z 16
    11 LYL4       17 GROUP        1 Z    LYL  0     **** LYL Z 18
    12 GLL5       10 GROUP        1 Z    GLL  0     **** GLL Z 20
@<TRIPOS>SET

