#    Name: 2y67_N21_1_ligand
#    Modification time : Tue Mar 25 07:42:43 2014

@<TRIPOS>MOLECULE
2y67_N21_1_ligand
   53    55     1     0     0
SMALL
NO_CHARGES


@<TRIPOS>ATOM
      1 OE1        37.1420    0.9450   21.4090 O.co2     1 N21500      0.0000 
      2 CD         37.9550    1.1000   20.4760 C.2       1 N21500      0.0000 
      3 OE2        38.0470    0.2840   19.5260 O.co2     1 N21500      0.0000 
      4 CG         38.8340    2.3340   20.5600 C.3       1 N21500      0.0000 
      5 CB         39.7190    2.5610   19.3500 C.3       1 N21500      0.0000 
      6 C          40.1490    4.9190   20.0860 C.2       1 N21500      0.0000 
      7 OXT        40.0290    5.2120   21.3060 O.co2     1 N21500      0.0000 
      8 O          39.7600    5.6830   19.1710 O.co2     1 N21500      0.0000 
      9 N          41.5760    3.7210   18.4560 N.pl3     1 N21500      0.0000 
     10 OBC        43.3870    5.1810   17.8080 O.2       1 N21500      0.0000 
     11 CAT        44.8720    2.9270   16.8670 C.ar      1 N21500      0.0000 
     12 CAQ        45.4330    1.8360   16.1920 C.ar      1 N21500      0.0000 
     13 CAS        43.7810    2.7350   17.7290 C.ar      1 N21500      0.0000 
     14 CAR        43.2550    1.4460   17.9010 C.ar      1 N21500      0.0000 
     15 CAP        43.8130    0.3600   17.2260 C.ar      1 N21500      0.0000 
     16 CAO        44.9070    0.5460   16.3710 C.ar      1 N21500      0.0000 
     17 CAN        45.4890   -0.6640   15.6490 C.3       1 N21500      0.0000 
     18 CAA        47.4500   -1.0090   17.0990 C.ar      1 N21500      0.0000 
     19 CAB        46.8980   -0.3590   18.2050 C.ar      1 N21500      0.0000 
     20 CAG        47.4430   -0.5220   19.4760 C.ar      1 N21500      0.0000 
     21 CAC        48.5670   -1.8280   17.2730 C.ar      1 N21500      0.0000 
     22 CAE        49.1170   -1.9890   18.5470 C.ar      1 N21500      0.0000 
     23 CAF        48.5650   -1.3270   19.6480 C.ar      1 N21500      0.0000 
     24 CAH        49.0990   -1.4580   21.0580 C.2       1 N21500      0.0000 
     25 SBG        51.8440   -1.5040   20.0840 S.3       1 N21500      0.0000 
     26 CAL        52.9710   -1.7360   21.3970 C.2       1 N21500      0.0000 
     27 NAX        52.5130   -1.8600   22.6490 N.am      1 N21500      0.0000 
     28 CA         40.7880    3.6030   19.6800 C.3       1 N21500      0.0000 
     29 CAK        51.1750   -1.7710   22.5640 C.2       1 N21500      0.0000 
     30 CAI        50.5960   -1.5850   21.3270 C.2       1 N21500      0.0000 
     31 OBE        50.3140   -1.8630   23.7650 O.2       1 N21500      0.0000 
     32 SAU        43.0880    3.9660   18.5040 S.o2      1 N21500      0.0000 
     33 OBD        43.5250    4.0320   19.8680 O.2       1 N21500      0.0000 
     34 OBH        54.4190   -1.8160   21.1720 O.2       1 N21500      0.0000 
     35 OAY        46.9000   -0.8320   15.8470 O.3       1 N21500      0.0000 
     36 H          39.4713    2.2597   21.4626 H         1 N21500      0.0000 
     37 H          38.1906    3.2233   20.7068 H         1 N21500      0.0000 
     38 H          39.1180    2.9180   18.5197 H         1 N21500      0.0000 
     39 H          40.2029    1.6302   19.0716 H         1 N21500      0.0000 
     40 H          41.1478    3.6447   17.5522 H         1 N21500      0.0000 
     41 H          45.2572    3.8672   16.7326 H         1 N21500      0.0000 
     42 H          46.2318    1.9775   15.5635 H         1 N21500      0.0000 
     43 H          42.4533    1.3042   18.5291 H         1 N21500      0.0000 
     44 H          43.4216   -0.5816   17.3549 H         1 N21500      0.0000 
     45 H          45.2470   -0.5570   14.5683 H         1 N21500      0.0000 
     46 H          44.9275   -1.5609   15.9931 H         1 N21500      0.0000 
     47 H          46.0738    0.2509   18.0765 H         1 N21500      0.0000 
     48 H          47.0187   -0.0503   20.2823 H         1 N21500      0.0000 
     49 H          48.9823   -2.3095   16.4695 H         1 N21500      0.0000 
     50 H          49.9356   -2.6000   18.6770 H         1 N21500      0.0000 
     51 H          48.4680   -1.4620   21.8262 H         1 N21500      0.0000 
     52 H          53.0286   -1.9859   23.4412 H         1 N21500      0.0000 
     53 H          41.3869    3.2186   20.4757 H         1 N21500      0.0000 
@<TRIPOS>BOND
     1    2    1 ar   
     2    3    2 ar   
     3    4    2 1    
     4    5    4 1    
     5   36    4 1    
     6   37    4 1    
     7   28    5 1    
     8   38    5 1    
     9   39    5 1    
    10    7    6 ar   
    11    8    6 ar   
    12   28    6 1    
    13   28    9 1    
    14   32    9 1    
    15   40    9 1    
    16   32   10 2    
    17   12   11 ar   
    18   13   11 ar   
    19   41   11 1    
    20   16   12 ar   
    21   42   12 1    
    22   14   13 ar   
    23   32   13 1    
    24   15   14 ar   
    25   43   14 1    
    26   16   15 ar   
    27   44   15 1    
    28   17   16 1    
    29   35   17 1    
    30   45   17 1    
    31   46   17 1    
    32   19   18 ar   
    33   21   18 ar   
    34   35   18 1    
    35   20   19 ar   
    36   47   19 1    
    37   23   20 ar   
    38   48   20 1    
    39   22   21 ar   
    40   49   21 1    
    41   23   22 ar   
    42   50   22 1    
    43   24   23 1    
    44   30   24 2    
    45   51   24 1    
    46   26   25 1    
    47   30   25 1    
    48   27   26 am   
    49   34   26 2    
    50   29   27 am   
    51   52   27 1    
    52   53   28 1    
    53   30   29 1    
    54   31   29 2    
    55   33   32 2    
@<TRIPOS>SUBSTRUCTURE
     1 N21500      1 GROUP   
@<TRIPOS>SET

