#    Name: 3l71_AZO_1_INTS_M
#    Modification time : Mon Mar 24 21:05:03 2014

@<TRIPOS>MOLECULE
3l71_AZO_1_INTS_M
   84     0     6     0     0
SMALL
NO_CHARGES


@<TRIPOS>ATOM
      1 CA          5.9435  127.2795   85.5740 C.3       2 GLC5        0.0000 
      2 CA          7.7020  127.2240   85.8530 C.3       6 GLL5        0.0000 
      3 CA          4.1850  127.3350   85.2950 C.3       4 GLP5        0.0000 
      4 CA          6.5290  123.4880   86.2065 C.3       2 GLC5        0.0000 
      5 CA          7.5440  124.9500   84.8960 C.3       6 GLL5        0.0000 
      6 CA          5.5140  122.0260   87.5170 C.3       4 GLP5        0.0000 
      7 CA          7.2520  131.6115   79.5260 C.3       2 GLC5        0.0000 
      8 CA          7.7520  131.2590   81.5380 C.3       6 GLL5        0.0000 
      9 CA          6.7520  131.9640   77.5140 C.3       4 GLP5        0.0000 
     10 CA          5.8675  130.6960   82.3930 C.3       2 GLC5        0.0000 
     11 CA          6.3390  129.4980   80.7400 C.3       6 GLL5        0.0000 
     12 CA          5.3960  131.8940   84.0460 C.3       4 GLP5        0.0000 
     13 CA          5.8900  130.4120   79.0050 C.3       2 GLC5        0.0000 
     14 CA          5.4410  131.3260   77.2700 C.3       4 GLP5        0.0000 
     15 CA          7.2680  129.1210   79.2780 C.3       2 GLC5        0.0000 
     16 CA          8.1970  128.7440   77.8160 C.3       4 GLP5        0.0000 
     17 CA          4.4575  129.3860   79.7135 C.3       2 GLC5        0.0000 
     18 CA          2.5760  129.2740   78.6870 C.3       4 GLP5        0.0000 
     19 CA          5.0740  133.6870   78.6735 C.3       2 GLC5        0.0000 
     20 CA          5.6540  134.8830   79.9810 C.3       6 GLL5        0.0000 
     21 CA          4.4940  132.4910   77.3660 C.3       4 GLP5        0.0000 
     22 N           9.1510  132.6670   76.6535 N.am      1 SEC2        0.0000 
     23 N           9.8160  132.8650   78.0260 N.am      5 SEL2        0.0000 
     24 N           8.4860  132.4690   75.2810 N.am      3 SEP2        0.0000 
     25 CA         13.3395  133.9900   78.5010 C.3       2 GLC5        0.0000 
     26 CA         12.5590  132.3460   77.8630 C.3       6 GLL5        0.0000 
     27 CA         14.1200  135.6340   79.1390 C.3       4 GLP5        0.0000 
     28 CA         11.9760  132.8195   76.1995 C.3       2 GLC5        0.0000 
     29 CA         11.3930  133.2930   74.5360 C.3       4 GLP5        0.0000 
     30 CA         12.7745  130.7755   77.0555 C.3       2 GLC5        0.0000 
     31 CA         12.9900  129.2050   76.2480 C.3       4 GLP5        0.0000 
     32 CA         11.8620  130.9650   78.9240 C.3       2 GLC5        0.0000 
     33 CA         11.1650  129.5840   79.9850 C.3       4 GLP5        0.0000 
     34 CA         10.8060  134.7205   83.3505 C.3       2 GLC5        0.0000 
     35 CA         11.2200  136.0990   82.6480 C.3       6 GLL5        0.0000 
     36 CA         10.3920  133.3420   84.0530 C.3       4 GLP5        0.0000 
     37 CA         11.5885  136.4580   80.6140 C.3       2 GLC5        0.0000 
     38 CA         11.9570  136.8170   78.5800 C.3       4 GLP5        0.0000 
     39 CA         12.5300  136.9275   83.1990 C.3       2 GLC5        0.0000 
     40 CA         13.8400  137.7560   83.7500 C.3       4 GLP5        0.0000 
     41 CA          9.2000  136.7955   82.4040 C.3       2 GLC5        0.0000 
     42 CA          7.1800  137.4920   82.1600 C.3       4 GLP5        0.0000 
     43 CA         10.2375  136.8940   83.9855 C.3       2 GLC5        0.0000 
     44 CA          9.2550  137.6890   85.3230 C.3       4 GLP5        0.0000 
     45 CA          5.9900  125.7392   84.9125 C.3       2 GLC5        0.0000 
     46 CA          7.8380  126.3310   84.7420 C.3       6 GLL5        0.0000 
     47 CA          4.2890  125.8380   85.0060 C.3       4 GLP5        0.0000 
     48 CA          6.1045  124.9402   83.3050 C.3       2 GLC5        0.0000 
     49 CA          8.1220  124.5530   82.4730 C.3       6 GLL5        0.0000 
     50 CA          4.3040  125.5670   83.4940 C.3       4 GLP5        0.0000 
     51 CA          8.2590  122.6718   82.6570 C.3       2 GLC5        0.0000 
     52 CA          7.6880  124.0740   83.7590 C.3       6 GLL5        0.0000 
     53 CA          8.6130  121.0300   82.1980 C.3       4 GLP5        0.0000 
     54 CA          9.5682  124.5682   81.2142 C.3       2 GLC5        0.0000 
     55 CA         10.8610  123.8950   80.0520 C.3       4 GLP5        0.0000 
     56 CA          6.6835  125.0089   81.4525 C.3       2 GLC5        0.0000 
     57 CA          8.4290  125.9300   82.2800 C.3       6 GLL5        0.0000 
     58 CA          5.2000  124.8960   80.2070 C.3       4 GLP5        0.0000 
     59 CA          6.3338  125.9783   83.1647 C.3       2 GLC5        0.0000 
     60 CA          6.6819  131.1904   83.0104 C.3       2 GLC5        0.0000 
     61 CA          7.0408  135.6012   81.4645 C.3       2 GLC5        0.0000 
     62 CA          7.6130  133.5730   80.7620 C.3       6 GLL5        0.0000 
     63 CA          6.6408  133.3683   82.5375 C.3       2 GLC5        0.0000 
     64 CA          6.1900  133.8480   80.7760 C.3       6 GLL5        0.0000 
     65 CA          6.3800  133.0260   84.3060 C.3       4 GLP5        0.0000 
     66 CA          6.6305  136.3850   80.8645 C.3       2 GLC5        0.0000 
     67 CA          4.5245  136.4690   79.9660 C.3       2 GLC5        0.0000 
     68 CA          6.5080  135.6730   79.1570 C.3       6 GLL5        0.0000 
     69 CA          2.9680  137.6600   80.3630 C.3       4 GLP5        0.0000 
     70 CA          4.7030  135.1615   78.0620 C.3       2 GLC5        0.0000 
     71 CA          3.3250  135.0450   76.5550 C.3       4 GLP5        0.0000 
     72 CA          7.2668  137.2185   78.0295 C.3       2 GLC5        0.0000 
     73 CA          7.3190  138.8800   76.9270 C.3       4 GLP5        0.0000 
     74 CA          6.9463  134.3850   77.8925 C.3       2 GLC5        0.0000 
     75 CA          6.6780  133.2130   76.6530 C.3       4 GLP5        0.0000 
     76 CA          7.6972  136.2072   80.8293 C.3       2 GLC5        0.0000 
     77 CA          7.9210  135.4410   79.1070 C.3       6 GLL5        0.0000 
     78 CA          7.2284  133.0106   78.9218 C.3       2 GLC5        0.0000 
     79 CA          8.5080  134.4040   79.8900 C.3       6 GLL5        0.0000 
     80 CA         10.8833  133.5065   81.8545 C.3       2 GLC5        0.0000 
     81 CA          9.9970  134.1540   79.8370 C.3       6 GLL5        0.0000 
     82 CA         11.3100  132.5500   83.3650 C.3       4 GLP5        0.0000 
     83 CA         11.2067  135.6400   79.4620 C.3       2 GLC5        0.0000 
     84 CA         10.9160  134.7720   80.8510 C.3       6 GLL5        0.0000 
@<TRIPOS>BOND
@<TRIPOS>SUBSTRUCTURE
     1 SEC2       22 GROUP        1 X    SEC  0     ROOT SEC X 2
     2 GLC5        1 GROUP        1 X    GLC  0     **** GLC X 6
     3 SEP2       24 GROUP        1 Y    SEP  0     ROOT SEP Y 9
     4 GLP5        3 GROUP        1 Y    GLP  0     **** GLP Y 13
     5 SEL2       23 GROUP        1 Z    SEL  0     ROOT SEL Z 16
     6 GLL5        2 GROUP        1 Z    GLL  0     **** GLL Z 20
@<TRIPOS>SET

