#    Name: 3l71_AZO_1_ligand
#    Modification time : Mon Mar 24 21:05:03 2014

@<TRIPOS>MOLECULE
3l71_AZO_1_ligand
   47    49     1     0     0
SMALL
NO_CHARGES


@<TRIPOS>ATOM
      1 N1          7.5650  127.9630   86.7160 N.1       1 AZO2001     0.0000 
      2 C1          7.7020  127.2240   85.8530 C.1       1 AZO2001     0.0000 
      3 C2          7.8380  126.3310   84.7420 C.ar      1 AZO2001     0.0000 
      4 C3          7.5440  124.9500   84.8960 C.ar      1 AZO2001     0.0000 
      5 C4          7.6880  124.0740   83.7590 C.ar      1 AZO2001     0.0000 
      6 C5          8.1220  124.5530   82.4730 C.ar      1 AZO2001     0.0000 
      7 C6          8.4290  125.9300   82.2800 C.ar      1 AZO2001     0.0000 
      8 C7          8.2980  126.8490   83.3910 C.ar      1 AZO2001     0.0000 
      9 O1          8.5900  128.1910   83.2650 O.3       1 AZO2001     0.0000 
     10 C8          7.9680  129.0500   82.4110 C.ar      1 AZO2001     0.0000 
     11 C9          8.3990  130.3790   82.4120 C.ar      1 AZO2001     0.0000 
     12 C10         7.7520  131.2590   81.5380 C.ar      1 AZO2001     0.0000 
     13 N3          6.7410  130.7970   80.7270 N.ar      1 AZO2001     0.0000 
     14 C11         6.3390  129.4980   80.7400 C.ar      1 AZO2001     0.0000 
     15 N2          6.9550  128.6430   81.5790 N.ar      1 AZO2001     0.0000 
     16 O2          8.1590  132.5750   81.5370 O.3       1 AZO2001     0.0000 
     17 C12         7.6130  133.5730   80.7620 C.ar      1 AZO2001     0.0000 
     18 C13         6.1900  133.8480   80.7760 C.ar      1 AZO2001     0.0000 
     19 C14         5.6540  134.8830   79.9810 C.ar      1 AZO2001     0.0000 
     20 C15         6.5080  135.6730   79.1570 C.ar      1 AZO2001     0.0000 
     21 C16         7.9210  135.4410   79.1070 C.ar      1 AZO2001     0.0000 
     22 C17         8.5080  134.4040   79.8900 C.ar      1 AZO2001     0.0000 
     23 C18         9.9970  134.1540   79.8370 C.2       1 AZO2001     0.0000 
     24 C19        10.5290  133.3900   78.8930 C.2       1 AZO2001     0.0000 
     25 O3          9.8160  132.8650   78.0260 O.2       1 AZO2001     0.0000 
     26 O4         11.9720  133.1660   78.8740 O.3       1 AZO2001     0.0000 
     27 C20        12.5590  132.3460   77.8630 C.3       1 AZO2001     0.0000 
     28 C21        10.9160  134.7720   80.8510 C.2       1 AZO2001     0.0000 
     29 O5         10.2630  135.5560   81.7840 O.3       1 AZO2001     0.0000 
     30 C22        11.2200  136.0990   82.6480 C.3       1 AZO2001     0.0000 
     31 H           7.2390  124.5783   85.7811 H         1 AZO2001     0.0000 
     32 H           7.4734  123.0758   83.8722 H         1 AZO2001     0.0000 
     33 H           8.2081  123.8966   81.6991 H         1 AZO2001     0.0000 
     34 H           8.7356  126.2723   81.3821 H         1 AZO2001     0.0000 
     35 H           9.1416  130.6901   83.0142 H         1 AZO2001     0.0000 
     36 H           5.5797  129.1808   80.1197 H         1 AZO2001     0.0000 
     37 H           5.5871  133.2809   81.3693 H         1 AZO2001     0.0000 
     38 H           4.6505  135.0723   79.9913 H         1 AZO2001     0.0000 
     39 H           6.1053  136.4242   78.5866 H         1 AZO2001     0.0000 
     40 H           8.5057  136.0206   78.5090 H         1 AZO2001     0.0000 
     41 H          11.8664  134.6009   80.8043 H         1 AZO2001     0.0000 
     42 H          13.5510  132.2782   77.9694 H         1 AZO2001     0.0000 
     43 H          12.1976  131.4139   77.8846 H         1 AZO2001     0.0000 
     44 H          12.3864  132.7061   76.9462 H         1 AZO2001     0.0000 
     45 H          11.7378  135.3875   83.1230 H         1 AZO2001     0.0000 
     46 H          11.8824  136.6665   82.1590 H         1 AZO2001     0.0000 
     47 H          10.8020  136.6755   83.3501 H         1 AZO2001     0.0000 
@<TRIPOS>BOND
     1    2    1 3    
     2    3    2 1    
     3    4    3 ar   
     4    8    3 ar   
     5    5    4 ar   
     6   31    4 1    
     7    6    5 ar   
     8   32    5 1    
     9    7    6 ar   
    10   33    6 1    
    11    8    7 ar   
    12   34    7 1    
    13    9    8 1    
    14   10    9 1    
    15   11   10 ar   
    16   15   10 ar   
    17   12   11 ar   
    18   35   11 1    
    19   13   12 ar   
    20   16   12 1    
    21   14   13 ar   
    22   15   14 ar   
    23   36   14 1    
    24   17   16 1    
    25   18   17 ar   
    26   22   17 ar   
    27   19   18 ar   
    28   37   18 1    
    29   20   19 ar   
    30   38   19 1    
    31   21   20 ar   
    32   39   20 1    
    33   22   21 ar   
    34   40   21 1    
    35   23   22 1    
    36   24   23 1    
    37   28   23 2    
    38   25   24 2    
    39   26   24 1    
    40   27   26 1    
    41   42   27 1    
    42   43   27 1    
    43   44   27 1    
    44   29   28 1    
    45   41   28 1    
    46   30   29 1    
    47   45   30 1    
    48   46   30 1    
    49   47   30 1    
@<TRIPOS>SUBSTRUCTURE
     1 AZO2001     1 GROUP   
@<TRIPOS>SET

