#    Name: 3my0_LDN_16_INTS_M
#    Modification time : Tue Mar 25 00:15:15 2014

@<TRIPOS>MOLECULE
3my0_LDN_16_INTS_M
   53     0     3     0     0
SMALL
NO_CHARGES


@<TRIPOS>ATOM
      1 CA         -8.6505  -12.2735   21.8425 C.3       1 GLC5        0.0000 
      2 CA         -7.8820  -13.6060   23.0240 C.3       3 GLL5        0.0000 
      3 CA         -9.4190  -10.9410   20.6610 C.3       2 GLP5        0.0000 
      4 CA        -10.5740  -14.3220   24.5060 C.3       1 GLC5        0.0000 
      5 CA         -8.6380  -13.8910   24.1660 C.3       3 GLL5        0.0000 
      6 CA        -12.5100  -14.7530   24.8460 C.3       2 GLP5        0.0000 
      7 CA        -10.6885  -14.3435   25.7135 C.3       1 GLC5        0.0000 
      8 CA         -8.8670  -13.9340   26.5810 C.3       3 GLL5        0.0000 
      9 CA         -6.5475  -11.6255   22.6425 C.3       1 GLC5        0.0000 
     10 CA         -6.0910  -12.9030   24.3700 C.3       3 GLL5        0.0000 
     11 CA         -7.0040  -10.3480   20.9150 C.3       2 GLP5        0.0000 
     12 CA        -10.3550  -11.7045   26.4360 C.3       1 GLC5        0.0000 
     13 CA         -9.1960  -12.9570   27.5190 C.3       3 GLL5        0.0000 
     14 CA        -11.5140  -10.4520   25.3530 C.3       2 GLP5        0.0000 
     15 CA         -8.4735  -13.8035   28.8585 C.3       1 GLC5        0.0000 
     16 CA         -7.7510  -14.6500   30.1980 C.3       2 GLP5        0.0000 
     17 CA         -2.8117  -12.3978   27.4153 C.3       1 GLC5        0.0000 
     18 CA         -4.9110  -12.4260   26.9180 C.3       3 GLL5        0.0000 
     19 CA         -1.0690  -12.5060   28.4940 C.3       2 GLP5        0.0000 
     20 CA         -4.1293  -13.9642   26.1028 C.3       1 GLC5        0.0000 
     21 CA         -3.7040  -15.6390   25.8690 C.3       2 GLP5        0.0000 
     22 CA         -2.8420  -12.4698   24.2638 C.3       1 GLC5        0.0000 
     23 CA         -4.1980  -12.1530   25.7550 C.3       3 GLL5        0.0000 
     24 CA         -1.1920  -12.6660   23.4010 C.3       2 GLP5        0.0000 
     25 CA         -7.5840  -15.3972   24.1045 C.3       1 GLC5        0.0000 
     26 CA         -6.9080  -17.0460   24.6140 C.3       2 GLP5        0.0000 
     27 CA         -8.6975  -15.5237   22.4600 C.3       1 GLC5        0.0000 
     28 CA         -9.1350  -17.2990   21.3250 C.3       2 GLP5        0.0000 
     29 CA        -12.9775   -9.2715   31.2060 C.3       1 GLC5        0.0000 
     30 CA        -11.7740   -9.6010   33.1140 C.3       3 GLL5        0.0000 
     31 CA        -14.2240   -8.4610   29.6640 C.3       2 GLP5        0.0000 
     32 CA         -4.5713  -14.1438   25.1515 C.3       1 GLC5        0.0000 
     33 CA         -5.1050  -14.3475   26.0228 C.3       1 GLC5        0.0000 
     34 CA         -6.8010  -13.1760   25.5520 C.3       3 GLL5        0.0000 
     35 CA         -9.9192  -12.4630   31.4885 C.3       1 GLC5        0.0000 
     36 CA        -10.4740  -12.8840   29.5380 C.3       3 GLL5        0.0000 
     37 CA         -9.5240  -12.7160   33.3530 C.3       2 GLP5        0.0000 
     38 CA         -9.0328  -13.4300   29.9110 C.3       1 GLC5        0.0000 
     39 CA        -10.1550  -11.5360   29.7100 C.3       3 GLL5        0.0000 
     40 CA         -9.6325   -8.7767   35.7912 C.3       1 GLC5        0.0000 
     41 CA        -11.6160   -7.9620   34.9900 C.3       3 GLL5        0.0000 
     42 CA         -7.7190   -9.3760   35.8520 C.3       2 GLP5        0.0000 
     43 CA        -12.0482  -10.2292   29.5571 C.3       1 GLC5        0.0000 
     44 CA        -10.6700  -10.8530   30.8280 C.3       3 GLL5        0.0000 
     45 CA        -13.4950   -9.2640   28.5980 C.3       2 GLP5        0.0000 
     46 CA         -7.6935  -15.4262   25.3145 C.3       1 GLC5        0.0000 
     47 CA         -7.5705  -14.9447   27.2090 C.3       1 GLC5        0.0000 
     48 CA         -8.0910  -13.6790   25.4490 C.3       3 GLL5        0.0000 
     49 CA         -6.6620  -16.0830   28.4030 C.3       2 GLP5        0.0000 
     50 CA         -6.6770  -15.0427   24.7875 C.3       1 GLC5        0.0000 
     51 CA         -6.4215  -14.5057   27.3044 C.3       1 GLC5        0.0000 
     52 CA        -10.3734  -11.4699   32.6640 C.3       1 GLC5        0.0000 
     53 CA        -10.2840   -9.5470   31.1750 C.3       3 GLL5        0.0000 
@<TRIPOS>BOND
@<TRIPOS>SUBSTRUCTURE
     1 GLC5        1 GROUP        1 X    GLC  0     ROOT GLC X 6
     2 GLP5        3 GROUP        1 Y    GLP  0     ROOT GLP Y 13
     3 GLL5        2 GROUP        1 Z    GLL  0     ROOT GLL Z 20
@<TRIPOS>SET

