#    Name: 3my0_LDN_16_ligand
#    Modification time : Tue Mar 25 00:15:15 2014

@<TRIPOS>MOLECULE
3my0_LDN_16_ligand
   52    57     1     0     0
SMALL
NO_CHARGES


@<TRIPOS>ATOM
      1 CAA        -4.1980  -12.1530   25.7550 C.ar      1 LDN600      0.0000 
      2 CAB        -4.9110  -12.4260   26.9180 C.ar      1 LDN600      0.0000 
      3 CAC        -7.8820  -13.6060   23.0240 C.ar      1 LDN600      0.0000 
      4 CAD        -8.6380  -13.8910   24.1660 C.ar      1 LDN600      0.0000 
      5 CAE       -10.2840   -9.5470   31.1750 C.ar      1 LDN600      0.0000 
      6 CAF       -11.6190  -11.5060   31.6430 C.ar      1 LDN600      0.0000 
      7 CAG       -10.8340   -8.9330   32.3180 C.ar      1 LDN600      0.0000 
      8 CAH       -12.1580  -10.8970   32.7800 C.ar      1 LDN600      0.0000 
      9 CAI        -4.7860  -12.3940   24.4980 C.ar      1 LDN600      0.0000 
     10 CAJ        -6.2110  -12.9360   26.8010 C.ar      1 LDN600      0.0000 
     11 CAK        -9.3290  -10.9420   28.7540 C.2       1 LDN600      0.0000 
     12 CAL        -9.4890  -15.0510   26.9530 C.2       1 LDN600      0.0000 
     13 CAM       -10.4740  -12.8840   29.5380 C.2       1 LDN600      0.0000 
     14 CAN       -11.4760   -8.3930   36.4710 C.3       1 LDN600      0.0000 
     15 CAO       -13.3420   -9.9810   36.3150 C.3       1 LDN600      0.0000 
     16 CAP       -11.6160   -7.9620   34.9900 C.3       1 LDN600      0.0000 
     17 CAQ       -13.5960   -9.5680   34.8430 C.3       1 LDN600      0.0000 
     18 NAR        -6.6490  -13.1220   23.1370 N.ar      1 LDN600      0.0000 
     19 NAS        -8.8870  -11.6470   27.7110 N.2       1 LDN600      0.0000 
     20 NAT       -10.1520  -14.7970   28.0810 N.2       1 LDN600      0.0000 
     21 NAU       -12.7820   -8.8220   37.0440 N.4       1 LDN600      0.0000 
     22 CAV       -10.6700  -10.8530   30.8280 C.ar      1 LDN600      0.0000 
     23 CAW       -10.1550  -11.5360   29.7100 C.2       1 LDN600      0.0000 
     24 CAX       -11.7740   -9.6010   33.1140 C.ar      1 LDN600      0.0000 
     25 CAY        -8.0910  -13.6790   25.4490 C.ar      1 LDN600      0.0000 
     26 CAZ        -8.8670  -13.9340   26.5810 C.2       1 LDN600      0.0000 
     27 CBA        -6.0910  -12.9030   24.3700 C.ar      1 LDN600      0.0000 
     28 CBB        -6.8010  -13.1760   25.5520 C.ar      1 LDN600      0.0000 
     29 CBC        -9.1960  -12.9570   27.5190 C.2       1 LDN600      0.0000 
     30 NBD       -12.3320   -9.0200   34.2500 N.3       1 LDN600      0.0000 
     31 NBE        -9.9990  -13.6160   28.4340 N.pl3     1 LDN600      0.0000 
     32 H          -3.2462  -11.7771   25.8046 H         1 LDN600      0.0000 
     33 H          -4.5027  -12.2610   27.8334 H         1 LDN600      0.0000 
     34 H          -8.3149  -13.7846   22.0951 H         1 LDN600      0.0000 
     35 H          -9.5916  -14.2547   24.0760 H         1 LDN600      0.0000 
     36 H          -9.6061   -9.0423   30.6008 H         1 LDN600      0.0000 
     37 H         -11.9213  -12.4639   31.3866 H         1 LDN600      0.0000 
     38 H         -10.5382   -7.9785   32.5692 H         1 LDN600      0.0000 
     39 H         -12.8313  -11.4033   33.3624 H         1 LDN600      0.0000 
     40 H          -4.2392  -12.1896   23.6408 H         1 LDN600      0.0000 
     41 H          -6.7519  -13.1417   27.6620 H         1 LDN600      0.0000 
     42 H          -9.0722   -9.9421   28.8803 H         1 LDN600      0.0000 
     43 H          -9.4644  -15.9004   26.4858 H         1 LDN600      0.0000 
     44 H         -11.0728  -13.3601   30.2351 H         1 LDN600      0.0000 
     45 H         -11.0715   -7.5461   37.0340 H         1 LDN600      0.0000 
     46 H         -10.7505   -9.2110   36.5192 H         1 LDN600      0.0000 
     47 H         -12.6480  -10.8129   36.3171 H         1 LDN600      0.0000 
     48 H         -14.2862  -10.2912   36.7461 H         1 LDN600      0.0000 
     49 H         -10.6205   -7.8110   34.5873 H         1 LDN600      0.0000 
     50 H         -12.1651   -7.0273   34.9614 H         1 LDN600      0.0000 
     51 H         -14.3774   -8.8165   34.8282 H         1 LDN600      0.0000 
     52 H         -13.9230  -10.4435   34.2933 H         1 LDN600      0.0000 
@<TRIPOS>BOND
     1    2    1 ar   
     2    9    1 ar   
     3   32    1 1    
     4   10    2 ar   
     5   33    2 1    
     6    4    3 ar   
     7   18    3 ar   
     8   34    3 1    
     9   25    4 ar   
    10   35    4 1    
    11    7    5 ar   
    12   22    5 ar   
    13   36    5 1    
    14    8    6 ar   
    15   22    6 ar   
    16   37    6 1    
    17   24    7 ar   
    18   38    7 1    
    19   24    8 ar   
    20   39    8 1    
    21   27    9 ar   
    22   40    9 1    
    23   28   10 ar   
    24   41   10 1    
    25   19   11 2    
    26   23   11 1    
    27   42   11 1    
    28   20   12 2    
    29   26   12 1    
    30   43   12 1    
    31   23   13 2    
    32   31   13 1    
    33   44   13 1    
    34   16   14 1    
    35   21   14 1    
    36   45   14 1    
    37   46   14 1    
    38   17   15 1    
    39   21   15 1    
    40   47   15 1    
    41   48   15 1    
    42   30   16 1    
    43   49   16 1    
    44   50   16 1    
    45   30   17 1    
    46   51   17 1    
    47   52   17 1    
    48   27   18 ar   
    49   29   19 1    
    50   31   20 1    
    51   23   22 1    
    52   30   24 1    
    53   26   25 1    
    54   28   25 ar   
    55   29   26 2    
    56   28   27 ar   
    57   31   29 1    
@<TRIPOS>SUBSTRUCTURE
     1 LDN600      1 GROUP   
@<TRIPOS>SET

