#    Name: 3mws_017_1_INTS_M
#    Modification time : Tue Mar 25 00:08:34 2014

@<TRIPOS>MOLECULE
3mws_017_1_INTS_M
   84     0     9     0     0
SMALL
NO_CHARGES


@<TRIPOS>ATOM
      1 O          11.7550   20.3325   -3.5075 O.2       1 ALC1        0.0000 
      2 O          10.5930   19.6670   -3.4200 O.2       7 ALL1        0.0000 
      3 O          12.9170   20.9980   -3.5950 O.2       4 ALP1        0.0000 
      4 CA         10.6640   20.4430   -2.8095 C.3       3 GLC5        0.0000 
      5 CA          9.9180   18.7050   -3.5810 C.3       9 GLL5        0.0000 
      6 CA         11.4100   22.1810   -2.0380 C.3       6 GLP5        0.0000 
      7 CA          5.7495   17.8705   -2.8160 C.3       3 GLC5        0.0000 
      8 CA          7.9150   17.5180   -3.0410 C.3       9 GLL5        0.0000 
      9 CA          3.5840   18.2230   -2.5910 C.3       6 GLP5        0.0000 
     10 CA          9.1260   14.9725   -6.0060 C.3       3 GLC5        0.0000 
     11 CA          9.4260   16.5700   -4.5760 C.3       9 GLL5        0.0000 
     12 CA          8.8260   13.3750   -7.4360 C.3       6 GLP5        0.0000 
     13 CA          7.3435    9.0955   -2.2810 C.3       3 GLC5        0.0000 
     14 CA          7.9510   11.1050   -2.9950 C.3       9 GLL5        0.0000 
     15 CA          6.7360    7.0860   -1.5670 C.3       6 GLP5        0.0000 
     16 CA          7.1070   10.3285   -4.8495 C.3       3 GLC5        0.0000 
     17 CA          6.2630    9.5520   -6.7040 C.3       6 GLP5        0.0000 
     18 CA         10.6730   11.2870   -0.1705 C.3       3 GLC5        0.0000 
     19 CA         10.1640   11.6880   -1.9140 C.3       9 GLL5        0.0000 
     20 CA         11.1820   10.8860    1.5730 C.3       6 GLP5        0.0000 
     21 CA         11.3410   10.2030   -1.8235 C.3       3 GLC5        0.0000 
     22 CA         12.5180    8.7180   -1.7330 C.3       6 GLP5        0.0000 
     23 CA          9.5280    9.7665   -0.9555 C.3       3 GLC5        0.0000 
     24 CA          8.8920    7.8450    0.0030 C.3       6 GLP5        0.0000 
     25 CA          7.3390   16.0800   -0.5630 C.3       3 GLC5        0.0000 
     26 CA          6.6310   14.3020   -1.5680 C.3       9 GLL5        0.0000 
     27 CA          8.0470   17.8580    0.4420 C.3       6 GLP5        0.0000 
     28 N           5.0030   14.6770    0.3335 N.am      2 SEC2        0.0000 
     29 N           5.1240   13.3720    0.0870 N.am      8 SEL2        0.0000 
     30 N           4.8820   15.9820    0.5800 N.am      5 SEP2        0.0000 
     31 O           5.5025   12.8335    1.3770 O.2       1 ALC1        0.0000 
     32 O           5.1240   13.3720    0.0870 O.2       7 ALL1        0.0000 
     33 O           5.8810   12.2950    2.6670 O.2       4 ALP1        0.0000 
     34 O           5.8375   12.1565    0.5825 O.2       1 ALC1        0.0000 
     35 O           6.5510   10.9410    1.0780 O.2       4 ALP1        0.0000 
     36 O           2.6180   12.3570   -0.6275 O.2       1 ALC1        0.0000 
     37 O           3.5840   12.1120   -1.9260 O.2       7 ALL1        0.0000 
     38 O           1.6520   12.6020    0.6710 O.2       4 ALP1        0.0000 
     39 CA          2.8470    8.4210   -0.5160 C.3       3 GLC5        0.0000 
     40 CA          2.2420    7.7730   -2.3240 C.3       9 GLL5        0.0000 
     41 CA          3.4520    9.0690    1.2920 C.3       6 GLP5        0.0000 
     42 CA          3.2380    6.0240   -2.3950 C.3       3 GLC5        0.0000 
     43 CA          4.2340    4.2750   -2.4660 C.3       6 GLP5        0.0000 
     44 N           0.5490    8.4530   -0.1210 N.am      2 SEC2        0.0000 
     45 N           1.0310    7.9300   -1.5580 N.am      8 SEL2        0.0000 
     46 N           0.0670    8.9760    1.3160 N.am      5 SEP2        0.0000 
     47 N           0.6545    7.0640   -0.1325 N.am      2 SEC2        0.0000 
     48 N           0.2780    6.1980    1.2930 N.am      5 SEP2        0.0000 
     49 CA         -1.0775    8.3855   -0.6910 C.3       3 GLC5        0.0000 
     50 CA          0.0600    8.6150   -2.3560 C.3       9 GLL5        0.0000 
     51 CA         -2.2150    8.1560    0.9740 C.3       6 GLP5        0.0000 
     52 N          -0.2515    9.3010   -0.1235 N.am      2 SEC2        0.0000 
     53 N          -0.5700    9.6260   -1.5630 N.am      8 SEL2        0.0000 
     54 CA          1.0440   10.4575   -0.3635 C.3       3 GLC5        0.0000 
     55 CA         -0.2030   10.9050   -2.0860 C.3       9 GLL5        0.0000 
     56 CA          2.2910   10.0100    1.3590 C.3       6 GLP5        0.0000 
     57 CA          0.5905   15.2360   -0.6405 C.3       3 GLC5        0.0000 
     58 CA          0.9580   14.3410   -2.3600 C.3       9 GLL5        0.0000 
     59 CA          0.2230   16.1310    1.0790 C.3       6 GLP5        0.0000 
     60 CA          8.2490   20.2355   -3.7318 C.3       3 GLC5        0.0000 
     61 CA          8.7220   18.6210   -2.8760 C.3       9 GLL5        0.0000 
     62 CA          7.1780   21.8080   -4.2350 C.3       6 GLP5        0.0000 
     63 CA          7.0942   18.0957   -4.5118 C.3       3 GLC5        0.0000 
     64 CA          5.8700   18.1220   -6.0650 C.3       6 GLP5        0.0000 
     65 CA          8.1827   17.9638   -1.2582 C.3       3 GLC5        0.0000 
     66 CA          7.3495   17.3215   -5.1467 C.3       3 GLC5        0.0000 
     67 CA          8.2320   16.4720   -3.8810 C.3       9 GLL5        0.0000 
     68 CA          9.4792   18.8509   -5.6670 C.3       3 GLC5        0.0000 
     69 CA          9.2000   20.3250   -7.0410 C.3       6 GLP5        0.0000 
     70 CA          2.3593    6.8290   -4.0815 C.3       3 GLC5        0.0000 
     71 CA          2.2830    9.0770   -3.1360 C.3       9 GLL5        0.0000 
     72 CA          2.4560    5.2330   -5.4330 C.3       6 GLP5        0.0000 
     73 CA          3.9262    8.0300   -3.9700 C.3       3 GLC5        0.0000 
     74 CA          5.5900    7.6350   -5.2100 C.3       6 GLP5        0.0000 
     75 CA          0.4905   15.3392   -6.3960 C.3       3 GLC5        0.0000 
     76 CA          1.3150   14.5710   -5.0960 C.3       9 GLL5        0.0000 
     77 CA          0.2980   16.2050   -7.9570 C.3       6 GLP5        0.0000 
     78 CA         -0.3945   16.0547   -3.0475 C.3       3 GLC5        0.0000 
     79 CA          0.0510   14.3760   -4.5740 C.3       9 GLL5        0.0000 
     80 CA         -1.0160   17.7600   -2.4190 C.3       6 GLP5        0.0000 
     81 CA          2.1110   13.4359   -5.9273 C.3       3 GLC5        0.0000 
     82 CA          2.6700   12.3200   -7.3170 C.3       6 GLP5        0.0000 
     83 CA          3.1051   16.4036   -2.9478 C.3       3 GLC5        0.0000 
     84 CA          2.4210   14.6300   -4.2400 C.3       9 GLL5        0.0000 
@<TRIPOS>BOND
@<TRIPOS>SUBSTRUCTURE
     1 ALC1        1 GROUP        1 X    ALC  0     ROOT ALC X 1
     2 SEC2       28 GROUP        1 X    SEC  0     **** SEC X 2
     3 GLC5        4 GROUP        1 X    GLC  0     **** GLC X 6
     4 ALP1        3 GROUP        1 Y    ALP  0     ROOT ALP Y 8
     5 SEP2       30 GROUP        1 Y    SEP  0     **** SEP Y 9
     6 GLP5        6 GROUP        1 Y    GLP  0     **** GLP Y 13
     7 ALL1        2 GROUP        1 Z    ALL  0     ROOT ALL Z 15
     8 SEL2       29 GROUP        1 Z    SEL  0     **** SEL Z 16
     9 GLL5        5 GROUP        1 Z    GLL  0     **** GLL Z 20
@<TRIPOS>SET

