#    Name: 3mws_017_1_ligand
#    Modification time : Tue Mar 25 00:08:34 2014

@<TRIPOS>MOLECULE
3mws_017_1_ligand
   75    78     1     0     0
SMALL
NO_CHARGES


@<TRIPOS>ATOM
      1 N1         10.5930   19.6670   -3.4200 N.pl3     1 017201      0.0000 
      2 C2          9.9180   18.7050   -3.5810 C.ar      1 017201      0.0000 
      3 C3          8.7220   18.6210   -2.8760 C.ar      1 017201      0.0000 
      4 C4          7.9150   17.5180   -3.0410 C.ar      1 017201      0.0000 
      5 C5          8.2320   16.4720   -3.8810 C.ar      1 017201      0.0000 
      6 C6          9.4260   16.5700   -4.5760 C.ar      1 017201      0.0000 
      7 C7         10.2640   17.6620   -4.4390 C.ar      1 017201      0.0000 
      8 S8          7.1500   15.1020   -4.0350 S.o2      1 017201      0.0000 
      9 O9          5.7670   15.6310   -3.9380 O.2       1 017201      0.0000 
     10 O10         7.3960   14.4610   -5.3190 O.2       1 017201      0.0000 
     11 N11         7.3420   14.0750   -2.7850 N.pl3     1 017201      0.0000 
     12 C12         8.6620   13.5030   -2.6650 C.3       1 017201      0.0000 
     13 C13         8.6730   12.0970   -2.0620 C.3       1 017201      0.0000 
     14 C14         7.9510   11.1050   -2.9950 C.3       1 017201      0.0000 
     15 C15        10.1640   11.6880   -1.9140 C.3       1 017201      0.0000 
     16 C16         6.6310   14.3020   -1.5680 C.3       1 017201      0.0000 
     17 C17         5.5670   13.2570   -1.2690 C.3       1 017201      0.0000 
     18 O18         5.1240   13.3720    0.0870 O.3       1 017201      0.0000 
     19 C19         4.3330   13.3510   -2.1480 C.3       1 017201      0.0000 
     20 N20         3.5840   12.1120   -1.9260 N.am      1 017201      0.0000 
     21 C21         3.4020   11.1340   -2.8090 C.2       1 017201      0.0000 
     22 O22         3.8450   11.1500   -3.9940 O.2       1 017201      0.0000 
     23 O23         2.6860   10.1290   -2.2760 O.3       1 017201      0.0000 
     24 C24         2.2830    9.0770   -3.1360 C.3       1 017201      0.0000 
     25 C25         2.2420    7.7730   -2.3240 C.3       1 017201      0.0000 
     26 O26         1.0310    7.9300   -1.5580 O.3       1 017201      0.0000 
     27 C27         0.0600    8.6150   -2.3560 C.3       1 017201      0.0000 
     28 O28        -0.5700    9.6260   -1.5630 O.3       1 017201      0.0000 
     29 C29        -0.2030   10.9050   -2.0860 C.3       1 017201      0.0000 
     30 C30         0.2040   10.6590   -3.5430 C.3       1 017201      0.0000 
     31 C31         0.8150    9.2680   -3.5060 C.3       1 017201      0.0000 
     32 C32         3.4200   14.5560   -1.8690 C.3       1 017201      0.0000 
     33 C33         0.9580   14.3410   -2.3600 C.ar      1 017201      0.0000 
     34 C34        -0.1520   14.3050   -3.1960 C.ar      1 017201      0.0000 
     35 C35         0.0510   14.3760   -4.5740 C.ar      1 017201      0.0000 
     36 C36         1.3150   14.5710   -5.0960 C.ar      1 017201      0.0000 
     37 C37         2.4210   14.6300   -4.2400 C.ar      1 017201      0.0000 
     38 C38         2.2430   14.5210   -2.8690 C.ar      1 017201      0.0000 
     39 H          10.1139   20.4988   -3.1397 H         1 017201      0.0000 
     40 H          11.5729   19.5490   -3.5809 H         1 017201      0.0000 
     41 H           8.4490   19.3788   -2.2393 H         1 017201      0.0000 
     42 H           7.0115   17.4703   -2.4996 H         1 017201      0.0000 
     43 H           9.7008   15.7973   -5.2215 H         1 017201      0.0000 
     44 H          11.1452   17.7091   -4.9691 H         1 017201      0.0000 
     45 H           9.3159   14.1425   -2.0341 H         1 017201      0.0000 
     46 H           9.1614   13.4457   -3.6560 H         1 017201      0.0000 
     47 H           8.2224   12.1077   -1.1120 H         1 017201      0.0000 
     48 H           6.1287   15.2973   -1.5757 H         1 017201      0.0000 
     49 H           7.3254   14.3305   -0.6962 H         1 017201      0.0000 
     50 H           6.0057   12.2654   -1.4204 H         1 017201      0.0000 
     51 H           4.6492   13.3831   -3.1846 H         1 017201      0.0000 
     52 H           3.1625   12.0347   -0.9431 H         1 017201      0.0000 
     53 H           2.8468    8.9398   -3.9815 H         1 017201      0.0000 
     54 H           3.1075    7.7359   -1.7065 H         1 017201      0.0000 
     55 H           2.1857    6.9569   -3.0041 H         1 017201      0.0000 
     56 H          -0.6479    7.9343   -2.7669 H         1 017201      0.0000 
     57 H           0.6449   11.3292   -1.5696 H         1 017201      0.0000 
     58 H          -1.0294   11.5997   -2.0830 H         1 017201      0.0000 
     59 H           0.9335   11.3697   -3.8327 H         1 017201      0.0000 
     60 H          -0.6581   10.6619   -4.1578 H         1 017201      0.0000 
     61 H           0.5632    8.7192   -4.3783 H         1 017201      0.0000 
     62 H           3.9752   15.4673   -2.0074 H         1 017201      0.0000 
     63 H           3.0348   14.4906   -0.8664 H         1 017201      0.0000 
     64 H           0.8291   14.2319   -1.3367 H         1 017201      0.0000 
     65 H          -1.0913   14.2287   -2.8137 H         1 017201      0.0000 
     66 H          -0.7608   14.2805   -5.2098 H         1 017201      0.0000 
     67 H           1.4517   14.6734   -6.1090 H         1 017201      0.0000 
     68 H           3.3620   14.7541   -4.6330 H         1 017201      0.0000 
     69 H           8.3879   11.0547   -3.8931 H         1 017201      0.0000 
     70 H           7.9458   10.1783   -2.6192 H         1 017201      0.0000 
     71 H           6.9974   11.3650   -3.1471 H         1 017201      0.0000 
     72 H          10.6360   11.6792   -2.7956 H         1 017201      0.0000 
     73 H          10.6646   12.3176   -1.3198 H         1 017201      0.0000 
     74 H          10.2610   10.7738   -1.5204 H         1 017201      0.0000 
     75 H           5.4697   12.5517    0.5425 H         1 017201      0.0000 
@<TRIPOS>BOND
     1    2    1 1    
     2   39    1 1    
     3   40    1 1    
     4    3    2 ar   
     5    7    2 ar   
     6    4    3 ar   
     7   41    3 1    
     8    5    4 ar   
     9   42    4 1    
    10    6    5 ar   
    11    8    5 1    
    12    7    6 ar   
    13   43    6 1    
    14   44    7 1    
    15    9    8 2    
    16   10    8 2    
    17   11    8 1    
    18   12   11 1    
    19   16   11 1    
    20   13   12 1    
    21   45   12 1    
    22   46   12 1    
    23   14   13 1    
    24   15   13 1    
    25   47   13 1    
    26   69   14 1    
    27   70   14 1    
    28   71   14 1    
    29   72   15 1    
    30   73   15 1    
    31   74   15 1    
    32   17   16 1    
    33   48   16 1    
    34   49   16 1    
    35   18   17 1    
    36   19   17 1    
    37   50   17 1    
    38   75   18 1    
    39   20   19 1    
    40   32   19 1    
    41   51   19 1    
    42   21   20 am   
    43   52   20 1    
    44   22   21 2    
    45   23   21 1    
    46   24   23 1    
    47   25   24 1    
    48   31   24 1    
    49   53   24 1    
    50   26   25 1    
    51   54   25 1    
    52   55   25 1    
    53   27   26 1    
    54   28   27 1    
    55   31   27 1    
    56   56   27 1    
    57   29   28 1    
    58   30   29 1    
    59   57   29 1    
    60   58   29 1    
    61   31   30 1    
    62   59   30 1    
    63   60   30 1    
    64   61   31 1    
    65   38   32 1    
    66   62   32 1    
    67   63   32 1    
    68   34   33 ar   
    69   38   33 ar   
    70   64   33 1    
    71   35   34 ar   
    72   65   34 1    
    73   36   35 ar   
    74   66   35 1    
    75   37   36 ar   
    76   67   36 1    
    77   38   37 ar   
    78   68   37 1    
@<TRIPOS>SUBSTRUCTURE
     1 017201      1 GROUP   
@<TRIPOS>SET

