#    Name: 1p6m_DP3_2_ligand
#    Modification time : Mon Mar 24 21:10:13 2014

@<TRIPOS>MOLECULE
1p6m_DP3_2_ligand
   32    31     1     0     0
SMALL
NO_CHARGES


@<TRIPOS>ATOM
      1 N2'         0.6400    0.3730   60.5130 N.3       1 DP3794      0.0000 
      2 C2'         0.2870    1.4670   61.4820 C.3       1 DP3794      0.0000 
      3 C1'         0.1080    0.9810   62.9580 C.3       1 DP3794      0.0000 
      4 N1'         0.9110    1.7370   63.9940 N.4       1 DP3794      0.0000 
      5 C           0.5520    3.1780   64.2260 C.3       1 DP3794      0.0000 
      6 CA         -0.9500    3.4340   64.5700 C.3       1 DP3794      0.0000 
      7 N          -1.2790    2.7180   65.8330 N.3       1 DP3794      0.0000 
      8 CB         -1.3260    4.9510   64.7870 C.3       1 DP3794      0.0000 
      9 CG         -0.9250    5.5740   66.1490 C.3       1 DP3794      0.0000 
     10 CD          0.2980    6.4930   66.0690 C.3       1 DP3794      0.0000 
     11 NE         -0.0840    7.9430   65.9180 N.pl3     1 DP3794      0.0000 
     12 CZ          0.1170    8.9450   66.7680 C.2       1 DP3794      0.0000 
     13 NH2        -0.3330   10.1570   66.3690 N.2       1 DP3794      0.0000 
     14 NH1         0.7410    8.7170   67.9600 N.pl3     1 DP3794      0.0000 
     15 NO          0.7970    9.6730   68.9700 N.pl3     1 DP3794      0.0000 
     16 O2          1.3860    9.3730   70.0450 O.2       1 DP3794      0.0000 
     17 O3          0.2810   10.8380   68.8700 O.2       1 DP3794      0.0000 
     18 H          -0.6520    1.9555   61.1747 H         1 DP3794      0.0000 
     19 H           1.0701    2.2425   61.4781 H         1 DP3794      0.0000 
     20 H           0.3733   -0.0932   62.9924 H         1 DP3794      0.0000 
     21 H          -0.9696    1.0435   63.2038 H         1 DP3794      0.0000 
     22 H           0.7965    3.7765   63.3290 H         1 DP3794      0.0000 
     23 H           1.1595    3.5893   65.0533 H         1 DP3794      0.0000 
     24 H          -1.5624    3.0487   63.7764 H         1 DP3794      0.0000 
     25 H          -2.4195    5.0511   64.6553 H         1 DP3794      0.0000 
     26 H          -0.8573    5.5358   63.9737 H         1 DP3794      0.0000 
     27 H          -0.7200    4.7602   66.8574 H         1 DP3794      0.0000 
     28 H          -1.7803    6.1433   66.5369 H         1 DP3794      0.0000 
     29 H           0.9150    6.1832   65.2164 H         1 DP3794      0.0000 
     30 H           0.8961    6.3618   66.9793 H         1 DP3794      0.0000 
     31 H          -0.5833    8.1279   64.9739 H         1 DP3794      0.0000 
     32 H           1.1999    7.7885   68.1330 H         1 DP3794      0.0000 
@<TRIPOS>BOND
     1    2    1 1    
     2    3    2 1    
     3   18    2 1    
     4   19    2 1    
     5    4    3 1    
     6   20    3 1    
     7   21    3 1    
     8    5    4 1    
     9    6    5 1    
    10   22    5 1    
    11   23    5 1    
    12    7    6 1    
    13    8    6 1    
    14   24    6 1    
    15    9    8 1    
    16   25    8 1    
    17   26    8 1    
    18   10    9 1    
    19   27    9 1    
    20   28    9 1    
    21   11   10 1    
    22   29   10 1    
    23   30   10 1    
    24   12   11 1    
    25   31   11 1    
    26   13   12 2    
    27   14   12 1    
    28   15   14 1    
    29   32   14 1    
    30   16   15 2    
    31   17   15 2    
@<TRIPOS>SUBSTRUCTURE
     1 DP3794      1 GROUP   
@<TRIPOS>SET

