#    Name: 2i4q_UA4_1_INTS_M
#    Modification time : Tue Mar 25 17:25:19 2014

@<TRIPOS>MOLECULE
2i4q_UA4_1_INTS_M
   67     0     9     0     0
SMALL
NO_CHARGES


@<TRIPOS>ATOM
      1 CA         26.0985  109.3295  133.1215 C.3       3 GLC5        0.0000 
      2 CA         27.9560  108.9830  132.0880 C.3       9 GLL5        0.0000 
      3 CA         24.2410  109.6760  134.1550 C.3       6 GLP5        0.0000 
      4 CA         22.6980  110.3095  130.8110 C.3       3 GLC5        0.0000 
      5 CA         24.1540  109.6800  129.8020 C.3       9 GLL5        0.0000 
      6 CA         21.2420  110.9390  131.8200 C.3       6 GLP5        0.0000 
      7 CA         24.1975  109.6780  131.9785 C.3       3 GLC5        0.0000 
      8 CA         25.7790  104.1885  125.7340 C.3       3 GLC5        0.0000 
      9 CA         25.4060  105.6210  127.3840 C.3       9 GLL5        0.0000 
     10 CA         26.1520  102.7560  124.0840 C.3       6 GLP5        0.0000 
     11 CA         21.3460  108.7545  132.1560 C.3       3 GLC5        0.0000 
     12 CA         21.4500  106.5700  132.4920 C.3       9 GLL5        0.0000 
     13 CA         22.8455  108.1230  133.3235 C.3       3 GLC5        0.0000 
     14 CA         18.9385  106.7515  133.0560 C.3       3 GLC5        0.0000 
     15 CA         20.3830  108.0910  133.9740 C.3       9 GLL5        0.0000 
     16 CA         17.4940  105.4120  132.1380 C.3       6 GLP5        0.0000 
     17 CA         18.4865  108.5600  134.4755 C.3       3 GLC5        0.0000 
     18 CA         16.5900  109.0290  134.9770 C.3       6 GLP5        0.0000 
     19 CA         20.8125  109.5150  132.8970 C.3       3 GLC5        0.0000 
     20 CA         19.6215  109.1455  135.7150 C.3       3 GLC5        0.0000 
     21 CA         18.8600  110.2000  137.4560 C.3       6 GLP5        0.0000 
     22 CA         22.3120  108.8835  134.0645 C.3       3 GLC5        0.0000 
     23 CA         21.2355  100.3975  126.0285 C.3       3 GLC5        0.0000 
     24 CA         22.3290  100.8810  127.7930 C.3       9 GLL5        0.0000 
     25 CA         20.1420   99.9140  124.2640 C.3       6 GLP5        0.0000 
     26 CA         20.7780  101.6005  125.3630 C.3       3 GLC5        0.0000 
     27 CA         21.4140  103.2870  126.4620 C.3       9 GLL5        0.0000 
     28 CA         20.0930  103.8755  125.4515 C.3       3 GLC5        0.0000 
     29 CA         18.7720  104.4640  124.4410 C.3       6 GLP5        0.0000 
     30 CA         20.7920  108.1035  130.4140 C.3       3 GLC5        0.0000 
     31 CA         21.5500  106.1470  131.0340 C.3       9 GLL5        0.0000 
     32 CA         20.0340  110.0600  129.7940 C.3       6 GLP5        0.0000 
     33 CA         20.9430  106.5930  129.2475 C.3       3 GLC5        0.0000 
     34 CA         20.3360  107.0390  127.4610 C.3       6 GLP5        0.0000 
     35 N          18.6825  107.5305  132.8545 N.am      2 SEC2        0.0000 
     36 N          20.3330  107.4330  132.7040 N.am      8 SEL2        0.0000 
     37 N          17.0320  107.6280  133.0050 N.am      5 SEP2        0.0000 
     38 CA         28.1375  107.1340  127.9815 C.3       3 GLC5        0.0000 
     39 CA         26.1250  106.3440  128.0420 C.3       9 GLL5        0.0000 
     40 CA         30.1500  107.9240  127.9210 C.3       6 GLP5        0.0000 
     41 CA         27.2405  110.5380  128.7655 C.3       3 GLC5        0.0000 
     42 CA         25.5720  109.6000  129.2740 C.3       9 GLL5        0.0000 
     43 CA         28.9090  111.4760  128.2570 C.3       6 GLP5        0.0000 
     44 O          27.8055  104.6195  129.9305 O.2       1 ALC1        0.0000 
     45 O          27.6970  105.5100  131.3000 O.2       7 ALL1        0.0000 
     46 O          27.9140  103.7290  128.5610 O.2       4 ALP1        0.0000 
     47 O          27.7300  111.0165  132.2500 O.2       1 ALC1        0.0000 
     48 O          28.6180  109.7350  132.9950 O.2       7 ALL1        0.0000 
     49 O          26.8420  112.2980  131.5050 O.2       4 ALP1        0.0000 
     50 O          27.6050  110.8625  133.3055 O.2       1 ALC1        0.0000 
     51 O          26.5920  111.9900  133.6160 O.2       4 ALP1        0.0000 
     52 CA         24.2950  110.7900  128.3825 C.3       3 GLC5        0.0000 
     53 CA         23.7270  111.9400  127.2270 C.3       6 GLP5        0.0000 
     54 CA         19.4970  105.8853  131.9505 C.3       3 GLC5        0.0000 
     55 CA         26.8694  101.7592  128.3358 C.3       3 GLC5        0.0000 
     56 CA         24.5540  101.7010  127.9760 C.3       9 GLL5        0.0000 
     57 CA         28.6480  102.5020  128.5130 C.3       6 GLP5        0.0000 
     58 CA         22.0120   98.5735  126.1470 C.3       3 GLC5        0.0000 
     59 CA         22.7140   99.6730  128.0280 C.3       9 GLL5        0.0000 
     60 CA         21.7360   97.9790  124.2450 C.3       6 GLP5        0.0000 
     61 CA         24.6037  101.5188  126.0815 C.3       3 GLC5        0.0000 
     62 CA         23.1090  101.8980  127.7360 C.3       9 GLL5        0.0000 
     63 CA         25.2660  101.5480  124.2440 C.3       6 GLP5        0.0000 
     64 CA         21.1627  105.1668  127.2130 C.3       3 GLC5        0.0000 
     65 CA         22.5650  103.3020  127.4680 C.3       9 GLL5        0.0000 
     66 CA         28.5832  107.7164  129.3266 C.3       3 GLC5        0.0000 
     67 CA         26.6100  107.4760  130.2090 C.3       9 GLL5        0.0000 
@<TRIPOS>BOND
@<TRIPOS>SUBSTRUCTURE
     1 ALC1       44 GROUP        1 X    ALC  0     ROOT ALC X 1
     2 SEC2       35 GROUP        1 X    SEC  0     **** SEC X 2
     3 GLC5        1 GROUP        1 X    GLC  0     **** GLC X 6
     4 ALP1       46 GROUP        1 Y    ALP  0     ROOT ALP Y 8
     5 SEP2       37 GROUP        1 Y    SEP  0     **** SEP Y 9
     6 GLP5        3 GROUP        1 Y    GLP  0     **** GLP Y 13
     7 ALL1       45 GROUP        1 Z    ALL  0     ROOT ALL Z 15
     8 SEL2       36 GROUP        1 Z    SEL  0     **** SEL Z 16
     9 GLL5        2 GROUP        1 Z    GLL  0     **** GLL Z 20
@<TRIPOS>SET

