#    Name: 2i4q_UA4_1_ligand
#    Modification time : Tue Mar 25 17:25:19 2014

@<TRIPOS>MOLECULE
2i4q_UA4_1_ligand
   62    65     1     0     0
SMALL
NO_CHARGES


@<TRIPOS>ATOM
      1 C5         27.9560  108.9830  132.0880 C.ar      1 UA4336      0.0000 
      2 C10        24.1540  109.6800  129.8020 C.3       1 UA4336      0.0000 
      3 C13        25.4060  105.6210  127.3840 C.ar      1 UA4336      0.0000 
      4 C15        23.8990  105.2360  129.0620 C.ar      1 UA4336      0.0000 
      5 C22        22.3360  104.8460  130.9370 C.3       1 UA4336      0.0000 
      6 C24        21.4500  106.5700  132.4920 C.3       1 UA4336      0.0000 
      7 C26        20.3830  108.0910  133.9740 C.3       1 UA4336      0.0000 
      8 C28        22.3290  100.8810  127.7930 C.ar      1 UA4336      0.0000 
      9 F34        26.2610  100.2030  128.4540 F         1 UA4336      0.0000 
     10 C31        24.9940  100.4610  128.2280 C.ar      1 UA4336      0.0000 
     11 C32        24.5540  101.7010  127.9760 C.ar      1 UA4336      0.0000 
     12 C30        24.0060   99.3750  128.2520 C.ar      1 UA4336      0.0000 
     13 C29        22.7140   99.6730  128.0280 C.ar      1 UA4336      0.0000 
     14 F33        21.8620   98.6630  128.0700 F         1 UA4336      0.0000 
     15 C27        23.1090  101.8980  127.7360 C.ar      1 UA4336      0.0000 
     16 C18        22.5650  103.3020  127.4680 C.3       1 UA4336      0.0000 
     17 C35        21.4140  103.2870  126.4620 C.3       1 UA4336      0.0000 
     18 C19        22.0730  103.7830  128.8190 C.2       1 UA4336      0.0000 
     19 O21        21.0430  103.2880  129.2750 O.2       1 UA4336      0.0000 
     20 N20        22.7600  104.6800  129.5440 N.am      1 UA4336      0.0000 
     21 C23        21.5500  106.1470  131.0340 C.3       1 UA4336      0.0000 
     22 O25        20.3330  107.4330  132.7040 O.3       1 UA4336      0.0000 
     23 C16        24.6460  106.0280  129.8360 C.ar      1 UA4336      0.0000 
     24 C14        24.3280  105.0620  127.8040 C.ar      1 UA4336      0.0000 
     25 O17        23.5420  104.2050  126.9280 O.3       1 UA4336      0.0000 
     26 C12        26.1250  106.3440  128.0420 C.ar      1 UA4336      0.0000 
     27 C11        25.8500  106.6110  129.2500 C.ar      1 UA4336      0.0000 
     28 C2         26.6100  107.4760  130.2090 C.ar      1 UA4336      0.0000 
     29 C1         26.4620  108.8590  130.2460 C.ar      1 UA4336      0.0000 
     30 C9         25.5720  109.6000  129.2740 C.3       1 UA4336      0.0000 
     31 C3         27.4970  106.8500  131.2370 C.ar      1 UA4336      0.0000 
     32 N7         27.6970  105.5100  131.3000 N.pl3     1 UA4336      0.0000 
     33 N4         28.1340  107.6450  132.1200 N.ar      1 UA4336      0.0000 
     34 N6         27.1460  109.5750  131.1710 N.ar      1 UA4336      0.0000 
     35 N8         28.6180  109.7350  132.9950 N.pl3     1 UA4336      0.0000 
     36 H          25.6770  105.4071  126.3289 H         1 UA4336      0.0000 
     37 H          23.1924  104.9081  131.5989 H         1 UA4336      0.0000 
     38 H          21.6944  104.0292  131.2476 H         1 UA4336      0.0000 
     39 H          22.3987  107.0618  132.7652 H         1 UA4336      0.0000 
     40 H          21.3758  105.6549  133.1032 H         1 UA4336      0.0000 
     41 H          21.2602  101.0479  127.6310 H         1 UA4336      0.0000 
     42 H          25.1439  102.5230  127.9371 H         1 UA4336      0.0000 
     43 H          24.3481   98.4377  128.4389 H         1 UA4336      0.0000 
     44 H          20.5545  105.9973  130.6320 H         1 UA4336      0.0000 
     45 H          22.0592  106.9186  130.4679 H         1 UA4336      0.0000 
     46 H          24.4357  106.2519  130.7996 H         1 UA4336      0.0000 
     47 H          27.0206  106.7796  127.6131 H         1 UA4336      0.0000 
     48 H          25.9589  110.6091  129.1237 H         1 UA4336      0.0000 
     49 H          25.5712  109.0814  128.3140 H         1 UA4336      0.0000 
     50 H          27.8664  105.1327  132.2104 H         1 UA4336      0.0000 
     51 H          27.6573  105.0178  130.4304 H         1 UA4336      0.0000 
     52 H          28.1650  110.5793  133.2813 H         1 UA4336      0.0000 
     53 H          29.5021  109.3804  133.2993 H         1 UA4336      0.0000 
     54 H          24.1104  110.1604  130.6780 H         1 UA4336      0.0000 
     55 H          23.5495  110.1660  129.1708 H         1 UA4336      0.0000 
     56 H          23.7594  108.7724  129.9454 H         1 UA4336      0.0000 
     57 H          21.2016  108.6578  134.0666 H         1 UA4336      0.0000 
     58 H          19.5944  108.6900  134.1132 H         1 UA4336      0.0000 
     59 H          20.3919  107.4374  134.7308 H         1 UA4336      0.0000 
     60 H          21.6974  102.9129  125.5790 H         1 UA4336      0.0000 
     61 H          20.6472  102.7313  126.7833 H         1 UA4336      0.0000 
     62 H          21.0586  104.2058  126.2906 H         1 UA4336      0.0000 
@<TRIPOS>BOND
     1   33    1 ar   
     2   34    1 ar   
     3   35    1 1    
     4   30    2 1    
     5   54    2 1    
     6   55    2 1    
     7   56    2 1    
     8   24    3 ar   
     9   26    3 ar   
    10   36    3 1    
    11   20    4 1    
    12   23    4 ar   
    13   24    4 ar   
    14   20    5 1    
    15   21    5 1    
    16   37    5 1    
    17   38    5 1    
    18   21    6 1    
    19   22    6 1    
    20   39    6 1    
    21   40    6 1    
    22   22    7 1    
    23   57    7 1    
    24   58    7 1    
    25   59    7 1    
    26   13    8 ar   
    27   15    8 ar   
    28   41    8 1    
    29   10    9 1    
    30   11   10 ar   
    31   12   10 ar   
    32   15   11 ar   
    33   42   11 1    
    34   13   12 ar   
    35   43   12 1    
    36   14   13 1    
    37   16   15 1    
    38   17   16 1    
    39   18   16 1    
    40   25   16 1    
    41   60   17 1    
    42   61   17 1    
    43   62   17 1    
    44   19   18 2    
    45   20   18 am   
    46   44   21 1    
    47   45   21 1    
    48   27   23 ar   
    49   46   23 1    
    50   25   24 1    
    51   27   26 ar   
    52   47   26 1    
    53   28   27 1    
    54   29   28 ar   
    55   31   28 ar   
    56   30   29 1    
    57   34   29 ar   
    58   48   30 1    
    59   49   30 1    
    60   32   31 1    
    61   33   31 ar   
    62   50   32 1    
    63   51   32 1    
    64   52   35 1    
    65   53   35 1    
@<TRIPOS>SUBSTRUCTURE
     1 UA4336      1 GROUP   
@<TRIPOS>SET

