#    Name: 2pun_ACP_2_INTS_M
#    Modification time : Mon Mar 24 19:23:19 2014

@<TRIPOS>MOLECULE
2pun_ACP_2_INTS_M
   59     0    15     0     0
SMALL
NO_CHARGES


@<TRIPOS>ATOM
      1 Zn        -72.5075  -27.1125   13.5355 Zn        4 ZIC7        0.0000 
      2 Zn        -73.4250  -27.6420   13.4640 Zn       14 ZIL7        0.0000 
      3 Zn        -71.5900  -26.5830   13.6070 Zn        9 ZIP7        0.0000 
      4 N         -68.9115  -28.8745   13.3800 N.am      2 SEC2        0.0000 
      5 N         -69.7180  -30.0590   13.7100 N.am     12 SEL2        0.0000 
      6 N         -68.1050  -27.6900   13.0500 N.am      7 SEP2        0.0000 
      7 NZ        -69.9825  -27.5285   15.9360 N.4       3 LYC4        0.0000 
      8 NZ        -70.8230  -28.1230   14.8690 N.4      13 LYL4        0.0000 
      9 NZ        -69.1420  -26.9340   17.0030 N.4       8 LYP4        0.0000 
     10 Zn        -71.2065  -27.3530   14.2380 Zn        4 ZIC7        0.0000 
     11 Zn        -70.8230  -28.1230   14.8690 Zn       14 ZIL7        0.0000 
     12 N         -69.9825  -27.5285   15.9360 N.am      2 SEC2        0.0000 
     13 N         -70.8230  -28.1230   14.8690 N.am     12 SEL2        0.0000 
     14 N         -69.1420  -26.9340   17.0030 N.am      7 SEP2        0.0000 
     15 NZ        -69.9610  -28.0550   17.6330 N.4       3 LYC4        0.0000 
     16 NZ        -70.7800  -29.1760   18.2630 N.4      13 LYL4        0.0000 
     17 N         -69.9610  -28.0550   17.6330 N.am      2 SEC2        0.0000 
     18 N         -70.7800  -29.1760   18.2630 N.am     12 SEL2        0.0000 
     19 CA        -69.1125  -32.5410   17.4975 C.3       5 GLC5        0.0000 
     20 CA        -71.2720  -32.8490   17.3140 C.3      15 GLL5        0.0000 
     21 CA        -66.9530  -32.2330   17.6810 C.3      10 GLP5        0.0000 
     22 CA        -74.3815  -33.4035   20.2605 C.3       5 GLC5        0.0000 
     23 CA        -72.4410  -33.8640   19.4040 C.3      15 GLL5        0.0000 
     24 CA        -76.3220  -32.9430   21.1170 C.3      10 GLP5        0.0000 
     25 O         -74.1235  -34.9965   17.5460 O.2       1 ALC1        0.0000 
     26 O         -73.7900  -34.1150   18.9590 O.2      11 ALL1        0.0000 
     27 O         -74.4570  -35.8780   16.1330 O.2       6 ALP1        0.0000 
     28 CA        -68.6850  -35.8685   20.3100 C.3       5 GLC5        0.0000 
     29 CA        -70.2980  -34.5390   20.3270 C.3      15 GLL5        0.0000 
     30 CA        -67.0720  -37.1980   20.2930 C.3      10 GLP5        0.0000 
     31 CA        -68.4235  -34.0055   20.0660 C.3       5 GLC5        0.0000 
     32 CA        -66.5490  -33.4720   19.8050 C.3      10 GLP5        0.0000 
     33 CA        -70.5195  -32.0455   26.0545 C.3       5 GLC5        0.0000 
     34 CA        -69.2470  -31.8550   24.3820 C.3      15 GLL5        0.0000 
     35 CA        -71.7920  -32.2360   27.7270 C.3      10 GLP5        0.0000 
     36 O         -68.2705  -30.4935   26.1590 O.2       1 ALC1        0.0000 
     37 O         -68.9910  -30.7240   24.9190 O.2      11 ALL1        0.0000 
     38 O         -67.5500  -30.2630   27.3990 O.2       6 ALP1        0.0000 
     39 N         -69.4020  -33.1040   26.5105 N.am      2 SEC2        0.0000 
     40 N         -69.2950  -33.0070   25.1640 N.am     12 SEL2        0.0000 
     41 N         -69.5090  -33.2010   27.8570 N.am      7 SEP2        0.0000 
     42 CA        -67.6890  -34.2500   24.2075 C.3       5 GLC5        0.0000 
     43 CA        -69.5700  -34.2780   24.6610 C.3      15 GLL5        0.0000 
     44 CA        -65.8080  -34.2220   23.7540 C.3      10 GLP5        0.0000 
     45 CA        -70.2435  -33.8445   26.4290 C.3       5 GLC5        0.0000 
     46 CA        -70.9170  -33.4110   28.1970 C.3      10 GLP5        0.0000 
     47 CA        -70.3455  -35.6415   25.7875 C.3       5 GLC5        0.0000 
     48 CA        -71.1210  -37.0050   26.9140 C.3      10 GLP5        0.0000 
     49 CA        -68.1550  -33.4415   21.1920 C.3       5 GLC5        0.0000 
     50 CA        -69.7610  -33.4110   22.5790 C.3      15 GLL5        0.0000 
     51 CA        -67.7845  -33.8165   23.1665 C.3       5 GLC5        0.0000 
     52 CA        -72.0027  -34.2492   16.2937 C.3       5 GLC5        0.0000 
     53 CA        -71.4450  -34.0400   18.2490 C.3      15 GLL5        0.0000 
     54 CA        -72.6470  -35.0540   14.8060 C.3      10 GLP5        0.0000 
     55 CA        -72.2011  -33.8569   21.7964 C.3       5 GLC5        0.0000 
     56 CA        -73.1860  -33.2780   23.4610 C.3      10 GLP5        0.0000 
     57 CA        -67.6360  -32.4808   24.1732 C.3       5 GLC5        0.0000 
     58 CA        -69.4910  -32.0860   22.9870 C.3      15 GLL5        0.0000 
     59 CA        -65.9030  -32.9910   24.6620 C.3      10 GLP5        0.0000 
@<TRIPOS>BOND
@<TRIPOS>SUBSTRUCTURE
     1 ALC1       25 GROUP        1 X    ALC  0     ROOT ALC X 1
     2 SEC2        4 GROUP        1 X    SEC  0     **** SEC X 2
     3 LYC4        7 GROUP        1 X    LYC  0     **** LYC X 4
     4 ZIC7        1 GROUP        1 X    ZIC  0     **** ZIC X 5
     5 GLC5       19 GROUP        1 X    GLC  0     **** GLC X 6
     6 ALP1       27 GROUP        1 Y    ALP  0     ROOT ALP Y 8
     7 SEP2        6 GROUP        1 Y    SEP  0     **** SEP Y 9
     8 LYP4        9 GROUP        1 Y    LYP  0     **** LYP Y 11
     9 ZIP7        3 GROUP        1 Y    ZIP  0     **** ZIP Y 12
    10 GLP5       21 GROUP        1 Y    GLP  0     **** GLP Y 13
    11 ALL1       26 GROUP        1 Z    ALL  0     ROOT ALL Z 15
    12 SEL2        5 GROUP        1 Z    SEL  0     **** SEL Z 16
    13 LYL4        8 GROUP        1 Z    LYL  0     **** LYL Z 18
    14 ZIL7        2 GROUP        1 Z    ZIL  0     **** ZIL Z 19
    15 GLL5       20 GROUP        1 Z    GLL  0     **** GLL Z 20
@<TRIPOS>SET

