#    Name: 2pun_ACP_2_ligand
#    Modification time : Mon Mar 24 19:23:19 2014

@<TRIPOS>MOLECULE
2pun_ACP_2_ligand
   45    47     1     0     0
SMALL
NO_CHARGES


@<TRIPOS>ATOM
      1 PG        -73.2530  -28.9970   12.8080 P.3       1 ACP999      0.0000 
      2 O1G       -72.7320  -28.9100   11.4090 O.co2     1 ACP999      0.0000 
      3 O2G       -73.4250  -27.6420   13.4640 O.co2     1 ACP999      0.0000 
      4 O3G       -74.6030  -29.7570   12.8800 O.co2     1 ACP999      0.0000 
      5 PB        -70.8440  -29.5980   14.5580 P.3       1 ACP999      0.0000 
      6 O1B       -69.7180  -30.0590   13.7100 O.co2     1 ACP999      0.0000 
      7 O2B       -70.8230  -28.1230   14.8690 O.co2     1 ACP999      0.0000 
      8 C3B       -72.2100  -29.9920   13.8960 C.3       1 ACP999      0.0000 
      9 PA        -71.4630  -30.1970   17.3670 P.3       1 ACP999      0.0000 
     10 O1A       -70.7800  -29.1760   18.2630 O.co2     1 ACP999      0.0000 
     11 O2A       -72.9370  -30.0080   17.2010 O.co2     1 ACP999      0.0000 
     12 O3A       -70.7000  -30.2630   16.0020 O.3       1 ACP999      0.0000 
     13 O5'       -71.1540  -31.5800   18.0650 O.3       1 ACP999      0.0000 
     14 C5'       -71.2720  -32.8490   17.3140 C.3       1 ACP999      0.0000 
     15 C4'       -71.4450  -34.0400   18.2490 C.3       1 ACP999      0.0000 
     16 O4'       -70.1790  -34.1670   18.9640 O.3       1 ACP999      0.0000 
     17 C3'       -72.4410  -33.8640   19.4040 C.3       1 ACP999      0.0000 
     18 O3'       -73.7900  -34.1150   18.9590 O.3       1 ACP999      0.0000 
     19 C2'       -71.8280  -34.8010   20.4690 C.3       1 ACP999      0.0000 
     20 O2'       -72.1640  -36.2080   20.3390 O.3       1 ACP999      0.0000 
     21 C1'       -70.2980  -34.5390   20.3270 C.3       1 ACP999      0.0000 
     22 N9        -69.9540  -33.3630   21.2270 N.pl3     1 ACP999      0.0000 
     23 C8        -69.8110  -32.0260   20.9030 C.2       1 ACP999      0.0000 
     24 N7        -69.5350  -31.2270   21.9440 N.2       1 ACP999      0.0000 
     25 C5        -69.4910  -32.0860   22.9870 C.ar      1 ACP999      0.0000 
     26 C6        -69.2470  -31.8550   24.3820 C.ar      1 ACP999      0.0000 
     27 N6        -68.9910  -30.7240   24.9190 N.pl3     1 ACP999      0.0000 
     28 N1        -69.2950  -33.0070   25.1640 N.ar      1 ACP999      0.0000 
     29 C2        -69.5700  -34.2780   24.6610 C.ar      1 ACP999      0.0000 
     30 N3        -69.8060  -34.5110   23.3570 N.ar      1 ACP999      0.0000 
     31 C4        -69.7610  -33.4110   22.5790 C.ar      1 ACP999      0.0000 
     32 H         -72.0927  -30.9550   13.2875 H         1 ACP999      0.0000 
     33 H         -72.9588  -30.3212   14.6975 H         1 ACP999      0.0000 
     34 H         -70.3753  -33.0139   16.7023 H         1 ACP999      0.0000 
     35 H         -72.1344  -32.8108   16.6355 H         1 ACP999      0.0000 
     36 H         -71.6468  -34.9218   17.7251 H         1 ACP999      0.0000 
     37 H         -72.2912  -32.8457   19.7573 H         1 ACP999      0.0000 
     38 H         -72.1044  -34.3946   21.4402 H         1 ACP999      0.0000 
     39 H         -69.7901  -35.3913   20.5848 H         1 ACP999      0.0000 
     40 H         -69.9097  -31.7023   19.9609 H         1 ACP999      0.0000 
     41 H         -68.9980  -29.9341   24.3058 H         1 ACP999      0.0000 
     42 H         -68.8077  -30.7350   25.9020 H         1 ACP999      0.0000 
     43 H         -69.5892  -35.0778   25.3488 H         1 ACP999      0.0000 
     44 H         -73.6899  -34.6282   18.1066 H         1 ACP999      0.0000 
     45 H         -71.9090  -36.6169   21.2152 H         1 ACP999      0.0000 
@<TRIPOS>BOND
     1    2    1 ar   
     2    3    1 ar   
     3    4    1 ar   
     4    8    1 1    
     5    6    5 ar   
     6    7    5 ar   
     7    8    5 1    
     8   12    5 1    
     9   32    8 1    
    10   33    8 1    
    11   10    9 ar   
    12   11    9 ar   
    13   12    9 1    
    14   13    9 1    
    15   14   13 1    
    16   15   14 1    
    17   34   14 1    
    18   35   14 1    
    19   16   15 1    
    20   17   15 1    
    21   36   15 1    
    22   21   16 1    
    23   18   17 1    
    24   19   17 1    
    25   37   17 1    
    26   44   18 1    
    27   20   19 1    
    28   21   19 1    
    29   38   19 1    
    30   45   20 1    
    31   22   21 1    
    32   39   21 1    
    33   23   22 1    
    34   31   22 1    
    35   24   23 2    
    36   40   23 1    
    37   25   24 1    
    38   26   25 ar   
    39   31   25 ar   
    40   27   26 1    
    41   28   26 ar   
    42   41   27 1    
    43   42   27 1    
    44   29   28 ar   
    45   30   29 ar   
    46   43   29 1    
    47   31   30 ar   
@<TRIPOS>SUBSTRUCTURE
     1 ACP999      1 GROUP   
@<TRIPOS>SET

