#    Name: 2hka_C3S_2_INTS_M
#    Modification time : Tue Mar 25 16:39:01 2014

@<TRIPOS>MOLECULE
2hka_C3S_2_INTS_M
   84     0     3     0     0
SMALL
NO_CHARGES


@<TRIPOS>ATOM
      1 CA        -16.6850  -42.4670   44.3815 C.3       1 GLC5        0.0000 
      2 CA        -18.1940  -41.2050   44.4270 C.3       3 GLL5        0.0000 
      3 CA        -15.1760  -43.7290   44.3360 C.3       2 GLP5        0.0000 
      4 CA        -17.9560  -42.3965   45.8595 C.3       1 GLC5        0.0000 
      5 CA        -17.7180  -43.5880   47.2920 C.3       2 GLP5        0.0000 
      6 CA        -16.1015  -38.4990   42.1880 C.3       1 GLC5        0.0000 
      7 CA        -17.1810  -39.7680   42.6700 C.3       3 GLL5        0.0000 
      8 CA        -15.0220  -37.2300   41.7060 C.3       2 GLP5        0.0000 
      9 CA        -23.2980  -37.1120   41.7180 C.3       1 GLC5        0.0000 
     10 CA        -21.3310  -37.7240   42.5220 C.3       3 GLL5        0.0000 
     11 CA        -25.2650  -36.5000   40.9140 C.3       2 GLP5        0.0000 
     12 CA        -19.2485  -34.0370   43.3220 C.3       1 GLC5        0.0000 
     13 CA        -20.9490  -35.3570   43.3120 C.3       3 GLL5        0.0000 
     14 CA        -17.5480  -32.7170   43.3320 C.3       2 GLP5        0.0000 
     15 CA        -24.1765  -36.5310   42.4470 C.3       1 GLC5        0.0000 
     16 CA        -23.0880  -36.5620   43.9800 C.3       3 GLL5        0.0000 
     17 CA        -24.9840  -37.6775   42.8830 C.3       1 GLC5        0.0000 
     18 CA        -23.7550  -37.9430   44.3930 C.3       3 GLL5        0.0000 
     19 CA        -26.2130  -37.4120   41.3730 C.3       2 GLP5        0.0000 
     20 CA        -24.5455  -35.3710   43.1310 C.3       1 GLC5        0.0000 
     21 CA        -23.6470  -35.6010   45.1190 C.3       3 GLL5        0.0000 
     22 CA        -25.4440  -35.1410   41.1430 C.3       2 GLP5        0.0000 
     23 CA        -25.1205  -34.3805   43.3440 C.3       1 GLC5        0.0000 
     24 CA        -23.6720  -34.0630   44.8610 C.3       3 GLL5        0.0000 
     25 CA        -26.5690  -34.6980   41.8270 C.3       2 GLP5        0.0000 
     26 CA        -23.3465  -32.5740   43.8995 C.3       1 GLC5        0.0000 
     27 CA        -23.0210  -31.0850   42.9380 C.3       2 GLP5        0.0000 
     28 CA        -23.5415  -35.8395   48.5925 C.3       1 GLC5        0.0000 
     29 CA        -22.8550  -35.8670   46.4710 C.3       3 GLL5        0.0000 
     30 CA        -24.2280  -35.8120   50.7140 C.3       2 GLP5        0.0000 
     31 CA        -22.6455  -38.0635   46.8520 C.3       1 GLC5        0.0000 
     32 CA        -22.4360  -40.2600   47.2330 C.3       2 GLP5        0.0000 
     33 CA        -21.5340  -36.2875   47.8375 C.3       1 GLC5        0.0000 
     34 CA        -20.2130  -36.7080   49.2040 C.3       2 GLP5        0.0000 
     35 CA        -21.9070  -34.4645   47.5280 C.3       1 GLC5        0.0000 
     36 CA        -20.9590  -33.0620   48.5850 C.3       2 GLP5        0.0000 
     37 CA        -26.3260  -38.5350   46.4810 C.3       1 GLC5        0.0000 
     38 CA        -25.0890  -37.6020   45.1490 C.3       3 GLL5        0.0000 
     39 CA        -27.5630  -39.4680   47.8130 C.3       2 GLP5        0.0000 
     40 CA        -26.2160  -37.2925   43.6050 C.3       1 GLC5        0.0000 
     41 CA        -27.3430  -36.9830   42.0610 C.3       2 GLP5        0.0000 
     42 CA        -27.5145  -37.6660   47.0410 C.3       1 GLC5        0.0000 
     43 CA        -27.4660  -35.8640   46.2690 C.3       3 GLL5        0.0000 
     44 CA        -27.4895  -35.7415   44.2760 C.3       1 GLC5        0.0000 
     45 CA        -27.5130  -35.6190   42.2830 C.3       2 GLP5        0.0000 
     46 CA        -26.2255  -34.2400   43.9525 C.3       1 GLC5        0.0000 
     47 CA        -25.8820  -33.7820   46.0780 C.3       3 GLL5        0.0000 
     48 CA        -23.4780  -31.8610   45.0585 C.3       1 GLC5        0.0000 
     49 CA        -24.3680  -33.2950   46.0330 C.3       3 GLL5        0.0000 
     50 CA        -22.5880  -30.4270   44.0840 C.3       2 GLP5        0.0000 
     51 CA        -22.6635  -33.1785   47.3090 C.3       1 GLC5        0.0000 
     52 CA        -27.1665  -34.3170   49.6885 C.3       1 GLC5        0.0000 
     53 CA        -25.9930  -33.0140   48.5780 C.3       3 GLL5        0.0000 
     54 CA        -28.3400  -35.6200   50.7990 C.3       2 GLP5        0.0000 
     55 CA        -25.0845  -32.5370   50.3220 C.3       1 GLC5        0.0000 
     56 CA        -24.1760  -32.0600   52.0660 C.3       2 GLP5        0.0000 
     57 CA        -25.1105  -34.4130   49.6460 C.3       1 GLC5        0.0000 
     58 CA        -30.3490  -35.4335   46.8015 C.3       1 GLC5        0.0000 
     59 CA        -28.4520  -34.9280   46.9490 C.3       3 GLL5        0.0000 
     60 CA        -32.2460  -35.9390   46.6540 C.3       2 GLP5        0.0000 
     61 CA        -25.8785  -30.5580   45.5660 C.3       1 GLC5        0.0000 
     62 CA        -26.9660  -31.5520   46.6960 C.3       3 GLL5        0.0000 
     63 CA        -24.7910  -29.5640   44.4360 C.3       2 GLP5        0.0000 
     64 CA        -15.9733  -40.5928   43.6765 C.3       1 GLC5        0.0000 
     65 CA        -14.2480  -41.4120   44.1100 C.3       2 GLP5        0.0000 
     66 CA        -18.6333  -37.9993   44.8563 C.3       1 GLC5        0.0000 
     67 CA        -18.2160  -39.7790   43.8160 C.3       3 GLL5        0.0000 
     68 CA        -18.3290  -36.3680   46.1370 C.3       2 GLP5        0.0000 
     69 CA        -17.6685  -41.4540   42.1719 C.3       1 GLC5        0.0000 
     70 CA        -17.6440  -42.7780   40.9480 C.3       2 GLP5        0.0000 
     71 CA        -21.4062  -38.0030   40.7665 C.3       1 GLC5        0.0000 
     72 CA        -19.9040  -38.2880   42.3600 C.3       3 GLL5        0.0000 
     73 CA        -22.1950  -38.0000   39.0920 C.3       2 GLP5        0.0000 
     74 CA        -21.0916  -40.0742   41.7489 C.3       1 GLC5        0.0000 
     75 CA        -21.6270  -41.8440   40.8130 C.3       2 GLP5        0.0000 
     76 CA        -19.7908  -36.2052   44.8233 C.3       1 GLC5        0.0000 
     77 CA        -21.5560  -36.7280   43.7070 C.3       3 GLL5        0.0000 
     78 CA        -23.4290  -39.0162   46.0020 C.3       1 GLC5        0.0000 
     79 CA        -26.5295  -35.6665   43.9862 C.3       1 GLC5        0.0000 
     80 CA        -25.1260  -36.0650   45.1090 C.3       3 GLL5        0.0000 
     81 CA        -28.4563  -34.8566   49.0596 C.3       1 GLC5        0.0000 
     82 CA        -28.1420  -33.6770   47.3560 C.3       3 GLL5        0.0000 
     83 CA        -26.4112  -29.6850   48.0140 C.3       1 GLC5        0.0000 
     84 CA        -25.4030  -28.2260   48.8500 C.3       2 GLP5        0.0000 
@<TRIPOS>BOND
@<TRIPOS>SUBSTRUCTURE
     1 GLC5        1 GROUP        1 X    GLC  0     ROOT GLC X 6
     2 GLP5        3 GROUP        1 Y    GLP  0     ROOT GLP Y 13
     3 GLL5        2 GROUP        1 Z    GLL  0     ROOT GLL Z 20
@<TRIPOS>SET

