#    Name: 2hka_C3S_2_ligand
#    Modification time : Tue Mar 25 16:39:01 2014

@<TRIPOS>MOLECULE
2hka_C3S_2_ligand
   77    80     1     0     0
SMALL
NO_CHARGES


@<TRIPOS>ATOM
      1 C65       -18.1940  -41.2050   44.4270 C.3       1 C3S401      0.0000 
      2 C63       -18.2160  -39.7790   43.8160 C.3       1 C3S401      0.0000 
      3 C69       -17.1810  -39.7680   42.6700 C.3       1 C3S401      0.0000 
      4 C60       -19.6590  -39.4820   43.3350 C.3       1 C3S401      0.0000 
      5 C57       -19.9040  -38.2880   42.3600 C.3       1 C3S401      0.0000 
      6 C54       -21.3310  -37.7240   42.5220 C.3       1 C3S401      0.0000 
      7 C48       -21.5560  -36.7280   43.7070 C.3       1 C3S401      0.0000 
      8 C50       -20.9490  -35.3570   43.3120 C.3       1 C3S401      0.0000 
      9 C38       -23.0880  -36.5620   43.9800 C.3       1 C3S401      0.0000 
     10 C35       -23.7550  -37.9430   44.3930 C.3       1 C3S401      0.0000 
     11 C29       -23.6470  -35.6010   45.1190 C.3       1 C3S401      0.0000 
     12 C26       -23.6720  -34.0630   44.8610 C.3       1 C3S401      0.0000 
     13 C40       -22.8550  -35.8670   46.4710 C.3       1 C3S401      0.0000 
     14 C30       -25.1260  -36.0650   45.1090 C.3       1 C3S401      0.0000 
     15 C32       -25.0890  -37.6020   45.1490 C.3       1 C3S401      0.0000 
     16 C18       -25.9660  -35.3630   46.2700 C.3       1 C3S401      0.0000 
     17 C15       -27.4660  -35.8640   46.2690 C.3       1 C3S401      0.0000 
     18 C20       -25.8820  -33.7820   46.0780 C.3       1 C3S401      0.0000 
     19 C23       -24.3680  -33.2950   46.0330 C.3       1 C3S401      0.0000 
     20 C22       -26.7380  -33.0260   47.1870 C.3       1 C3S401      0.0000 
     21 C44       -25.9930  -33.0140   48.5780 C.3       1 C3S401      0.0000 
     22 C12       -28.1420  -33.6770   47.3560 C.2       1 C3S401      0.0000 
     23 C9        -29.2440  -32.8400   48.0270 C.3       1 C3S401      0.0000 
     24 C13       -28.4520  -34.9280   46.9490 C.2       1 C3S401      0.0000 
     25 C1        -26.9660  -31.5520   46.6960 C.3       1 C3S401      0.0000 
     26 C4        -27.8730  -30.7360   47.6600 C.3       1 C3S401      0.0000 
     27 C7        -29.2860  -31.3600   47.5780 C.3       1 C3S401      0.0000 
     28 O6        -30.2370  -30.7680   48.4730 O.3       1 C3S401      0.0000 
     29 S1        -31.6030  -30.3230   48.0000 S.o2      1 C3S401      0.0000 
     30 O3        -32.3430  -29.7710   49.1390 O.co2     1 C3S401      0.0000 
     31 O2        -32.3140  -31.4180   47.3710 O.co2     1 C3S401      0.0000 
     32 O4        -31.3430  -29.2610   47.0020 O.co2     1 C3S401      0.0000 
     33 H         -17.9318  -39.0905   44.5670 H         1 C3S401      0.0000 
     34 H         -20.3051  -39.3269   44.2370 H         1 C3S401      0.0000 
     35 H         -20.0663  -40.4078   42.8533 H         1 C3S401      0.0000 
     36 H         -19.7678  -38.6368   41.3422 H         1 C3S401      0.0000 
     37 H         -19.1818  -37.5086   42.5766 H         1 C3S401      0.0000 
     38 H         -22.0380  -38.5684   42.6449 H         1 C3S401      0.0000 
     39 H         -21.6222  -37.2117   41.5836 H         1 C3S401      0.0000 
     40 H         -21.0777  -37.0946   44.5691 H         1 C3S401      0.0000 
     41 H         -23.6136  -36.2852   43.0546 H         1 C3S401      0.0000 
     42 H         -23.0977  -38.4570   45.0494 H         1 C3S401      0.0000 
     43 H         -23.9779  -38.4917   43.5119 H         1 C3S401      0.0000 
     44 H         -24.2153  -33.8674   43.9432 H         1 C3S401      0.0000 
     45 H         -22.6533  -33.7044   44.7639 H         1 C3S401      0.0000 
     46 H         -25.5462  -35.7571   44.1530 H         1 C3S401      0.0000 
     47 H         -25.0132  -37.9384   46.1422 H         1 C3S401      0.0000 
     48 H         -25.8982  -37.9996   44.6082 H         1 C3S401      0.0000 
     49 H         -25.5118  -35.6100   47.2034 H         1 C3S401      0.0000 
     50 H         -27.4855  -36.8495   46.7608 H         1 C3S401      0.0000 
     51 H         -27.7614  -36.0203   45.2193 H         1 C3S401      0.0000 
     52 H         -26.3283  -33.5560   45.1083 H         1 C3S401      0.0000 
     53 H         -24.3536  -32.2514   45.8349 H         1 C3S401      0.0000 
     54 H         -23.9027  -33.5497   46.9535 H         1 C3S401      0.0000 
     55 H         -29.1022  -32.8716   49.1186 H         1 C3S401      0.0000 
     56 H         -30.2218  -33.2993   47.8134 H         1 C3S401      0.0000 
     57 H         -29.4031  -35.3370   47.0779 H         1 C3S401      0.0000 
     58 H         -27.4293  -31.5833   45.7114 H         1 C3S401      0.0000 
     59 H         -25.9979  -31.0607   46.6157 H         1 C3S401      0.0000 
     60 H         -27.9109  -29.7214   47.3326 H         1 C3S401      0.0000 
     61 H         -27.4996  -30.8267   48.6552 H         1 C3S401      0.0000 
     62 H         -29.6315  -31.3476   46.5694 H         1 C3S401      0.0000 
     63 H         -17.2914  -41.4409   44.7870 H         1 C3S401      0.0000 
     64 H         -18.8435  -41.2956   45.1819 H         1 C3S401      0.0000 
     65 H         -18.4313  -41.9025   43.7508 H         1 C3S401      0.0000 
     66 H         -16.2610  -39.9821   42.9984 H         1 C3S401      0.0000 
     67 H         -17.4032  -40.4388   41.9624 H         1 C3S401      0.0000 
     68 H         -17.1320  -38.8751   42.2224 H         1 C3S401      0.0000 
     69 H         -19.9679  -35.4237   43.1305 H         1 C3S401      0.0000 
     70 H         -21.3751  -34.9860   42.4869 H         1 C3S401      0.0000 
     71 H         -21.0678  -34.6762   44.0347 H         1 C3S401      0.0000 
     72 H         -21.8751  -35.6965   46.3671 H         1 C3S401      0.0000 
     73 H         -23.1778  -35.2787   47.2124 H         1 C3S401      0.0000 
     74 H         -22.9568  -36.8122   46.7813 H         1 C3S401      0.0000 
     75 H         -25.1070  -32.5538   48.5208 H         1 C3S401      0.0000 
     76 H         -26.5247  -32.5402   49.2800 H         1 C3S401      0.0000 
     77 H         -25.8213  -33.9396   48.9153 H         1 C3S401      0.0000 
@<TRIPOS>BOND
     1    2    1 1    
     2   63    1 1    
     3   64    1 1    
     4   65    1 1    
     5    3    2 1    
     6    4    2 1    
     7   33    2 1    
     8   66    3 1    
     9   67    3 1    
    10   68    3 1    
    11    5    4 1    
    12   34    4 1    
    13   35    4 1    
    14    6    5 1    
    15   36    5 1    
    16   37    5 1    
    17    7    6 1    
    18   38    6 1    
    19   39    6 1    
    20    8    7 1    
    21    9    7 1    
    22   40    7 1    
    23   69    8 1    
    24   70    8 1    
    25   71    8 1    
    26   10    9 1    
    27   11    9 1    
    28   41    9 1    
    29   15   10 1    
    30   42   10 1    
    31   43   10 1    
    32   12   11 1    
    33   13   11 1    
    34   14   11 1    
    35   19   12 1    
    36   44   12 1    
    37   45   12 1    
    38   72   13 1    
    39   73   13 1    
    40   74   13 1    
    41   15   14 1    
    42   16   14 1    
    43   46   14 1    
    44   47   15 1    
    45   48   15 1    
    46   17   16 1    
    47   18   16 1    
    48   49   16 1    
    49   24   17 1    
    50   50   17 1    
    51   51   17 1    
    52   19   18 1    
    53   20   18 1    
    54   52   18 1    
    55   53   19 1    
    56   54   19 1    
    57   21   20 1    
    58   22   20 1    
    59   25   20 1    
    60   75   21 1    
    61   76   21 1    
    62   77   21 1    
    63   23   22 1    
    64   24   22 2    
    65   27   23 1    
    66   55   23 1    
    67   56   23 1    
    68   57   24 1    
    69   26   25 1    
    70   58   25 1    
    71   59   25 1    
    72   27   26 1    
    73   60   26 1    
    74   61   26 1    
    75   28   27 1    
    76   62   27 1    
    77   29   28 1    
    78   30   29 ar   
    79   31   29 ar   
    80   32   29 ar   
@<TRIPOS>SUBSTRUCTURE
     1 C3S401      1 GROUP   
@<TRIPOS>SET

