#    Name: 3sha_P97_1_INTS_M
#    Modification time : Tue Mar 25 12:37:34 2014

@<TRIPOS>MOLECULE
3sha_P97_1_INTS_M
   58     0     9     0     0
SMALL
NO_CHARGES


@<TRIPOS>ATOM
      1 O         -15.6310  -14.5150  -23.9275 O.2       1 ALC1        0.0000 
      2 O         -16.4730  -15.2100  -23.0850 O.2       7 ALL1        0.0000 
      3 O         -14.7890  -13.8200  -24.7700 O.2       4 ALP1        0.0000 
      4 N         -15.6790  -11.8350  -23.9215 N.am      2 SEC2        0.0000 
      5 N         -16.5920  -12.4510  -22.8500 N.am      8 SEL2        0.0000 
      6 N         -14.7660  -11.2190  -24.9930 N.am      5 SEP2        0.0000 
      7 CA        -17.7805  -13.0025  -26.0810 C.3       3 GLC5        0.0000 
      8 CA        -18.2930  -14.4790  -24.5010 C.3       9 GLL5        0.0000 
      9 CA        -17.2680  -11.5260  -27.6610 C.3       6 GLP5        0.0000 
     10 CA        -21.0295  -10.6870  -24.0445 C.3       3 GLC5        0.0000 
     11 CA        -21.2770  -12.2680  -25.3650 C.3       9 GLL5        0.0000 
     12 CA        -20.7820   -9.1060  -22.7240 C.3       6 GLP5        0.0000 
     13 CA        -22.7875  -11.2565  -23.6060 C.3       3 GLC5        0.0000 
     14 CA        -22.3340  -12.9260  -24.7400 C.3       9 GLL5        0.0000 
     15 CA        -23.2410   -9.5870  -22.4720 C.3       6 GLP5        0.0000 
     16 CA        -17.8610  -10.7025  -22.8440 C.3       3 GLC5        0.0000 
     17 CA        -18.1560  -11.3840  -20.9760 C.3       9 GLL5        0.0000 
     18 CA        -17.5660  -10.0210  -24.7120 C.3       6 GLP5        0.0000 
     19 O         -16.6200   -9.1665  -21.3515 O.2       1 ALC1        0.0000 
     20 O         -16.0440  -10.2740  -20.5320 O.2       7 ALL1        0.0000 
     21 O         -17.1960   -8.0590  -22.1710 O.2       4 ALP1        0.0000 
     22 CA        -15.0930   -8.4285  -18.6230 C.3       3 GLC5        0.0000 
     23 CA        -14.7080  -10.1080  -19.9520 C.3       9 GLL5        0.0000 
     24 CA        -15.4780   -6.7490  -17.2940 C.3       6 GLP5        0.0000 
     25 CA        -10.2160  -13.0765  -21.5690 C.3       3 GLC5        0.0000 
     26 CA        -11.7800  -12.3770  -22.0650 C.3       9 GLL5        0.0000 
     27 CA         -8.6520  -13.7760  -21.0730 C.3       6 GLP5        0.0000 
     28 CA        -11.3685   -7.8070  -22.2235 C.3       3 GLC5        0.0000 
     29 CA        -13.3970   -8.7080  -22.3060 C.3       9 GLL5        0.0000 
     30 CA         -9.3400   -6.9060  -22.1410 C.3       6 GLP5        0.0000 
     31 CA        -13.0335   -7.1155  -21.8025 C.3       3 GLC5        0.0000 
     32 CA        -12.6700   -5.5230  -21.2990 C.3       6 GLP5        0.0000 
     33 CA        -19.3637  -14.4047  -26.4670 C.3       3 GLC5        0.0000 
     34 CA        -19.7260  -14.5970  -28.4010 C.3       6 GLP5        0.0000 
     35 CA        -20.1795  -13.5638  -26.8622 C.3       3 GLC5        0.0000 
     36 CA        -19.9890  -12.7930  -25.2820 C.3       9 GLL5        0.0000 
     37 CA        -23.0763  -11.7710  -26.2697 C.3       3 GLC5        0.0000 
     38 CA        -24.3470  -10.9450  -27.4870 C.3       6 GLP5        0.0000 
     39 CA        -19.0646  -11.4199  -24.9281 C.3       3 GLC5        0.0000 
     40 CA        -19.0300   -9.8087  -19.2400 C.3       3 GLC5        0.0000 
     41 CA        -19.3400   -8.3240  -18.0100 C.3       6 GLP5        0.0000 
     42 CA        -21.7550  -13.1280  -20.1820 C.3       3 GLC5        0.0000 
     43 CA        -20.3080  -12.2870  -20.2840 C.3       9 GLL5        0.0000 
     44 CA        -23.5850  -13.4150  -19.7240 C.3       6 GLP5        0.0000 
     45 CA        -20.1480  -10.4481  -21.5505 C.3       3 GLC5        0.0000 
     46 CA        -19.1870  -13.4510  -18.9990 C.3       3 GLC5        0.0000 
     47 CA        -19.2840  -11.2030  -19.9640 C.3       9 GLL5        0.0000 
     48 CA        -18.7050  -14.3320  -17.4380 C.3       6 GLP5        0.0000 
     49 CA        -12.4062  -11.5562  -18.7425 C.3       3 GLC5        0.0000 
     50 CA        -13.3470  -12.2020  -20.3320 C.3       9 GLL5        0.0000 
     51 CA        -11.3050  -11.5610  -16.9640 C.3       6 GLP5        0.0000 
     52 CA        -10.7220  -10.8189  -20.9271 C.3       3 GLC5        0.0000 
     53 CA         -8.9810  -10.5920  -19.8260 C.3       6 GLP5        0.0000 
     54 CA        -14.7052   -9.4848  -23.1695 C.3       3 GLC5        0.0000 
     55 CA        -13.0080  -10.3610  -21.7820 C.3       9 GLL5        0.0000 
     56 CA        -16.2080   -9.4350  -24.2950 C.3       6 GLP5        0.0000 
     57 CA        -13.1365  -11.4804  -23.9256 C.3       3 GLC5        0.0000 
     58 CA        -13.8100  -11.9150  -25.8230 C.3       6 GLP5        0.0000 
@<TRIPOS>BOND
@<TRIPOS>SUBSTRUCTURE
     1 ALC1        1 GROUP        1 X    ALC  0     ROOT ALC X 1
     2 SEC2        4 GROUP        1 X    SEC  0     **** SEC X 2
     3 GLC5        7 GROUP        1 X    GLC  0     **** GLC X 6
     4 ALP1        3 GROUP        1 Y    ALP  0     ROOT ALP Y 8
     5 SEP2        6 GROUP        1 Y    SEP  0     **** SEP Y 9
     6 GLP5        9 GROUP        1 Y    GLP  0     **** GLP Y 13
     7 ALL1        2 GROUP        1 Z    ALL  0     ROOT ALL Z 15
     8 SEL2        5 GROUP        1 Z    SEL  0     **** SEL Z 16
     9 GLL5        8 GROUP        1 Z    GLL  0     **** GLL Z 20
@<TRIPOS>SET

