#    Name: 3sha_P97_1_ligand
#    Modification time : Tue Mar 25 12:37:34 2014

@<TRIPOS>MOLECULE
3sha_P97_1_ligand
   51    53     1     0     0
SMALL
NO_CHARGES


@<TRIPOS>ATOM
      1 N4        -16.4730  -15.2100  -23.0850 N.4       1 P971        0.0000 
      2 C3        -17.7530  -14.5200  -23.0690 C.3       1 P971        0.0000 
      3 C5        -17.5340  -13.1460  -22.4830 C.2       1 P971        0.0000 
      4 O7        -16.5920  -12.4510  -22.8500 O.2       1 P971        0.0000 
      5 C2        -18.2930  -14.4790  -24.5010 C.3       1 P971        0.0000 
      6 C1        -19.7100  -13.9460  -24.5650 C.ar      1 P971        0.0000 
      7 C8        -20.7670  -14.6060  -23.9410 C.ar      1 P971        0.0000 
      8 C12       -19.9890  -12.7930  -25.2820 C.ar      1 P971        0.0000 
      9 C9        -22.0590  -14.0890  -24.0320 C.ar      1 P971        0.0000 
     10 C11       -21.2770  -12.2680  -25.3650 C.ar      1 P971        0.0000 
     11 C10       -22.3340  -12.9260  -24.7400 C.ar      1 P971        0.0000 
     12 N6        -18.3800  -12.7030  -21.5680 N.am      1 P971        0.0000 
     13 C13       -18.1560  -11.3840  -20.9760 C.3       1 P971        0.0000 
     14 C14       -16.8050  -11.3500  -20.3040 C.2       1 P971        0.0000 
     15 O15       -16.4070  -12.2900  -19.6140 O.2       1 P971        0.0000 
     16 C19       -19.2840  -11.2030  -19.9640 C.3       1 P971        0.0000 
     17 C20       -20.3080  -12.2870  -20.2840 C.3       1 P971        0.0000 
     18 C21       -19.5420  -13.3950  -20.9960 C.3       1 P971        0.0000 
     19 N16       -16.0440  -10.2740  -20.5320 N.am      1 P971        0.0000 
     20 C17       -14.7080  -10.1080  -19.9520 C.3       1 P971        0.0000 
     21 C18       -13.6680  -10.9010  -20.7100 C.ar      1 P971        0.0000 
     22 C22       -13.3470  -12.2020  -20.3320 C.ar      1 P971        0.0000 
     23 N23       -12.4230  -12.8960  -21.0100 N.ar      1 P971        0.0000 
     24 C24       -11.7800  -12.3770  -22.0650 C.ar      1 P971        0.0000 
     25 C25       -12.0560  -11.0840  -22.4840 C.ar      1 P971        0.0000 
     26 C26       -13.0080  -10.3610  -21.7820 C.ar      1 P971        0.0000 
     27 CL27      -13.3970   -8.7080  -22.3060 Cl        1 P971        0.0000 
     28 H         -18.4503  -15.0619  -22.4533 H         1 P971        0.0000 
     29 H         -18.2646  -15.4917  -24.9190 H         1 P971        0.0000 
     30 H         -17.6368  -13.8455  -25.1086 H         1 P971        0.0000 
     31 H         -20.5954  -15.4705  -23.4156 H         1 P971        0.0000 
     32 H         -19.2132  -12.3011  -25.7756 H         1 P971        0.0000 
     33 H         -22.8368  -14.5899  -23.5556 H         1 P971        0.0000 
     34 H         -21.4463  -11.3999  -25.8846 H         1 P971        0.0000 
     35 H         -23.2811  -12.5630  -24.8016 H         1 P971        0.0000 
     36 H         -18.2293  -10.6273  -21.7130 H         1 P971        0.0000 
     37 H         -19.7282  -10.2390  -20.0887 H         1 P971        0.0000 
     38 H         -18.9060  -11.3447  -18.9745 H         1 P971        0.0000 
     39 H         -21.0596  -11.8916  -20.9350 H         1 P971        0.0000 
     40 H         -20.7284  -12.6648  -19.3754 H         1 P971        0.0000 
     41 H         -19.2425  -14.1268  -20.2788 H         1 P971        0.0000 
     42 H         -20.1609  -13.8095  -21.7606 H         1 P971        0.0000 
     43 H         -16.3677   -9.4883  -21.1424 H         1 P971        0.0000 
     44 H         -14.7024  -10.4371  -18.9012 H         1 P971        0.0000 
     45 H         -14.4149   -9.0466  -19.9614 H         1 P971        0.0000 
     46 H         -13.8400  -12.6162  -19.5162 H         1 P971        0.0000 
     47 H         -11.0688  -12.9280  -22.5848 H         1 P971        0.0000 
     48 H         -11.5747  -10.6790  -23.2817 H         1 P971        0.0000 
     49 H         -15.7955  -14.7232  -23.6364 H         1 P971        0.0000 
     50 H         -16.0902  -15.3039  -22.1660 H         1 P971        0.0000 
     51 H         -16.5526  -16.1316  -23.4650 H         1 P971        0.0000 
@<TRIPOS>BOND
     1    2    1 1    
     2   49    1 1    
     3   50    1 1    
     4   51    1 1    
     5    3    2 1    
     6    5    2 1    
     7   28    2 1    
     8    4    3 2    
     9   12    3 am   
    10    6    5 1    
    11   29    5 1    
    12   30    5 1    
    13    7    6 ar   
    14    8    6 ar   
    15    9    7 ar   
    16   31    7 1    
    17   10    8 ar   
    18   32    8 1    
    19   11    9 ar   
    20   33    9 1    
    21   11   10 ar   
    22   34   10 1    
    23   35   11 1    
    24   13   12 1    
    25   18   12 1    
    26   14   13 1    
    27   16   13 1    
    28   36   13 1    
    29   15   14 2    
    30   19   14 am   
    31   17   16 1    
    32   37   16 1    
    33   38   16 1    
    34   18   17 1    
    35   39   17 1    
    36   40   17 1    
    37   41   18 1    
    38   42   18 1    
    39   20   19 1    
    40   43   19 1    
    41   21   20 1    
    42   44   20 1    
    43   45   20 1    
    44   22   21 ar   
    45   26   21 ar   
    46   23   22 ar   
    47   46   22 1    
    48   24   23 ar   
    49   25   24 ar   
    50   47   24 1    
    51   26   25 ar   
    52   48   25 1    
    53   27   26 1    
@<TRIPOS>SUBSTRUCTURE
     1 P971        1 GROUP   
@<TRIPOS>SET

