#    Name: 4hfr_14M_1_INTS_M
#    Modification time : Tue Mar 25 00:58:55 2014

@<TRIPOS>MOLECULE
4hfr_14M_1_INTS_M
   71     0     6     0     0
SMALL
NO_CHARGES


@<TRIPOS>ATOM
      1 CA        -11.5255   53.7145    8.3810 C.3       2 GLC5        0.0000 
      2 CA        -12.0660   54.6730   10.1500 C.3       6 GLL5        0.0000 
      3 CA        -10.9850   52.7560    6.6120 C.3       4 GLP5        0.0000 
      4 CA        -10.4100   53.1720    8.3615 C.3       2 GLC5        0.0000 
      5 CA         -9.8350   53.5880   10.1110 C.3       6 GLL5        0.0000 
      6 CA        -11.2360   55.5640   15.4505 C.3       2 GLC5        0.0000 
      7 CA         -9.8430   56.2030   14.0280 C.3       6 GLL5        0.0000 
      8 CA        -12.6290   54.9250   16.8730 C.3       4 GLP5        0.0000 
      9 CA         -5.4855   59.6740   17.6615 C.3       2 GLC5        0.0000 
     10 CA         -5.2890   59.6580   15.7690 C.3       6 GLL5        0.0000 
     11 CA         -5.6820   59.6900   19.5540 C.3       4 GLP5        0.0000 
     12 CA         -3.0375   57.4275   16.1910 C.3       2 GLC5        0.0000 
     13 CA         -3.8230   59.2430   15.6750 C.3       6 GLL5        0.0000 
     14 CA         -2.2520   55.6120   16.7070 C.3       4 GLP5        0.0000 
     15 CA         -4.7250   58.7790   17.5190 C.3       2 GLC5        0.0000 
     16 CA         -5.6270   58.3150   19.3630 C.3       4 GLP5        0.0000 
     17 CA         -3.7885   60.3120   18.2655 C.3       2 GLC5        0.0000 
     18 CA         -2.9290   60.2820   16.3270 C.3       6 GLL5        0.0000 
     19 CA         -4.6480   60.3420   20.2040 C.3       4 GLP5        0.0000 
     20 CA         -7.3155   61.6955   15.3165 C.3       2 GLC5        0.0000 
     21 CA         -5.5940   61.0540   15.2300 C.3       6 GLL5        0.0000 
     22 CA         -9.0370   62.3370   15.4030 C.3       4 GLP5        0.0000 
     23 CA         -5.4305   52.5490   15.0050 C.3       2 GLC5        0.0000 
     24 CA         -5.0440   54.2770   14.2970 C.3       6 GLL5        0.0000 
     25 CA         -5.8170   50.8210   15.7130 C.3       4 GLP5        0.0000 
     26 CA         -4.2815   53.9305   15.9270 C.3       2 GLC5        0.0000 
     27 CA         -3.5190   53.5840   17.5570 C.3       4 GLP5        0.0000 
     28 CA         -5.0050   51.8365   14.0865 C.3       2 GLC5        0.0000 
     29 CA         -4.1930   52.8520   12.4600 C.3       6 GLL5        0.0000 
     30 CA         -4.8875   51.6940   11.0445 C.3       2 GLC5        0.0000 
     31 CA         -5.5820   50.5360    9.6290 C.3       4 GLP5        0.0000 
     32 CA         -3.8210   55.8050   15.7110 C.3       2 GLC5        0.0000 
     33 CA         -5.3900   55.9980   14.7150 C.3       6 GLL5        0.0000 
     34 N         -12.2265   57.8245   11.6400 N.am      1 SEC2        0.0000 
     35 N         -12.8460   56.8080   11.0190 N.am      5 SEL2        0.0000 
     36 N         -11.6070   58.8410   12.2610 N.am      3 SEP2        0.0000 
     37 N          -8.7265   58.1585   17.4920 N.am      1 SEC2        0.0000 
     38 N          -7.8570   58.7930   16.6960 N.am      5 SEL2        0.0000 
     39 N          -9.5960   57.5240   18.2880 N.am      3 SEP2        0.0000 
     40 N          -7.3085   59.5935   17.8900 N.am      1 SEC2        0.0000 
     41 N          -6.7600   60.3940   19.0840 N.am      3 SEP2        0.0000 
     42 CA        -12.4005   54.1405   13.6235 C.3       2 GLC5        0.0000 
     43 CA        -10.9090   54.2360   12.3150 C.3       6 GLL5        0.0000 
     44 CA        -13.8920   54.0450   14.9320 C.3       4 GLP5        0.0000 
     45 CA        -10.4610   52.8905   13.6745 C.3       2 GLC5        0.0000 
     46 CA        -10.0130   51.5450   15.0340 C.3       4 GLP5        0.0000 
     47 CA         -9.3200   52.3330   13.6340 C.3       2 GLC5        0.0000 
     48 CA         -8.6270   53.1210   12.2340 C.3       6 GLL5        0.0000 
     49 CA         -5.1930   60.8750   17.7405 C.3       2 GLC5        0.0000 
     50 CA         -4.7040   62.0600   15.9270 C.3       6 GLL5        0.0000 
     51 CA         -6.8000   62.6100   16.2175 C.3       2 GLC5        0.0000 
     52 CA         -8.8960   63.1600   16.5080 C.3       4 GLP5        0.0000 
     53 CA         -7.5435   55.8113   16.6882 C.3       2 GLC5        0.0000 
     54 CA         -7.9230   57.1850   14.9750 C.3       6 GLL5        0.0000 
     55 CA         -7.5450   54.9700   18.6330 C.3       4 GLP5        0.0000 
     56 CA        -11.4040   57.4595   14.1768 C.3       2 GLC5        0.0000 
     57 CA         -9.2850   57.2290   14.7490 C.3       6 GLL5        0.0000 
     58 CA        -13.2440   58.2030   13.9650 C.3       4 GLP5        0.0000 
     59 CA         -2.1190   58.4982   14.8740 C.3       2 GLC5        0.0000 
     60 CA         -0.8620   57.2340   13.7470 C.3       4 GLP5        0.0000 
     61 CA         -2.9590   54.4035   12.6576 C.3       2 GLC5        0.0000 
     62 CA         -1.3660   55.2600   12.3090 C.3       4 GLP5        0.0000 
     63 CA         -7.8942   51.7692   10.6040 C.3       2 GLC5        0.0000 
     64 CA         -6.8980   50.2230    9.8760 C.3       4 GLP5        0.0000 
     65 CA         -8.7957   55.7251    9.9880 C.3       2 GLC5        0.0000 
     66 CA         -8.4730   53.4320   10.7490 C.3       6 GLL5        0.0000 
     67 CA         -8.2080   57.6990    9.3610 C.3       4 GLP5        0.0000 
     68 CA         -3.9552   63.1232   17.4698 C.3       2 GLC5        0.0000 
     69 CA         -3.9430   64.3820   19.0880 C.3       4 GLP5        0.0000 
     70 CA         -8.1238   57.7722   13.0419 C.3       2 GLC5        0.0000 
     71 CA         -7.7960   58.9890   11.5750 C.3       4 GLP5        0.0000 
@<TRIPOS>BOND
@<TRIPOS>SUBSTRUCTURE
     1 SEC2       34 GROUP        1 X    SEC  0     ROOT SEC X 2
     2 GLC5        1 GROUP        1 X    GLC  0     **** GLC X 6
     3 SEP2       36 GROUP        1 Y    SEP  0     ROOT SEP Y 9
     4 GLP5        3 GROUP        1 Y    GLP  0     **** GLP Y 13
     5 SEL2       35 GROUP        1 Z    SEL  0     ROOT SEL Z 16
     6 GLL5        2 GROUP        1 Z    GLL  0     **** GLL Z 20
@<TRIPOS>SET

