#    Name: 4hfr_14M_1_ligand
#    Modification time : Tue Mar 25 00:58:55 2014

@<TRIPOS>MOLECULE
4hfr_14M_1_ligand
   61    63     1     0     0
SMALL
NO_CHARGES


@<TRIPOS>ATOM
      1 C1        -12.9740   55.6040   10.8690 C.2       1 14M302      0.0000 
      2 C2        -12.0660   54.6730   10.1500 C.3       1 14M302      0.0000 
      3 C3        -10.7530   54.5530   10.8510 C.3       1 14M302      0.0000 
      4 C7         -9.8350   53.5880   10.1110 C.3       1 14M302      0.0000 
      5 C8         -9.0320   55.1730   13.5710 C.ar      1 14M302      0.0000 
      6 C9         -7.1610   56.1200   14.5120 C.ar      1 14M302      0.0000 
      7 C10        -7.9230   57.1850   14.9750 C.ar      1 14M302      0.0000 
      8 C11        -9.2850   57.2290   14.7490 C.ar      1 14M302      0.0000 
      9 C12        -9.8430   56.2030   14.0280 C.ar      1 14M302      0.0000 
     10 C13        -7.3130   58.3000   15.7110 C.2       1 14M302      0.0000 
     11 C14        -5.2890   59.6580   15.7690 C.3       1 14M302      0.0000 
     12 C15        -3.8230   59.2430   15.6750 C.3       1 14M302      0.0000 
     13 C16        -2.9290   60.2820   16.3270 C.3       1 14M302      0.0000 
     14 C19        -5.5940   61.0540   15.2300 C.3       1 14M302      0.0000 
     15 C20        -5.0440   54.2770   14.2970 C.3       1 14M302      0.0000 
     16 C21        -4.7780   54.2070   12.8080 C.3       1 14M302      0.0000 
     17 C22        -4.1930   52.8520   12.4600 C.3       1 14M302      0.0000 
     18 S1         -5.3900   55.9980   14.7150 S.3       1 14M302      0.0000 
     19 O1        -12.8460   56.8080   11.0190 O.co2     1 14M302      0.0000 
     20 O2        -14.0300   54.8980   11.2970 O.co2     1 14M302      0.0000 
     21 O3         -7.8570   58.7930   16.6960 O.2       1 14M302      0.0000 
     22 N1         -9.5540   54.1050   12.8070 N.3       1 14M302      0.0000 
     23 N2         -7.7270   55.1130   13.8430 N.ar      1 14M302      0.0000 
     24 N3         -6.1320   58.6900   15.1370 N.am      1 14M302      0.0000 
     25 C4        -10.9090   54.2360   12.3150 C.3       1 14M302      0.0000 
     26 C5         -8.6270   53.1210   12.2340 C.3       1 14M302      0.0000 
     27 C6         -8.4730   53.4320   10.7490 C.3       1 14M302      0.0000 
     28 C17        -3.2310   61.6690   15.7760 C.3       1 14M302      0.0000 
     29 C18        -4.7040   62.0600   15.9270 C.3       1 14M302      0.0000 
     30 H         -11.9008   55.0346    9.1260 H         1 14M302      0.0000 
     31 H         -12.5334   53.6815   10.0792 H         1 14M302      0.0000 
     32 H         -10.2605   55.5624   10.7842 H         1 14M302      0.0000 
     33 H          -9.7119   53.9405    9.0724 H         1 14M302      0.0000 
     34 H         -10.3263   52.6012   10.0566 H         1 14M302      0.0000 
     35 H          -9.8497   57.9949   15.1053 H         1 14M302      0.0000 
     36 H         -10.8497   56.1908   13.8248 H         1 14M302      0.0000 
     37 H          -5.5433   59.6800   16.8600 H         1 14M302      0.0000 
     38 H          -3.5489   59.1342   14.6263 H         1 14M302      0.0000 
     39 H          -3.6903   58.2842   16.1747 H         1 14M302      0.0000 
     40 H          -1.8858   60.0371   16.1312 H         1 14M302      0.0000 
     41 H          -3.0952   60.2792   17.4035 H         1 14M302      0.0000 
     42 H          -6.6338   61.2905   15.4210 H         1 14M302      0.0000 
     43 H          -5.4041   61.0737   14.1637 H         1 14M302      0.0000 
     44 H          -4.2020   54.0618   14.8943 H         1 14M302      0.0000 
     45 H          -5.9274   53.7867   14.5990 H         1 14M302      0.0000 
     46 H          -4.0759   54.9868   12.5275 H         1 14M302      0.0000 
     47 H          -5.7084   54.3492   12.2658 H         1 14M302      0.0000 
     48 H          -5.8219   58.2949   14.2347 H         1 14M302      0.0000 
     49 H         -11.4559   53.3158   12.4187 H         1 14M302      0.0000 
     50 H         -11.4258   55.0468   12.7967 H         1 14M302      0.0000 
     51 H          -9.0162   52.1150   12.3389 H         1 14M302      0.0000 
     52 H          -7.6530   53.1863   12.7046 H         1 14M302      0.0000 
     53 H          -7.9072   54.3530   10.6341 H         1 14M302      0.0000 
     54 H          -7.9343   52.6194   10.2682 H         1 14M302      0.0000 
     55 H          -2.9620   61.7020   14.7125 H         1 14M302      0.0000 
     56 H          -2.6118   62.4086   16.2994 H         1 14M302      0.0000 
     57 H          -4.9531   62.0987   16.9861 H         1 14M302      0.0000 
     58 H          -4.8546   63.0466   15.4922 H         1 14M302      0.0000 
     59 H          -4.0069   52.7681   11.4811 H         1 14M302      0.0000 
     60 H          -3.3302   52.6862   12.9376 H         1 14M302      0.0000 
     61 H          -4.8120   52.1060   12.7056 H         1 14M302      0.0000 
@<TRIPOS>BOND
     1    2    1 1    
     2   19    1 ar   
     3   20    1 ar   
     4    3    2 1    
     5   30    2 1    
     6   31    2 1    
     7    4    3 1    
     8   25    3 1    
     9   32    3 1    
    10   27    4 1    
    11   33    4 1    
    12   34    4 1    
    13    9    5 ar   
    14   22    5 1    
    15   23    5 ar   
    16    7    6 ar   
    17   18    6 1    
    18   23    6 ar   
    19    8    7 ar   
    20   10    7 1    
    21    9    8 ar   
    22   35    8 1    
    23   36    9 1    
    24   21   10 2    
    25   24   10 am   
    26   12   11 1    
    27   14   11 1    
    28   24   11 1    
    29   37   11 1    
    30   13   12 1    
    31   38   12 1    
    32   39   12 1    
    33   28   13 1    
    34   40   13 1    
    35   41   13 1    
    36   29   14 1    
    37   42   14 1    
    38   43   14 1    
    39   16   15 1    
    40   18   15 1    
    41   44   15 1    
    42   45   15 1    
    43   17   16 1    
    44   46   16 1    
    45   47   16 1    
    46   59   17 1    
    47   60   17 1    
    48   61   17 1    
    49   25   22 1    
    50   26   22 1    
    51   48   24 1    
    52   49   25 1    
    53   50   25 1    
    54   27   26 1    
    55   51   26 1    
    56   52   26 1    
    57   53   27 1    
    58   54   27 1    
    59   29   28 1    
    60   55   28 1    
    61   56   28 1    
    62   57   29 1    
    63   58   29 1    
@<TRIPOS>SUBSTRUCTURE
     1 14M302      1 GROUP   
@<TRIPOS>SET

