#    Name: 2w7x_D1A_1_INTS_M
#    Modification time : Tue Mar 25 03:45:08 2014

@<TRIPOS>MOLECULE
2w7x_D1A_1_INTS_M
   58     0     9     0     0
SMALL
NO_CHARGES


@<TRIPOS>ATOM
      1 N          49.3870  -14.6670   -3.1785 N.am      2 SEC2        0.0000 
      2 N          49.4650  -15.9110   -3.9700 N.am      8 SEL2        0.0000 
      3 N          49.3090  -13.4230   -2.3870 N.am      5 SEP2        0.0000 
      4 CA         48.8980  -16.7915   -8.0455 C.3       3 GLC5        0.0000 
      5 CA         47.3640  -15.8380   -7.4150 C.3       9 GLL5        0.0000 
      6 CA         50.4320  -17.7450   -8.6760 C.3       6 GLP5        0.0000 
      7 CA         47.6730  -17.3945   -9.0720 C.3       3 GLC5        0.0000 
      8 CA         46.4910  -16.9040   -7.5370 C.3       9 GLL5        0.0000 
      9 CA         48.8550  -17.8850  -10.6070 C.3       6 GLP5        0.0000 
     10 CA         47.7470  -15.1225  -12.7895 C.3       3 GLC5        0.0000 
     11 CA         46.2730  -14.2180  -11.7520 C.3       9 GLL5        0.0000 
     12 CA         49.2210  -16.0270  -13.8270 C.3       6 GLP5        0.0000 
     13 CA         47.2750  -14.8185  -13.9040 C.3       3 GLC5        0.0000 
     14 CA         46.3850  -13.4850  -12.9010 C.3       9 GLL5        0.0000 
     15 CA         48.1650  -16.1520  -14.9070 C.3       6 GLP5        0.0000 
     16 CA         44.8570  -12.3330  -13.8200 C.3       3 GLC5        0.0000 
     17 CA         43.3290  -11.1810  -14.7390 C.3       6 GLP5        0.0000 
     18 CA         49.6185  -13.8580  -11.8820 C.3       3 GLC5        0.0000 
     19 CA         48.0760  -13.0180  -10.7380 C.3       9 GLL5        0.0000 
     20 CA         51.1610  -14.6980  -13.0260 C.3       6 GLP5        0.0000 
     21 CA         46.9250  -12.5325   -8.9305 C.3       3 GLC5        0.0000 
     22 CA         45.7740  -12.0470   -7.1230 C.3       6 GLP5        0.0000 
     23 CA         49.9105  -10.6230  -15.1440 C.3       3 GLC5        0.0000 
     24 CA         48.0960  -10.3460  -14.2780 C.3       9 GLL5        0.0000 
     25 CA         51.7250  -10.9000  -16.0100 C.3       6 GLP5        0.0000 
     26 N          47.1530  -10.2075  -16.7045 N.am      2 SEC2        0.0000 
     27 N          47.1240  -11.6160  -16.4530 N.am      8 SEL2        0.0000 
     28 N          47.1820   -8.7990  -16.9560 N.am      5 SEP2        0.0000 
     29 O          47.2685  -10.4550  -18.8920 O.2       1 ALC1        0.0000 
     30 O          46.7110  -11.7970  -18.7250 O.2       7 ALL1        0.0000 
     31 O          47.8260   -9.1130  -19.0590 O.2       4 ALP1        0.0000 
     32 CA         45.6885  -17.6240   -3.5490 C.3       3 GLC5        0.0000 
     33 CA         47.1990  -18.6650   -3.8240 C.3       9 GLL5        0.0000 
     34 CA         43.8490  -17.1560   -3.0510 C.3       6 GLP5        0.0000 
     35 CA         48.7750  -19.0987   -5.1775 C.3       3 GLC5        0.0000 
     36 CA         47.8570  -17.5190   -4.2700 C.3       9 GLL5        0.0000 
     37 CA         50.0110  -20.6430   -5.5700 C.3       6 GLP5        0.0000 
     38 CA         48.7580  -17.5335   -7.2985 C.3       3 GLC5        0.0000 
     39 CA         47.5500  -17.0170   -5.5230 C.3       9 GLL5        0.0000 
     40 CA         45.4665  -17.2390   -4.4860 C.3       3 GLC5        0.0000 
     41 CA         45.4447  -15.0865   -7.2475 C.3       3 GLC5        0.0000 
     42 CA         43.9620  -13.8020   -7.0190 C.3       6 GLP5        0.0000 
     43 CA         48.0563  -19.8390   -5.4180 C.3       3 GLC5        0.0000 
     44 CA         45.9550  -18.7780   -5.8990 C.3       9 GLL5        0.0000 
     45 CA         44.9753  -18.0955   -4.1585 C.3       3 GLC5        0.0000 
     46 CA         46.2480  -19.2920   -4.6330 C.3       9 GLL5        0.0000 
     47 CA         45.1255  -12.6448  -11.4022 C.3       3 GLC5        0.0000 
     48 CA         43.9220  -11.4380  -10.4780 C.3       6 GLP5        0.0000 
     49 CA         49.8430  -12.1387  -10.6017 C.3       3 GLC5        0.0000 
     50 CA         48.1940  -12.2730  -11.9110 C.3       9 GLL5        0.0000 
     51 CA         51.5510  -11.6320   -9.8790 C.3       6 GLP5        0.0000 
     52 CA         46.3376  -11.4247  -10.9801 C.3       3 GLC5        0.0000 
     53 CA         44.7540  -10.1500  -10.3650 C.3       6 GLP5        0.0000 
     54 CA         48.8809  -13.4752  -13.7466 C.3       3 GLC5        0.0000 
     55 CA         47.3390  -12.4890  -12.9940 C.3       9 GLL5        0.0000 
     56 CA         50.1490  -14.9080  -14.1370 C.3       6 GLP5        0.0000 
     57 CA         45.9813  -10.5971  -14.2913 C.3       3 GLC5        0.0000 
     58 CA         44.2150   -9.9730  -14.6300 C.3       6 GLP5        0.0000 
@<TRIPOS>BOND
@<TRIPOS>SUBSTRUCTURE
     1 ALC1       29 GROUP        1 X    ALC  0     ROOT ALC X 1
     2 SEC2        1 GROUP        1 X    SEC  0     **** SEC X 2
     3 GLC5        4 GROUP        1 X    GLC  0     **** GLC X 6
     4 ALP1       31 GROUP        1 Y    ALP  0     ROOT ALP Y 8
     5 SEP2        3 GROUP        1 Y    SEP  0     **** SEP Y 9
     6 GLP5        6 GROUP        1 Y    GLP  0     **** GLP Y 13
     7 ALL1       30 GROUP        1 Z    ALL  0     ROOT ALL Z 15
     8 SEL2        2 GROUP        1 Z    SEL  0     **** SEL Z 16
     9 GLL5        5 GROUP        1 Z    GLL  0     **** GLL Z 20
@<TRIPOS>SET

