#    Name: 2w7x_D1A_1_ligand
#    Modification time : Tue Mar 25 03:45:08 2014

@<TRIPOS>MOLECULE
2w7x_D1A_1_ligand
   44    46     1     0     0
SMALL
NO_CHARGES


@<TRIPOS>ATOM
      1 O3         49.4650  -15.9110   -3.9700 O.2       1 D1A601      0.0000 
      2 N7         48.8340  -16.8670   -3.5090 N.pl3     1 D1A601      0.0000 
      3 O2         49.1030  -17.2620   -2.3750 O.2       1 D1A601      0.0000 
      4 C3         47.8570  -17.5190   -4.2700 C.ar      1 D1A601      0.0000 
      5 C2         47.1990  -18.6650   -3.8240 C.ar      1 D1A601      0.0000 
      6 C4         47.5500  -17.0170   -5.5230 C.ar      1 D1A601      0.0000 
      7 N1         48.0000  -15.9460   -6.2090 N.pl3     1 D1A601      0.0000 
      8 C8         47.3640  -15.8380   -7.4150 C.2       1 D1A601      0.0000 
      9 C7         46.4910  -16.9040   -7.5370 C.2       1 D1A601      0.0000 
     10 C5         46.6180  -17.6270   -6.3190 C.ar      1 D1A601      0.0000 
     11 C6         45.9550  -18.7780   -5.8990 C.ar      1 D1A601      0.0000 
     12 C1         46.2480  -19.2920   -4.6330 C.ar      1 D1A601      0.0000 
     13 C9         47.6560  -14.8120   -8.4290 C.2       1 D1A601      0.0000 
     14 O1         48.5660  -14.0180   -8.2030 O.2       1 D1A601      0.0000 
     15 N2         46.9240  -14.8250   -9.5420 N.2       1 D1A601      0.0000 
     16 C10        47.1010  -13.9920  -10.6530 C.2       1 D1A601      0.0000 
     17 C15        46.2730  -14.2180  -11.7520 C.2       1 D1A601      0.0000 
     18 C14        46.3850  -13.4850  -12.9010 C.2       1 D1A601      0.0000 
     19 C13        47.3390  -12.4890  -12.9940 C.2       1 D1A601      0.0000 
     20 C12        48.1940  -12.2730  -11.9110 C.2       1 D1A601      0.0000 
     21 C11        48.0760  -13.0180  -10.7380 C.2       1 D1A601      0.0000 
     22 C16        47.4590  -11.7040  -14.2600 C.2       1 D1A601      0.0000 
     23 C17        48.0960  -10.3460  -14.2780 C.3       1 D1A601      0.0000 
     24 N3         47.0600  -12.2280  -15.3470 N.2       1 D1A601      0.0000 
     25 N4         47.1240  -11.6160  -16.4530 N.2       1 D1A601      0.0000 
     26 C18        46.6990  -12.2990  -17.5130 C.ar      1 D1A601      0.0000 
     27 N6         46.7110  -11.7970  -18.7250 N.pl3     1 D1A601      0.0000 
     28 N5         46.3480  -13.4960  -17.3670 N.pl3     1 D1A601      0.0000 
     29 H          47.4141  -19.0513   -2.8952 H         1 D1A601      0.0000 
     30 H          48.6873  -15.3250   -5.8955 H         1 D1A601      0.0000 
     31 H          45.9375  -17.1196   -8.2436 H         1 D1A601      0.0000 
     32 H          45.2733  -19.2350   -6.4983 H         1 D1A601      0.0000 
     33 H          45.7631  -20.1326   -4.2966 H         1 D1A601      0.0000 
     34 H          45.5517  -14.9697  -11.6843 H         1 D1A601      0.0000 
     35 H          45.7602  -13.6704  -13.7027 H         1 D1A601      0.0000 
     36 H          48.9281  -11.5468  -11.9811 H         1 D1A601      0.0000 
     37 H          48.7081  -12.8400   -9.9524 H         1 D1A601      0.0000 
     38 H          46.4000  -12.4044  -19.4560 H         1 D1A601      0.0000 
     39 H          47.0300  -10.8528  -18.8071 H         1 D1A601      0.0000 
     40 H          45.9841  -13.9502  -18.1802 H         1 D1A601      0.0000 
     41 H          46.4659  -13.8806  -16.4515 H         1 D1A601      0.0000 
     42 H          49.0460  -10.3772  -13.9672 H         1 D1A601      0.0000 
     43 H          48.1009   -9.9502  -15.1963 H         1 D1A601      0.0000 
     44 H          47.6143   -9.7019  -13.6838 H         1 D1A601      0.0000 
@<TRIPOS>BOND
     1    2    1 2    
     2    3    2 2    
     3    4    2 1    
     4    5    4 ar   
     5    6    4 ar   
     6   12    5 ar   
     7   29    5 1    
     8    7    6 1    
     9   10    6 ar   
    10    8    7 1    
    11   30    7 1    
    12    9    8 2    
    13   13    8 1    
    14   10    9 1    
    15   31    9 1    
    16   11   10 ar   
    17   12   11 ar   
    18   32   11 1    
    19   33   12 1    
    20   14   13 2    
    21   15   13 1    
    22   16   15 2    
    23   17   16 1    
    24   21   16 1    
    25   18   17 2    
    26   34   17 1    
    27   19   18 1    
    28   35   18 1    
    29   20   19 1    
    30   22   19 2    
    31   21   20 2    
    32   36   20 1    
    33   37   21 1    
    34   23   22 1    
    35   24   22 1    
    36   42   23 1    
    37   43   23 1    
    38   44   23 1    
    39   25   24 2    
    40   26   25 1    
    41   27   26 ar   
    42   28   26 ar   
    43   38   27 1    
    44   39   27 1    
    45   40   28 1    
    46   41   28 1    
@<TRIPOS>SUBSTRUCTURE
     1 D1A601      1 GROUP   
@<TRIPOS>SET

