#    Name: 3sgt_P09_1_INTS_M
#    Modification time : Tue Mar 25 12:35:13 2014

@<TRIPOS>MOLECULE
3sgt_P09_1_INTS_M
   68     0     9     0     0
SMALL
NO_CHARGES


@<TRIPOS>ATOM
      1 CA        -14.4235   -4.8555   -1.3215 C.3       3 GLC5        0.0000 
      2 CA        -13.3630   -4.3790    0.3300 C.3       9 GLL5        0.0000 
      3 CA        -15.4840   -5.3320   -2.9730 C.3       6 GLP5        0.0000 
      4 CA        -13.9790   -6.3180    0.2195 C.3       3 GLC5        0.0000 
      5 CA        -14.5950   -8.2570    0.1090 C.3       6 GLP5        0.0000 
      6 CA        -12.6770   -4.3990    2.1845 C.3       3 GLC5        0.0000 
      7 CA        -11.9910   -4.4190    4.0390 C.3       6 GLP5        0.0000 
      8 CA        -15.6060   -1.0880    3.1825 C.3       3 GLC5        0.0000 
      9 CA        -15.1170   -2.1640    1.5530 C.3       9 GLL5        0.0000 
     10 CA        -16.0950   -0.0120    4.8120 C.3       6 GLP5        0.0000 
     11 CA        -16.7975   -2.2375    0.7730 C.3       3 GLC5        0.0000 
     12 CA        -18.4780   -2.3110   -0.0070 C.3       6 GLP5        0.0000 
     13 N         -12.6280    4.3190    7.6280 N.am      2 SEC2        0.0000 
     14 N         -12.2700    4.3590    6.1590 N.am      8 SEL2        0.0000 
     15 N         -12.9860    4.2790    9.0970 N.am      5 SEP2        0.0000 
     16 CA        -16.1725    9.9860    7.6110 C.3       3 GLC5        0.0000 
     17 CA        -15.2240    8.1420    7.5260 C.3       9 GLL5        0.0000 
     18 CA        -17.1210   11.8300    7.6960 C.3       6 GLP5        0.0000 
     19 CA        -15.7775    4.7300    4.6695 C.3       3 GLC5        0.0000 
     20 CA        -15.1450    6.1150    6.2670 C.3       9 GLL5        0.0000 
     21 CA        -16.4100    3.3450    3.0720 C.3       6 GLP5        0.0000 
     22 CA        -14.7665    5.8590    8.4520 C.3       3 GLC5        0.0000 
     23 CA        -14.3880    5.6030   10.6370 C.3       6 GLP5        0.0000 
     24 CA        -10.3095   -3.5610   -0.9975 C.3       3 GLC5        0.0000 
     25 CA        -11.5760   -2.6340    0.1730 C.3       9 GLL5        0.0000 
     26 CA         -9.0430   -4.4880   -2.1680 C.3       6 GLP5        0.0000 
     27 CA        -12.6870    2.4460    6.0575 C.3       3 GLC5        0.0000 
     28 CA        -12.1750    2.8060    4.0030 C.3       9 GLL5        0.0000 
     29 CA        -13.1990    2.0860    8.1120 C.3       6 GLP5        0.0000 
     30 CA         -8.9360   -0.7360    0.6625 C.3       3 GLC5        0.0000 
     31 CA        -11.0640   -1.3600    0.3270 C.3       9 GLL5        0.0000 
     32 CA         -6.8080   -0.1120    0.9980 C.3       6 GLP5        0.0000 
     33 CA         -9.4210   -1.8065   -1.0450 C.3       3 GLC5        0.0000 
     34 CA         -7.7780   -2.2530   -2.4170 C.3       6 GLP5        0.0000 
     35 CA        -11.9230   -0.0680    3.9055 C.3       3 GLC5        0.0000 
     36 CA        -11.6930    1.7480    3.1980 C.3       9 GLL5        0.0000 
     37 CA        -12.1530   -1.8840    4.6130 C.3       6 GLP5        0.0000 
     38 O         -14.2590    5.8155    3.3530 O.2       1 ALC1        0.0000 
     39 O         -13.2160    4.9720    4.1560 O.2       7 ALL1        0.0000 
     40 O         -15.3020    6.6590    2.5500 O.2       4 ALP1        0.0000 
     41 CA        -13.2782   -1.9595    2.9668 C.3       3 GLC5        0.0000 
     42 CA        -13.6900   -1.9060    1.0880 C.3       9 GLL5        0.0000 
     43 CA        -16.6275    7.0965    5.0892 C.3       3 GLC5        0.0000 
     44 CA        -15.8910    7.0690    6.9320 C.3       9 GLL5        0.0000 
     45 CA        -17.7370    7.6010    3.5790 C.3       6 GLP5        0.0000 
     46 CA        -14.5426    6.7669    8.9932 C.3       3 GLC5        0.0000 
     47 CA        -14.4195    3.3658    3.3890 C.3       3 GLC5        0.0000 
     48 CA        -12.1492    4.6753    0.0847 C.3       3 GLC5        0.0000 
     49 CA        -12.2450    3.0110    1.2200 C.3       9 GLL5        0.0000 
     50 CA        -11.8140    5.8220   -1.4470 C.3       6 GLP5        0.0000 
     51 CA        -14.4307    3.3138    1.5877 C.3       3 GLC5        0.0000 
     52 CA        -16.3770    3.0990    1.5590 C.3       6 GLP5        0.0000 
     53 CA        -13.7480   -0.1670   -0.2573 C.3       3 GLC5        0.0000 
     54 CA        -13.1700   -0.6100    1.2720 C.3       9 GLL5        0.0000 
     55 CA        -14.9730    0.1430   -1.5860 C.3       6 GLP5        0.0000 
     56 CA        -12.3380   -1.1805    2.8422 C.3       3 GLC5        0.0000 
     57 CA        -14.3094   -1.1685   -0.3246 C.3       3 GLC5        0.0000 
     58 CA        -11.3500   -3.4565    1.8253 C.3       3 GLC5        0.0000 
     59 CA        -12.8880   -2.9250    0.5530 C.3       9 GLL5        0.0000 
     60 CA        -10.5960   -4.4520    3.2490 C.3       6 GLP5        0.0000 
     61 CA        -13.1928    5.9865    8.3538 C.3       3 GLC5        0.0000 
     62 CA        -13.0910    7.2660    6.7990 C.3       9 GLL5        0.0000 
     63 CA        -12.9570    5.2280   10.2170 C.3       6 GLP5        0.0000 
     64 CA        -13.8006    8.0425    5.1937 C.3       3 GLC5        0.0000 
     65 CA        -13.4680    9.1340    3.7010 C.3       6 GLP5        0.0000 
     66 CA        -10.2302    3.1186    2.2451 C.3       3 GLC5        0.0000 
     67 CA        -12.7240    4.0460    2.0130 C.3       9 GLL5        0.0000 
     68 CA         -8.2960    3.4420    2.3290 C.3       6 GLP5        0.0000 
@<TRIPOS>BOND
@<TRIPOS>SUBSTRUCTURE
     1 ALC1       38 GROUP        1 X    ALC  0     ROOT ALC X 1
     2 SEC2       13 GROUP        1 X    SEC  0     **** SEC X 2
     3 GLC5        1 GROUP        1 X    GLC  0     **** GLC X 6
     4 ALP1       40 GROUP        1 Y    ALP  0     ROOT ALP Y 8
     5 SEP2       15 GROUP        1 Y    SEP  0     **** SEP Y 9
     6 GLP5        3 GROUP        1 Y    GLP  0     **** GLP Y 13
     7 ALL1       39 GROUP        1 Z    ALL  0     ROOT ALL Z 15
     8 SEL2       14 GROUP        1 Z    SEL  0     **** SEL Z 16
     9 GLL5        2 GROUP        1 Z    GLL  0     **** GLL Z 20
@<TRIPOS>SET

