#    Name: 3sgt_P09_1_ligand
#    Modification time : Tue Mar 25 12:35:13 2014

@<TRIPOS>MOLECULE
3sgt_P09_1_ligand
   45    47     1     0     0
SMALL
NO_CHARGES


@<TRIPOS>ATOM
      1 CAA       -13.3630   -4.3790    0.3300 C.3       1 P091001     0.0000 
      2 CAB       -15.1170   -2.1640    1.5530 C.3       1 P091001     0.0000 
      3 OAC       -11.0160    7.9790    7.6780 O.co2     1 P091001     0.0000 
      4 OAD       -12.2700    4.3590    6.1590 O.2       1 P091001     0.0000 
      5 OAE       -10.9450    6.9980    5.6770 O.co2     1 P091001     0.0000 
      6 CAF       -15.2240    8.1420    7.5260 C.ar      1 P091001     0.0000 
      7 CAG       -15.8910    7.0690    6.9320 C.ar      1 P091001     0.0000 
      8 CAH       -13.8370    8.2560    7.4700 C.ar      1 P091001     0.0000 
      9 CAI       -15.1450    6.1150    6.2670 C.ar      1 P091001     0.0000 
     10 CAJ       -11.5760   -2.6340    0.1730 C.ar      1 P091001     0.0000 
     11 CAK       -12.1750    2.8060    4.0030 C.ar      1 P091001     0.0000 
     12 CAL       -12.7240    4.0460    2.0130 C.ar      1 P091001     0.0000 
     13 CAM       -11.0640   -1.3600    0.3270 C.ar      1 P091001     0.0000 
     14 CAN       -11.6930    1.7480    3.1980 C.ar      1 P091001     0.0000 
     15 CAO       -12.2450    3.0110    1.2200 C.ar      1 P091001     0.0000 
     16 CAP       -13.1700   -0.6100    1.2720 C.ar      1 P091001     0.0000 
     17 NAQ       -13.2160    4.9720    4.1560 N.am      1 P091001     0.0000 
     18 OAR       -11.2650    0.8610    0.9940 O.3       1 P091001     0.0000 
     19 CAS       -11.5520    7.3950    6.7190 C.2       1 P091001     0.0000 
     20 CAT       -13.0140    5.0830    5.4680 C.2       1 P091001     0.0000 
     21 CAU       -12.8880   -2.9250    0.5530 C.ar      1 P091001     0.0000 
     22 CAV       -13.6900   -1.9060    1.0880 C.ar      1 P091001     0.0000 
     23 CAW       -12.6830    3.9670    3.4090 C.ar      1 P091001     0.0000 
     24 CAX       -11.7550    1.8470    1.8110 C.ar      1 P091001     0.0000 
     25 CAY       -11.8760   -0.3440    0.8710 C.ar      1 P091001     0.0000 
     26 CAZ       -13.0910    7.2660    6.7990 C.ar      1 P091001     0.0000 
     27 CBA       -13.7660    6.2240    6.1820 C.ar      1 P091001     0.0000 
     28 H         -15.7746    8.8694    8.0194 H         1 P091001     0.0000 
     29 H         -16.9053    6.9971    6.9913 H         1 P091001     0.0000 
     30 H         -13.3595    9.0437    7.9070 H         1 P091001     0.0000 
     31 H         -15.6208    5.3071    5.8256 H         1 P091001     0.0000 
     32 H         -10.9875   -3.3836   -0.2267 H         1 P091001     0.0000 
     33 H         -12.1495    2.7162    5.0229 H         1 P091001     0.0000 
     34 H         -13.1192    4.8927    1.5670 H         1 P091001     0.0000 
     35 H         -10.1022   -1.1423    0.0516 H         1 P091001     0.0000 
     36 H         -11.3008    0.9144    3.6443 H         1 P091001     0.0000 
     37 H         -12.2508    3.1010    0.1955 H         1 P091001     0.0000 
     38 H         -13.7514    0.1129    1.6967 H         1 P091001     0.0000 
     39 H         -13.8178    5.6936    3.6597 H         1 P091001     0.0000 
     40 H         -13.3189   -4.6403   -0.6342 H         1 P091001     0.0000 
     41 H         -12.8034   -5.0344    0.8372 H         1 P091001     0.0000 
     42 H         -14.3090   -4.5102    0.6263 H         1 P091001     0.0000 
     43 H         -15.3974   -3.1090    1.3844 H         1 P091001     0.0000 
     44 H         -15.2242   -1.9969    2.5331 H         1 P091001     0.0000 
     45 H         -15.7734   -1.5749    1.0817 H         1 P091001     0.0000 
@<TRIPOS>BOND
     1   21    1 1    
     2   40    1 1    
     3   41    1 1    
     4   42    1 1    
     5   22    2 1    
     6   43    2 1    
     7   44    2 1    
     8   45    2 1    
     9   19    3 ar   
    10   20    4 2    
    11   19    5 ar   
    12    7    6 ar   
    13    8    6 ar   
    14   28    6 1    
    15    9    7 ar   
    16   29    7 1    
    17   26    8 ar   
    18   30    8 1    
    19   27    9 ar   
    20   31    9 1    
    21   13   10 ar   
    22   21   10 ar   
    23   32   10 1    
    24   14   11 ar   
    25   23   11 ar   
    26   33   11 1    
    27   15   12 ar   
    28   23   12 ar   
    29   34   12 1    
    30   25   13 ar   
    31   35   13 1    
    32   24   14 ar   
    33   36   14 1    
    34   24   15 ar   
    35   37   15 1    
    36   22   16 ar   
    37   25   16 ar   
    38   38   16 1    
    39   20   17 am   
    40   23   17 1    
    41   39   17 1    
    42   24   18 1    
    43   25   18 1    
    44   26   19 1    
    45   27   20 1    
    46   22   21 ar   
    47   27   26 ar   
@<TRIPOS>SUBSTRUCTURE
     1 P091001     1 GROUP   
@<TRIPOS>SET

