#    Name: 3o9h_K2E_1_INTS_M
#    Modification time : Tue Mar 25 03:25:50 2014

@<TRIPOS>MOLECULE
3o9h_K2E_1_INTS_M
  102     0     9     0     0
SMALL
NO_CHARGES


@<TRIPOS>ATOM
      1 CA         15.9855   36.2150   20.3695 C.3       3 GLC5        0.0000 
      2 CA         15.6200   36.7170   18.3630 C.3       9 GLL5        0.0000 
      3 CA         16.3510   35.7130   22.3760 C.3       6 GLP5        0.0000 
      4 CA         13.9110   35.9925   19.3145 C.3       3 GLC5        0.0000 
      5 CA         12.2020   35.2680   20.2660 C.3       6 GLP5        0.0000 
      6 CA         14.4055   37.5955   17.0955 C.3       3 GLC5        0.0000 
      7 CA         13.1910   38.4740   15.8280 C.3       6 GLP5        0.0000 
      8 N          14.4695   34.7615   19.9480 N.am      2 SEC2        0.0000 
      9 N          14.9180   35.4570   18.5330 N.am      8 SEL2        0.0000 
     10 N          14.0210   34.0660   21.3630 N.am      5 SEP2        0.0000 
     11 CA         16.3495   32.9940   18.9270 C.3       3 GLC5        0.0000 
     12 CA         15.5210   34.5500   17.6900 C.3       9 GLL5        0.0000 
     13 CA         17.1780   31.4380   20.1640 C.3       6 GLP5        0.0000 
     14 CA         13.8615   34.9090   18.9780 C.3       3 GLC5        0.0000 
     15 CA         15.2470   30.8380   15.4765 C.3       3 GLC5        0.0000 
     16 CA         16.0420   32.4880   16.5600 C.3       9 GLL5        0.0000 
     17 CA         14.4520   29.1880   14.3930 C.3       6 GLP5        0.0000 
     18 CA         22.9470   34.5205   14.2195 C.3       3 GLC5        0.0000 
     19 CA         22.0610   32.6170   14.9310 C.3       9 GLL5        0.0000 
     20 CA         23.8330   36.4240   13.5080 C.3       6 GLP5        0.0000 
     21 CA         21.1745   33.9865   13.5705 C.3       3 GLC5        0.0000 
     22 CA         20.2880   35.3560   12.2100 C.3       6 GLP5        0.0000 
     23 CA         22.9080   32.7885   19.0690 C.3       3 GLC5        0.0000 
     24 CA         22.1360   33.4370   17.3380 C.3       9 GLL5        0.0000 
     25 CA         23.6800   32.1400   20.8000 C.3       6 GLP5        0.0000 
     26 CA         17.4895   30.5375   17.8900 C.3       3 GLC5        0.0000 
     27 CA         18.9190   30.4610   16.2880 C.3       9 GLL5        0.0000 
     28 CA         16.0600   30.6140   19.4920 C.3       6 GLP5        0.0000 
     29 CA         22.9120   35.6620   15.2545 C.3       3 GLC5        0.0000 
     30 CA         21.9910   34.9000   17.0010 C.3       9 GLL5        0.0000 
     31 N          19.3940   27.7960   17.8950 N.am      2 SEC2        0.0000 
     32 N          19.9230   28.2710   16.6430 N.am      8 SEL2        0.0000 
     33 N          18.8650   27.3210   19.1470 N.am      5 SEP2        0.0000 
     34 O          20.7675   27.9010   17.5525 O.2       1 ALC1        0.0000 
     35 O          19.9230   28.2710   16.6430 O.2       7 ALL1        0.0000 
     36 O          21.6120   27.5310   18.4620 O.2       4 ALP1        0.0000 
     37 O          21.4525   28.5845   17.0280 O.2       1 ALC1        0.0000 
     38 O          22.9820   28.8980   17.4130 O.2       4 ALP1        0.0000 
     39 CA         24.1890   33.8750   13.8170 C.3       3 GLC5        0.0000 
     40 CA         23.4600   32.0600   14.8370 C.3       9 GLL5        0.0000 
     41 CA         24.9180   35.6900   12.7970 C.3       6 GLP5        0.0000 
     42 CA         24.6480   30.6880   14.9015 C.3       3 GLC5        0.0000 
     43 CA         25.8360   29.3160   14.9660 C.3       6 GLP5        0.0000 
     44 CA         24.2010   31.5310   13.0530 C.3       3 GLC5        0.0000 
     45 CA         24.9420   31.0020   11.2690 C.3       6 GLP5        0.0000 
     46 O          20.3835   26.5670   14.3110 O.2       1 ALC1        0.0000 
     47 O          20.5830   28.1050   13.8450 O.2       7 ALL1        0.0000 
     48 O          20.1840   25.0290   14.7770 O.2       4 ALP1        0.0000 
     49 CA         26.2185   25.4655   11.7335 C.3       3 GLC5        0.0000 
     50 CA         24.5850   26.9280   12.0000 C.3       9 GLL5        0.0000 
     51 CA         27.8520   24.0030   11.4670 C.3       6 GLP5        0.0000 
     52 CA         26.4635   27.7160   11.9905 C.3       3 GLC5        0.0000 
     53 CA         28.3420   28.5040   11.9810 C.3       6 GLP5        0.0000 
     54 CA         25.7685   27.7370   10.3170 C.3       3 GLC5        0.0000 
     55 CA         26.9520   28.5460    8.6340 C.3       6 GLP5        0.0000 
     56 CA         25.2105   28.1220   13.4830 C.3       3 GLC5        0.0000 
     57 N          25.2875   24.3820   12.4675 N.am      2 SEC2        0.0000 
     58 N          24.3950   25.5220   11.8700 N.am      8 SEL2        0.0000 
     59 N          26.1800   23.2420   13.0650 N.am      5 SEP2        0.0000 
     60 CA         23.2320   25.1250   12.9820 C.3       3 GLC5        0.0000 
     61 CA         23.5090   25.2500   10.7890 C.3       9 GLL5        0.0000 
     62 CA         22.9550   25.0000   15.1750 C.3       6 GLP5        0.0000 
     63 CA         23.7195   23.3815   11.3510 C.3       3 GLC5        0.0000 
     64 CA         23.9300   21.5130   11.9130 C.3       6 GLP5        0.0000 
     65 N          23.0190   23.7235   12.4590 N.am      2 SEC2        0.0000 
     66 N          22.5120   24.3050   11.1980 N.am      8 SEL2        0.0000 
     67 N          23.5260   23.1420   13.7200 N.am      5 SEP2        0.0000 
     68 CA         22.1075   24.9880   13.2550 C.3       3 GLC5        0.0000 
     69 CA         21.2600   24.9760   11.3350 C.3       9 GLL5        0.0000 
     70 CA         22.5950   23.2445   11.6240 C.3       3 GLC5        0.0000 
     71 CA         17.2465   26.0705   14.6045 C.3       3 GLC5        0.0000 
     72 CA         18.2020   28.0610   14.2430 C.3       9 GLL5        0.0000 
     73 CA         16.2910   24.0800   14.9660 C.3       6 GLP5        0.0000 
     74 CA         17.2125   25.2165   13.6730 C.3       3 GLC5        0.0000 
     75 CA         18.1340   26.3530   12.3800 C.3       9 GLL5        0.0000 
     76 CA         18.8035   29.2425    9.5785 C.3       3 GLC5        0.0000 
     77 CA         17.3330   28.2480   10.5260 C.3       9 GLL5        0.0000 
     78 CA         20.2740   30.2370    8.6310 C.3       6 GLP5        0.0000 
     79 CA         14.5080   35.2615   15.8920 C.3       3 GLC5        0.0000 
     80 CA         13.0270   35.6530   14.4850 C.3       6 GLP5        0.0000 
     81 CA         15.5617   32.7365   14.2665 C.3       3 GLC5        0.0000 
     82 CA         14.5880   32.6710   12.3650 C.3       6 GLP5        0.0000 
     83 CA         15.8615   31.7285   18.2655 C.3       3 GLC5        0.0000 
     84 CA         13.8326   33.0000   16.5390 C.3       3 GLC5        0.0000 
     85 CA         15.2840   33.1980   17.5180 C.3       9 GLL5        0.0000 
     86 CA         11.9430   32.8190   15.9960 C.3       6 GLP5        0.0000 
     87 CA         23.8857   34.4012   17.6562 C.3       3 GLC5        0.0000 
     88 CA         25.7080   34.6340   18.1430 C.3       6 GLP5        0.0000 
     89 CA         23.9750   26.6107   13.6675 C.3       3 GLC5        0.0000 
     90 CA         23.2650   27.5210   11.5280 C.3       9 GLL5        0.0000 
     91 CA         24.0250   25.9970   15.5710 C.3       6 GLP5        0.0000 
     92 CA         24.4335   29.1133   11.5165 C.3       3 GLC5        0.0000 
     93 CA         15.9893   25.4225   10.3690 C.3       3 GLC5        0.0000 
     94 CA         17.9310   25.9860   11.0530 C.3       9 GLL5        0.0000 
     95 CA         14.2490   24.3830   10.1470 C.3       6 GLP5        0.0000 
     96 CA         16.1103   27.8625    9.1022 C.3       3 GLC5        0.0000 
     97 CA         17.5280   26.9380   10.1290 C.3       9 GLL5        0.0000 
     98 CA         14.7900   28.1320    7.8770 C.3       6 GLP5        0.0000 
     99 CA         17.2555   30.2227   10.3200 C.3       3 GLC5        0.0000 
    100 CA         17.0740   32.0130    9.4480 C.3       6 GLP5        0.0000 
    101 CA         16.1306   28.7150   13.5406 C.3       3 GLC5        0.0000 
    102 CA         17.5410   28.6170   11.8580 C.3       9 GLL5        0.0000 
@<TRIPOS>BOND
@<TRIPOS>SUBSTRUCTURE
     1 ALC1       34 GROUP        1 X    ALC  0     ROOT ALC X 1
     2 SEC2        8 GROUP        1 X    SEC  0     **** SEC X 2
     3 GLC5        1 GROUP        1 X    GLC  0     **** GLC X 6
     4 ALP1       36 GROUP        1 Y    ALP  0     ROOT ALP Y 8
     5 SEP2       10 GROUP        1 Y    SEP  0     **** SEP Y 9
     6 GLP5        3 GROUP        1 Y    GLP  0     **** GLP Y 13
     7 ALL1       35 GROUP        1 Z    ALL  0     ROOT ALL Z 15
     8 SEL2        9 GROUP        1 Z    SEL  0     **** SEL Z 16
     9 GLL5        2 GROUP        1 Z    GLL  0     **** GLL Z 20
@<TRIPOS>SET

