#    Name: 3o9h_K2E_1_ligand
#    Modification time : Tue Mar 25 03:25:50 2014

@<TRIPOS>MOLECULE
3o9h_K2E_1_ligand
   82    86     1     0     0
SMALL
NO_CHARGES


@<TRIPOS>ATOM
      1 C1         15.6200   36.7170   18.3630 C.3       1 K2E200      0.0000 
      2 O1         14.9180   35.4570   18.5330 O.3       1 K2E200      0.0000 
      3 C2         15.5210   34.5500   17.6900 C.ar      1 K2E200      0.0000 
      4 O2         16.5050   36.5260   17.2440 O.3       1 K2E200      0.0000 
      5 C3         16.4570   35.1900   16.9080 C.ar      1 K2E200      0.0000 
      6 C4         17.1950   34.5020   15.9530 C.ar      1 K2E200      0.0000 
      7 C5         17.0290   33.1160   15.7760 C.ar      1 K2E200      0.0000 
      8 C6         16.0420   32.4880   16.5600 C.ar      1 K2E200      0.0000 
      9 C7         15.2840   33.1980   17.5180 C.ar      1 K2E200      0.0000 
     10 S8         17.9600   32.2970   14.7070 S.o2      1 K2E200      0.0000 
     11 O9         17.2300   31.1650   14.1990 O.2       1 K2E200      0.0000 
     12 O10        18.4890   33.1680   13.6830 O.2       1 K2E200      0.0000 
     13 N11        19.2300   31.6890   15.5320 N.pl3     1 K2E200      0.0000 
     14 C12        19.9510   32.6910   16.3510 C.3       1 K2E200      0.0000 
     15 C13        21.4670   32.4750   16.3430 C.3       1 K2E200      0.0000 
     16 C14        22.0610   32.6170   14.9310 C.3       1 K2E200      0.0000 
     17 C15        22.1360   33.4370   17.3380 C.3       1 K2E200      0.0000 
     18 C16        18.9190   30.4610   16.2880 C.3       1 K2E200      0.0000 
     19 C17        19.8470   29.3730   15.7400 C.3       1 K2E200      0.0000 
     20 C18        21.9910   34.9000   17.0010 C.3       1 K2E200      0.0000 
     21 O18        19.9230   28.2710   16.6430 O.3       1 K2E200      0.0000 
     22 C19        19.4860   28.9020   14.3340 C.3       1 K2E200      0.0000 
     23 C20        23.4600   32.0600   14.8370 C.3       1 K2E200      0.0000 
     24 N20        20.5830   28.1050   13.8450 N.am      1 K2E200      0.0000 
     25 C21        21.4770   28.4460   12.9310 C.2       1 K2E200      0.0000 
     26 O22        21.6270   29.4930   12.3300 O.2       1 K2E200      0.0000 
     27 O23        22.3930   27.3740   12.6440 O.3       1 K2E200      0.0000 
     28 C24        23.2650   27.5210   11.5280 C.3       1 K2E200      0.0000 
     29 C25        24.5850   26.9280   12.0000 C.3       1 K2E200      0.0000 
     30 O26        24.3950   25.5220   11.8700 O.3       1 K2E200      0.0000 
     31 C27        23.5090   25.2500   10.7890 C.3       1 K2E200      0.0000 
     32 O28        22.5120   24.3050   11.1980 O.3       1 K2E200      0.0000 
     33 C29        21.2600   24.9760   11.3350 C.3       1 K2E200      0.0000 
     34 C30        21.3560   26.1900   10.4100 C.3       1 K2E200      0.0000 
     35 C31        22.8330   26.5640   10.4400 C.3       1 K2E200      0.0000 
     36 C32        18.2020   28.0610   14.2430 C.3       1 K2E200      0.0000 
     37 C33        18.1340   26.3530   12.3800 C.ar      1 K2E200      0.0000 
     38 C34        17.9310   25.9860   11.0530 C.ar      1 K2E200      0.0000 
     39 C35        17.5280   26.9380   10.1290 C.ar      1 K2E200      0.0000 
     40 C36        17.3330   28.2480   10.5260 C.ar      1 K2E200      0.0000 
     41 C37        17.5410   28.6170   11.8580 C.ar      1 K2E200      0.0000 
     42 C38        17.9530   27.6730   12.7940 C.ar      1 K2E200      0.0000 
     43 H          16.1827   36.9569   19.2616 H         1 K2E200      0.0000 
     44 H          14.9118   37.5165   18.1609 H         1 K2E200      0.0000 
     45 H          17.8744   35.0059   15.3631 H         1 K2E200      0.0000 
     46 H          15.8650   31.4757   16.4321 H         1 K2E200      0.0000 
     47 H          14.5780   32.7102   18.0661 H         1 K2E200      0.0000 
     48 H          19.6027   32.6514   17.3948 H         1 K2E200      0.0000 
     49 H          19.7455   33.7065   15.9782 H         1 K2E200      0.0000 
     50 H          21.6607   31.4547   16.6911 H         1 K2E200      0.0000 
     51 H          22.0669   33.6796   14.6605 H         1 K2E200      0.0000 
     52 H          21.4065   32.0945   14.2232 H         1 K2E200      0.0000 
     53 H          23.2112   33.1787   17.4014 H         1 K2E200      0.0000 
     54 H          21.7118   33.2471   18.3433 H         1 K2E200      0.0000 
     55 H          17.8992   30.1577   16.1289 H         1 K2E200      0.0000 
     56 H          19.1212   30.5917   17.3365 H         1 K2E200      0.0000 
     57 H          20.8627   29.8391   15.6649 H         1 K2E200      0.0000 
     58 H          19.3665   29.7752   13.6989 H         1 K2E200      0.0000 
     59 H          20.6448   27.1250   14.3041 H         1 K2E200      0.0000 
     60 H          23.3972   28.4592   11.1846 H         1 K2E200      0.0000 
     61 H          24.7439   27.2260   13.0196 H         1 K2E200      0.0000 
     62 H          25.3675   27.2950   11.3623 H         1 K2E200      0.0000 
     63 H          24.0404   24.9143    9.9272 H         1 K2E200      0.0000 
     64 H          21.0945   25.3318   12.3385 H         1 K2E200      0.0000 
     65 H          20.4327   24.3690   11.0062 H         1 K2E200      0.0000 
     66 H          20.7733   26.9860   10.8026 H         1 K2E200      0.0000 
     67 H          21.0731   25.9126    9.4249 H         1 K2E200      0.0000 
     68 H          23.1677   26.8612    9.4958 H         1 K2E200      0.0000 
     69 H          17.3696   28.6461   14.6128 H         1 K2E200      0.0000 
     70 H          18.3206   27.1690   14.8449 H         1 K2E200      0.0000 
     71 H          18.4228   25.6391   13.0694 H         1 K2E200      0.0000 
     72 H          18.0799   25.0123   10.7613 H         1 K2E200      0.0000 
     73 H          17.3743   26.6675    9.1468 H         1 K2E200      0.0000 
     74 H          17.0338   28.9587    9.8436 H         1 K2E200      0.0000 
     75 H          17.3878   29.5936   12.1458 H         1 K2E200      0.0000 
     76 H          22.4384   35.4834   17.6789 H         1 K2E200      0.0000 
     77 H          22.3961   35.1185   16.1132 H         1 K2E200      0.0000 
     78 H          21.0314   35.1788   16.9619 H         1 K2E200      0.0000 
     79 H          23.8356   32.1531   13.9149 H         1 K2E200      0.0000 
     80 H          24.0886   32.5280   15.4582 H         1 K2E200      0.0000 
     81 H          23.4889   31.0876   15.0685 H         1 K2E200      0.0000 
     82 H          20.8209   28.3524   17.0755 H         1 K2E200      0.0000 
@<TRIPOS>BOND
     1    2    1 1    
     2    4    1 1    
     3   43    1 1    
     4   44    1 1    
     5    3    2 1    
     6    5    3 ar   
     7    9    3 ar   
     8    5    4 1    
     9    6    5 ar   
    10    7    6 ar   
    11   45    6 1    
    12    8    7 ar   
    13   10    7 1    
    14    9    8 ar   
    15   46    8 1    
    16   47    9 1    
    17   11   10 2    
    18   12   10 2    
    19   13   10 1    
    20   14   13 1    
    21   18   13 1    
    22   15   14 1    
    23   48   14 1    
    24   49   14 1    
    25   16   15 1    
    26   17   15 1    
    27   50   15 1    
    28   23   16 1    
    29   51   16 1    
    30   52   16 1    
    31   20   17 1    
    32   53   17 1    
    33   54   17 1    
    34   19   18 1    
    35   55   18 1    
    36   56   18 1    
    37   21   19 1    
    38   22   19 1    
    39   57   19 1    
    40   76   20 1    
    41   77   20 1    
    42   78   20 1    
    43   82   21 1    
    44   24   22 1    
    45   36   22 1    
    46   58   22 1    
    47   79   23 1    
    48   80   23 1    
    49   81   23 1    
    50   25   24 am   
    51   59   24 1    
    52   26   25 2    
    53   27   25 1    
    54   28   27 1    
    55   29   28 1    
    56   35   28 1    
    57   60   28 1    
    58   30   29 1    
    59   61   29 1    
    60   62   29 1    
    61   31   30 1    
    62   32   31 1    
    63   35   31 1    
    64   63   31 1    
    65   33   32 1    
    66   34   33 1    
    67   64   33 1    
    68   65   33 1    
    69   35   34 1    
    70   66   34 1    
    71   67   34 1    
    72   68   35 1    
    73   42   36 1    
    74   69   36 1    
    75   70   36 1    
    76   38   37 ar   
    77   42   37 ar   
    78   71   37 1    
    79   39   38 ar   
    80   72   38 1    
    81   40   39 ar   
    82   73   39 1    
    83   41   40 ar   
    84   74   40 1    
    85   42   41 ar   
    86   75   41 1    
@<TRIPOS>SUBSTRUCTURE
     1 K2E200      1 GROUP   
@<TRIPOS>SET

