#    Name: 2gru_CAK_2_INTS_M
#    Modification time : Tue Mar 25 15:03:05 2014

@<TRIPOS>MOLECULE
2gru_CAK_2_INTS_M
   55     0    15     0     0
SMALL
NO_CHARGES


@<TRIPOS>ATOM
      1 NZ          9.8370   14.7000  -20.2950 N.4       3 LYC4        0.0000 
      2 NZ          9.5660   14.5890  -21.5860 N.4      13 LYL4        0.0000 
      3 NZ          9.3110   15.4930  -18.1630 N.4       8 LYP4        0.0000 
      4 N           9.8370   14.7000  -20.2950 N.am      2 SEC2        0.0000 
      5 N           9.5660   14.5890  -21.5860 N.am     12 SEL2        0.0000 
      6 N          10.1080   14.8110  -19.0040 N.am      7 SEP2        0.0000 
      7 N          10.2905   13.0190  -21.4735 N.am      2 SEC2        0.0000 
      8 N          11.0150   11.4490  -21.3610 N.am      7 SEP2        0.0000 
      9 NZ          7.8710   16.0580  -20.1360 N.4       3 LYC4        0.0000 
     10 NZ          7.6250   16.2350  -21.6980 N.4      13 LYL4        0.0000 
     11 NZ          7.9915   17.6990  -21.6885 N.4       3 LYC4        0.0000 
     12 NZ          8.3580   19.1630  -21.6790 N.4       8 LYP4        0.0000 
     13 N           7.8710   16.0580  -20.1360 N.am      2 SEC2        0.0000 
     14 N           7.6250   16.2350  -21.6980 N.am     12 SEL2        0.0000 
     15 N           8.1170   15.8810  -18.5740 N.am      7 SEP2        0.0000 
     16 N           7.9915   17.6990  -21.6885 N.am      2 SEC2        0.0000 
     17 N           8.3580   19.1630  -21.6790 N.am      7 SEP2        0.0000 
     18 N           8.8895   17.8715  -22.4370 N.am      2 SEC2        0.0000 
     19 N           9.4210   16.5800  -23.1950 N.am     12 SEL2        0.0000 
     20 CA         12.3965   15.6325  -23.9205 C.3       5 GLC5        0.0000 
     21 CA         10.4700   16.3870  -24.1340 C.3      15 GLL5        0.0000 
     22 CA         14.3230   14.8780  -23.7070 C.3      10 GLP5        0.0000 
     23 CA         12.9855   16.0670  -24.9330 C.3       5 GLC5        0.0000 
     24 CA         11.6480   17.2560  -26.1590 C.3      15 GLL5        0.0000 
     25 Zn         11.5975   16.1130  -27.9765 Zn        4 ZIC7        0.0000 
     26 Zn         11.2180   16.0890  -26.8800 Zn       14 ZIL7        0.0000 
     27 Zn         11.9770   16.1370  -29.0730 Zn        9 ZIP7        0.0000 
     28 Zn         12.1625   17.1245  -28.7210 Zn        4 ZIC7        0.0000 
     29 Zn         12.3480   18.1120  -28.3690 Zn       14 ZIL7        0.0000 
     30 O          13.7260   18.1970  -28.3295 O.2       1 ALC1        0.0000 
     31 O          12.3480   18.1120  -28.3690 O.2      11 ALL1        0.0000 
     32 O          15.1040   18.2820  -28.2900 O.2       6 ALP1        0.0000 
     33 CA         13.6325   21.4805  -26.2170 C.3       5 GLC5        0.0000 
     34 CA         12.4380   19.6210  -26.3920 C.3      15 GLL5        0.0000 
     35 CA         14.8270   23.3400  -26.0420 C.3      10 GLP5        0.0000 
     36 N          13.7170   21.3700  -26.4060 N.am      2 SEC2        0.0000 
     37 N          12.5420   20.7150  -27.3230 N.am     12 SEL2        0.0000 
     38 N          14.8920   22.0250  -25.4890 N.am      7 SEP2        0.0000 
     39 O          14.0200   20.4555  -27.3340 O.2       1 ALC1        0.0000 
     40 O          12.5420   20.7150  -27.3230 O.2      11 ALL1        0.0000 
     41 O          15.4980   20.1960  -27.3450 O.2       6 ALP1        0.0000 
     42 N          13.6775   21.5415  -24.9250 N.am      2 SEC2        0.0000 
     43 N          12.4630   21.0580  -24.3610 N.am     12 SEL2        0.0000 
     44 O          11.4390   21.4835  -23.4705 O.2       1 ALC1        0.0000 
     45 O          12.4630   21.0580  -24.3610 O.2      11 ALL1        0.0000 
     46 O          10.4150   21.9090  -22.5800 O.2       6 ALP1        0.0000 
     47 O          12.2235   21.5730  -22.7300 O.2       1 ALC1        0.0000 
     48 O          11.9840   22.0880  -21.0990 O.2       6 ALP1        0.0000 
     49 CA         10.7655   18.7745  -22.2250 C.3       5 GLC5        0.0000 
     50 CA         11.2700   18.8510  -24.2370 C.3      15 GLL5        0.0000 
     51 CA         10.2610   18.6980  -20.2130 C.3      10 GLP5        0.0000 
     52 CA         10.2042   17.0485  -27.7960 C.3       5 GLC5        0.0000 
     53 CA          8.7190   16.2410  -28.9630 C.3      10 GLP5        0.0000 
     54 CA         11.2668   21.4975  -26.5930 C.3       5 GLC5        0.0000 
     55 CA         10.4700   23.1520  -27.4370 C.3      10 GLP5        0.0000 
@<TRIPOS>BOND
@<TRIPOS>SUBSTRUCTURE
     1 ALC1       30 GROUP        1 X    ALC  0     ROOT ALC X 1
     2 SEC2        4 GROUP        1 X    SEC  0     **** SEC X 2
     3 LYC4        1 GROUP        1 X    LYC  0     **** LYC X 4
     4 ZIC7       25 GROUP        1 X    ZIC  0     **** ZIC X 5
     5 GLC5       20 GROUP        1 X    GLC  0     **** GLC X 6
     6 ALP1       32 GROUP        1 Y    ALP  0     ROOT ALP Y 8
     7 SEP2        6 GROUP        1 Y    SEP  0     **** SEP Y 9
     8 LYP4        3 GROUP        1 Y    LYP  0     **** LYP Y 11
     9 ZIP7       27 GROUP        1 Y    ZIP  0     **** ZIP Y 12
    10 GLP5       22 GROUP        1 Y    GLP  0     **** GLP Y 13
    11 ALL1       31 GROUP        1 Z    ALL  0     ROOT ALL Z 15
    12 SEL2        5 GROUP        1 Z    SEL  0     **** SEL Z 16
    13 LYL4        2 GROUP        1 Z    LYL  0     **** LYL Z 18
    14 ZIL7       26 GROUP        1 Z    ZIL  0     **** ZIL Z 19
    15 GLL5       21 GROUP        1 Z    GLL  0     **** GLL Z 20
@<TRIPOS>SET

