#    Name: 2gru_CAK_2_ligand
#    Modification time : Tue Mar 25 15:03:05 2014

@<TRIPOS>MOLECULE
2gru_CAK_2_ligand
   29    29     1     0     0
SMALL
NO_CHARGES


@<TRIPOS>ATOM
      1 OAN         8.0330   14.4520  -23.4860 O.co2     1 CAK609      0.0000 
      2 PAM         8.6280   15.3530  -22.4480 P.3       1 CAK609      0.0000 
      3 OAO         9.5660   14.5890  -21.5860 O.co2     1 CAK609      0.0000 
      4 OAP         7.6250   16.2350  -21.6980 O.co2     1 CAK609      0.0000 
      5 OAL         9.4210   16.5800  -23.1950 O.3       1 CAK609      0.0000 
      6 CAK        10.4700   16.3870  -24.1340 C.3       1 CAK609      0.0000 
      7 CAF        10.7030   17.6360  -25.0180 C.3       1 CAK609      0.0000 
      8 CAA        11.6480   17.2560  -26.1590 C.3       1 CAK609      0.0000 
      9 OAG        11.2180   16.0890  -26.8800 O.3       1 CAK609      0.0000 
     10 CAB        11.7310   18.4560  -27.0990 C.3       1 CAK609      0.0000 
     11 OAH        12.3480   18.1120  -28.3690 O.3       1 CAK609      0.0000 
     12 CAC        12.4380   19.6210  -26.3920 C.3       1 CAK609      0.0000 
     13 OAI        12.5420   20.7150  -27.3230 O.3       1 CAK609      0.0000 
     14 CAD        11.6890   20.0650  -25.1060 C.3       1 CAK609      0.0000 
     15 OAJ        12.4630   21.0580  -24.3610 O.3       1 CAK609      0.0000 
     16 CAE        11.2700   18.8510  -24.2370 C.3       1 CAK609      0.0000 
     17 H          10.2625   15.5433  -24.8180 H         1 CAK609      0.0000 
     18 H          11.4320   16.1601  -23.6382 H         1 CAK609      0.0000 
     19 H           9.7518   17.9223  -25.4569 H         1 CAK609      0.0000 
     20 H          12.6382   17.1167  -25.7335 H         1 CAK609      0.0000 
     21 H          10.6859   18.7874  -27.2757 H         1 CAK609      0.0000 
     22 H          13.4263   19.2798  -26.1002 H         1 CAK609      0.0000 
     23 H          10.7425   20.5398  -25.4559 H         1 CAK609      0.0000 
     24 H          12.1458   18.5163  -23.6540 H         1 CAK609      0.0000 
     25 H          10.5113   19.1851  -23.5078 H         1 CAK609      0.0000 
     26 H          10.4154   15.7591  -26.3830 H         1 CAK609      0.0000 
     27 H          13.1824   18.6617  -28.4086 H         1 CAK609      0.0000 
     28 H          13.5161   20.7782  -27.5402 H         1 CAK609      0.0000 
     29 H          11.8138   21.4612  -23.7160 H         1 CAK609      0.0000 
@<TRIPOS>BOND
     1    2    1 ar   
     2    3    2 ar   
     3    4    2 ar   
     4    5    2 1    
     5    6    5 1    
     6    7    6 1    
     7   17    6 1    
     8   18    6 1    
     9    8    7 1    
    10   16    7 1    
    11   19    7 1    
    12    9    8 1    
    13   10    8 1    
    14   20    8 1    
    15   26    9 1    
    16   11   10 1    
    17   12   10 1    
    18   21   10 1    
    19   27   11 1    
    20   13   12 1    
    21   14   12 1    
    22   22   12 1    
    23   28   13 1    
    24   15   14 1    
    25   16   14 1    
    26   23   14 1    
    27   29   15 1    
    28   24   16 1    
    29   25   16 1    
@<TRIPOS>SUBSTRUCTURE
     1 CAK609      1 GROUP   
@<TRIPOS>SET

