#    Name: 1B5H_1_CAVITY_N1_6.mol2
#    Modification time : Mon Mar 10 14:18:15 2014

@<TRIPOS>MOLECULE
1B5H_1_CAVITY_N1_6.mol2
   42     0     4     0     0
SMALL
NO_CHARGES


@<TRIPOS>ATOM
      1 O          -3.5847   23.8911   12.9193 O.2       2 ALA2        0.0000 
      2 O          -3.8423   23.1049   14.1705 O.2       2 ALA2        0.0000 
      3 O          -2.0222   22.3177   15.8490 O.2       2 ALA2        0.0000 
      4 OG         -2.6918   22.2011   13.8395 O.2       1 SER1        0.0000 
      5 N          -2.9495   21.4149   15.0907 N.2       2 ALA2        0.0000 
      6 O          -3.2072   20.6286   16.3418 O.2       2 ALA2        0.0000 
      7 CZ         -3.6192   21.2983   13.0812 C.ar      3 PHE5        0.0000 
      8 O          -3.8769   20.5121   14.3324 O.2       2 ALA2        0.0000 
      9 N          -4.1346   19.7258   15.5835 N.2       2 ALA2        0.0000 
     10 CZ         -0.8717   21.4139   15.5180 C.ar      3 PHE5        0.0000 
     11 O          -1.1294   20.6277   16.7692 O.2       2 ALA2        0.0000 
     12 OG         -1.5413   21.2973   13.5085 O.2       1 SER1        0.0000 
     13 OG         -1.7990   20.5111   14.7597 O.2       1 SER1        0.0000 
     14 OG         -2.0567   19.7249   16.0109 O.2       1 SER1        0.0000 
     15 OG         -2.7264   19.6083   14.0014 O.2       1 SER1        0.0000 
     16 OG         -2.9841   18.8221   15.2526 O.2       1 SER1        0.0000 
     17 N          -3.6537   18.7055   13.2431 N.2       2 ALA2        0.0000 
     18 N          -3.9114   17.9193   14.4943 N.2       2 ALA2        0.0000 
     19 CZ          0.5365   21.2963   13.9359 C.ar      3 PHE5        0.0000 
     20 CZ          0.2788   20.5101   15.1870 C.ar      3 PHE5        0.0000 
     21 N           0.0211   19.7239   16.4382 N.2       2 ALA2        0.0000 
     22 OG         -0.3908   20.3935   13.1776 O.2       1 SER1        0.0000 
     23 OG         -0.6485   19.6073   14.4287 O.2       1 SER1        0.0000 
     24 OG         -0.9062   18.8211   15.6799 O.2       1 SER1        0.0000 
     25 OG         -1.1639   18.0349   16.9311 O.2       1 SER1        0.0000 
     26 OG         -1.5759   18.7045   13.6704 O.2       1 SER1        0.0000 
     27 OG         -1.8336   17.9183   14.9216 O.2       1 SER1        0.0000 
     28 OG         -2.5032   17.8017   12.9121 O.2       1 SER1        0.0000 
     29 CZ         -2.7609   17.0155   14.1633 C.ar      3 PHE5        0.0000 
     30 CZ          2.6143   21.2954   14.3632 C.ar      3 PHE5        0.0000 
     31 CZ          2.3566   20.5091   15.6144 C.ar      3 PHE5        0.0000 
     32 O           1.6870   20.3926   13.6049 O.2       2 ALA2        0.0000 
     33 CA          1.4293   19.6063   14.8561 C.3       4 GLY6        0.0000 
     34 N           1.1716   18.8201   16.1073 N.2       2 ALA2        0.0000 
     35 CA          0.5020   18.7035   14.0978 C.3       4 GLY6        0.0000 
     36 CA          0.2443   17.9173   15.3490 C.3       4 GLY6        0.0000 
     37 CA         -0.0134   17.1311   16.6001 C.3       4 GLY6        0.0000 
     38 CA         -0.4254   17.8007   13.3395 C.3       4 GLY6        0.0000 
     39 CA         -0.6831   17.0145   14.5907 C.3       4 GLY6        0.0000 
     40 N           3.5071   19.6054   15.2834 N.2       2 ALA2        0.0000 
     41 CA          2.5798   18.7026   14.5251 C.3       4 GLY6        0.0000 
     42 O           2.3221   17.9163   15.7763 O.2       2 ALA2        0.0000 
@<TRIPOS>BOND
@<TRIPOS>SUBSTRUCTURE
     1 SER1        4 GROUP   
     2 ALA2        1 GROUP   
     3 PHE5        7 GROUP   
     4 GLY6       33 GROUP   
@<TRIPOS>SET

