#    Name: 1b5h_LYS_LYS_DPP_1_INTS_M
#    Modification time : Mon Mar 24 19:23:33 2014

@<TRIPOS>MOLECULE
1b5h_LYS_LYS_DPP_1_INTS_M
   91     0    12     0     0
SMALL
NO_CHARGES


@<TRIPOS>ATOM
      1 OD1         7.6070   15.8110   14.2355 O.co2     3 ASC3        0.0000 
      2 OD1         6.8510   16.4590   15.1270 O.co2    11 ASL3        0.0000 
      3 OD1         8.3630   15.1630   13.3440 O.co2     7 ASP3        0.0000 
      4 OD1         8.3995   15.8345   15.0085 O.co2     3 ASC3        0.0000 
      5 OD1         9.9480   15.2100   14.8900 O.co2     7 ASP3        0.0000 
      6 O           6.1790   15.3235   15.3650 O.2       1 ALC1        0.0000 
      7 O           6.8510   16.4590   15.1270 O.2       9 ALL1        0.0000 
      8 O           5.5070   14.1880   15.6030 O.2       5 ALP1        0.0000 
      9 O           7.6070   15.8110   14.2355 O.2       1 ALC1        0.0000 
     10 O           8.3630   15.1630   13.3440 O.2       5 ALP1        0.0000 
     11 O           8.3995   15.8345   15.0085 O.2       1 ALC1        0.0000 
     12 O           9.9480   15.2100   14.8900 O.2       5 ALP1        0.0000 
     13 CA          8.4965   18.1830   14.5295 C.3       4 GLC5        0.0000 
     14 CA          6.3990   17.7750   14.5860 C.3      12 GLL5        0.0000 
     15 CA         10.5940   18.5910   14.4730 C.3       8 GLP5        0.0000 
     16 CA          7.4395   17.9960   16.1500 C.3       4 GLC5        0.0000 
     17 CA          8.4800   18.2170   17.7140 C.3       8 GLP5        0.0000 
     18 N           3.8365   16.3090   16.3985 N.am      2 SEC2        0.0000 
     19 N           4.3960   17.5280   15.8720 N.am     10 SEL2        0.0000 
     20 N           3.2770   15.0900   16.9250 N.am      6 SEP2        0.0000 
     21 CA          3.8510   15.4540   13.6650 C.3       4 GLC5        0.0000 
     22 CA          5.1600   16.6480   12.6150 C.3      12 GLL5        0.0000 
     23 CA          2.5420   14.2600   14.7150 C.3       8 GLP5        0.0000 
     24 CA          8.4490   15.8755   10.7490 C.3       4 GLC5        0.0000 
     25 CA          6.3270   15.9790   10.4570 C.3      12 GLL5        0.0000 
     26 CA         10.5710   15.7720   11.0410 C.3       8 GLP5        0.0000 
     27 OD1         7.4465   14.8525   12.0975 O.co2     3 ASC3        0.0000 
     28 OD1         6.5300   14.5420   10.8510 O.co2    11 ASL3        0.0000 
     29 O           5.1160   13.7080   11.3725 O.2       1 ALC1        0.0000 
     30 O           6.5300   14.5420   10.8510 O.2       9 ALL1        0.0000 
     31 O           3.7020   12.8740   11.8940 O.2       5 ALP1        0.0000 
     32 O           5.4320   14.1650   10.0815 O.2       1 ALC1        0.0000 
     33 O           4.3340   13.7880    9.3120 O.2       5 ALP1        0.0000 
     34 O           6.2310   13.3740   12.0665 O.2       1 ALC1        0.0000 
     35 O           5.9320   12.2060   13.2820 O.2       5 ALP1        0.0000 
     36 O           7.4465   14.8525   12.0975 O.2       1 ALC1        0.0000 
     37 O           1.7815   19.4295   17.4700 O.2       1 ALC1        0.0000 
     38 O           1.5580   19.9130   16.1280 O.2       9 ALL1        0.0000 
     39 O           2.0050   18.9460   18.8120 O.2       5 ALP1        0.0000 
     40 CA          0.6025   21.6970   15.2160 C.3       4 GLC5        0.0000 
     41 CA          0.2770   19.8620   15.4450 C.3      12 GLL5        0.0000 
     42 CA          0.9280   23.5320   14.9870 C.3       8 GLP5        0.0000 
     43 CA         -1.2285   17.5995   11.3115 C.3       4 GLC5        0.0000 
     44 CA         -2.9320   17.0490   12.6730 C.3      12 GLL5        0.0000 
     45 CA          0.4750   18.1500    9.9500 C.3       8 GLP5        0.0000 
     46 CA         -3.0950   18.6735   11.3865 C.3       4 GLC5        0.0000 
     47 CA         -3.2580   20.2980   10.1000 C.3       8 GLP5        0.0000 
     48 O          -2.9125   19.2820   11.7760 O.2       1 ALC1        0.0000 
     49 O          -3.6490   18.3570   12.6010 O.2       9 ALL1        0.0000 
     50 O          -2.1760   20.2070   10.9510 O.2       5 ALP1        0.0000 
     51 O          -5.0495   17.5100   12.1940 O.2       1 ALC1        0.0000 
     52 O          -6.4500   16.6630   11.7870 O.2       5 ALP1        0.0000 
     53 O          -5.0110   18.7700   13.2455 O.2       1 ALC1        0.0000 
     54 O          -6.3730   19.1830   13.8900 O.2       5 ALP1        0.0000 
     55 N          -1.5555   21.8385   17.9665 N.am      2 SEC2        0.0000 
     56 N          -0.6430   20.9740   17.3660 N.am     10 SEL2        0.0000 
     57 N          -2.4680   22.7030   18.5670 N.am      6 SEP2        0.0000 
     58 N          -1.8190   20.7400   18.2620 N.am      2 SEC2        0.0000 
     59 N          -2.9950   20.5060   19.1580 N.am      6 SEP2        0.0000 
     60 O           5.9590   20.3020   14.6255 O.2       1 ALC1        0.0000 
     61 O           5.0290   19.6060   15.4070 O.2       9 ALL1        0.0000 
     62 O           6.8890   20.9980   13.8440 O.2       5 ALP1        0.0000 
     63 CA          5.1140   19.2630   17.4405 C.3       4 GLC5        0.0000 
     64 CA          3.9730   20.2810   16.1400 C.3      12 GLL5        0.0000 
     65 CA          6.2550   18.2450   18.7410 C.3       8 GLP5        0.0000 
     66 N           2.8785   20.5470   12.8025 N.am      2 SEC2        0.0000 
     67 N           2.6220   20.5680   14.2230 N.am     10 SEL2        0.0000 
     68 N           3.1350   20.5260   11.3820 N.am      6 SEP2        0.0000 
     69 CA          6.0525   22.9085   15.7315 C.3       4 GLC5        0.0000 
     70 CA          4.3340   21.7650   16.3790 C.3      12 GLL5        0.0000 
     71 CA          7.7710   24.0520   15.0840 C.3       8 GLP5        0.0000 
     72 CA          2.6310   22.6485   15.6830 C.3       4 GLC5        0.0000 
     73 CA          3.8750   23.8130   16.8555 C.3       4 GLC5        0.0000 
     74 CA          3.4160   25.8610   17.3320 C.3       8 GLP5        0.0000 
     75 CA          3.6113   17.3756   11.9725 C.3       4 GLC5        0.0000 
     76 CA          5.0520   16.5520   11.0840 C.3      12 GLL5        0.0000 
     77 CA          1.8690   17.8880   11.9820 C.3       8 GLP5        0.0000 
     78 CA          5.8487   17.4652    9.3382 C.3       4 GLC5        0.0000 
     79 CA          6.0080   18.6650    7.9060 C.3       8 GLP5        0.0000 
     80 CA          0.9385   18.5175   13.6665 C.3       4 GLC5        0.0000 
     81 CA         -0.2610   18.4320   15.2570 C.3      12 GLL5        0.0000 
     82 CA          0.1380   17.8308   12.9650 C.3       4 GLC5        0.0000 
     83 CA         -1.8600   17.1080   13.7590 C.3      12 GLL5        0.0000 
     84 CA         -2.6420   15.1867   13.0590 C.3       4 GLC5        0.0000 
     85 CA         -2.8880   13.2950   12.9020 C.3       8 GLP5        0.0000 
     86 CA         -0.2554   16.2929   14.5360 C.3       4 GLC5        0.0000 
     87 CA          0.8160   14.8140   14.8440 C.3       8 GLP5        0.0000 
     88 CA         -3.4910   16.5703   14.9735 C.3       4 GLC5        0.0000 
     89 CA         -4.5860   16.0620   16.7310 C.3       8 GLP5        0.0000 
     90 CA          4.4668   21.4810   14.3218 C.3       4 GLC5        0.0000 
     91 CA          4.7800   21.9390   12.3840 C.3       8 GLP5        0.0000 
@<TRIPOS>BOND
@<TRIPOS>SUBSTRUCTURE
     1 ALC1        6 GROUP        1 X    ALC  0     ROOT ALC X 1
     2 SEC2       18 GROUP        1 X    SEC  0     **** SEC X 2
     3 ASC3        1 GROUP        1 X    ASC  0     **** ASC X 3
     4 GLC5       13 GROUP        1 X    GLC  0     **** GLC X 6
     5 ALP1        8 GROUP        1 Y    ALP  0     ROOT ALP Y 8
     6 SEP2       20 GROUP        1 Y    SEP  0     **** SEP Y 9
     7 ASP3        3 GROUP        1 Y    ASP  0     **** ASP Y 10
     8 GLP5       15 GROUP        1 Y    GLP  0     **** GLP Y 13
     9 ALL1        7 GROUP        1 Z    ALL  0     ROOT ALL Z 15
    10 SEL2       19 GROUP        1 Z    SEL  0     **** SEL Z 16
    11 ASL3        2 GROUP        1 Z    ASL  0     **** ASL Z 17
    12 GLL5       14 GROUP        1 Z    GLL  0     **** GLL Z 20
@<TRIPOS>SET

