#    Name: 1b5h_LYS_LYS_DPP_1_ligand
#    Modification time : Mon Mar 24 19:23:33 2014

@<TRIPOS>MOLECULE
1b5h_LYS_LYS_DPP_1_ligand
   58    57     3     0     0
SMALL
NO_CHARGES


@<TRIPOS>ATOM
      1 N           6.8510   16.4590   15.1270 N.4       1 LYS1        0.0000
      2 CA          6.3990   17.7750   14.5860 C.3       1 LYS1        0.0000
      3 C           5.1800   18.3030   15.3350 C.2       1 LYS1        0.0000
      4 O           4.3960   17.5280   15.8720 O.2       1 LYS1        0.0000
      5 CB          6.1500   17.7010   13.0690 C.3       1 LYS1        0.0000
      6 CG          5.1600   16.6480   12.6150 C.3       1 LYS1        0.0000
      7 CD          5.0520   16.5520   11.0840 C.3       1 LYS1        0.0000
      8 CE          6.3270   15.9790   10.4570 C.3       1 LYS1        0.0000
      9 NZ          6.5300   14.5420   10.8510 N.4       1 LYS1        0.0000
     10 HA          7.2180   18.5066   14.7380 H         1 LYS1        0.0000
     11 HB2         7.1243   17.5269   12.5651 H         1 LYS1        0.0000
     12 HB3         5.8047   18.6988   12.7245 H         1 LYS1        0.0000
     13 HG2         4.1671   16.8783   13.0224 H         1 LYS1        0.0000
     14 HG3         5.4614   15.6681   13.0070 H         1 LYS1        0.0000
     15 HD2         4.8683   17.5484   10.6777 H         1 LYS1        0.0000
     16 HD3         4.2061   15.9116   10.8271 H         1 LYS1        0.0000
     17 HE2         7.1797   16.5781   10.7859 H         1 LYS1        0.0000
     18 HE3         6.2498   16.0585    9.3698 H         1 LYS1        0.0000
     19 HNCA        7.6511   16.1115   14.6380 H         1 LYS1        0.0000
     20 H           7.1020   16.5210   16.0930 H         1 LYS1        0.0000
     21 H           6.1373   15.7624   15.0537 H         1 LYS1        0.0000
     22 HZ1         7.3592   14.1589   10.4440 H         1 LYS1        0.0000
     23 HZ2         6.6143   14.4369   11.8419 H         1 LYS1        0.0000
     24 HZ3         5.7669   13.9655   10.5590 H         1 LYS1        0.0000
     25 N           1.5580   19.9130   16.1280 N.am      2 LYS3        0.0000
     26 CA          0.2770   19.8620   15.4450 C.3       2 LYS3        0.0000
     27 C          -0.8060   20.6720   16.1850 C.2       2 LYS3        0.0000
     28 O          -1.7740   21.0270   15.4930 O.2       2 LYS3        0.0000
     29 CB         -0.2610   18.4320   15.2570 C.3       2 LYS3        0.0000
     30 CG         -1.3260   18.4390   14.1370 C.3       2 LYS3        0.0000
     31 CD         -1.8600   17.1080   13.7590 C.3       2 LYS3        0.0000
     32 CE         -2.9320   17.0490   12.6730 C.3       2 LYS3        0.0000
     33 NZ         -3.6490   18.3570   12.6010 N.4       2 LYS3        0.0000
     34 OXT        -0.6430   20.9740   17.3660 O.3       2 LYS3        0.0000
     35 HNCA        1.5785   19.6672   17.1140 H         2 LYS3        0.0000
     36 HA          0.3570   20.3027   14.4403 H         2 LYS3        0.0000
     37 HB2        -0.7146   18.0959   16.1750 H         2 LYS3        0.0000
     38 HB3         0.5478   17.7790   14.9726 H         2 LYS3        0.0000
     39 HG2        -0.8772   18.9359   13.2493 H         2 LYS3        0.0000
     40 HG3        -2.1551   19.1032   14.4654 H         2 LYS3        0.0000
     41 HD2        -2.2716   16.5973   14.6735 H         2 LYS3        0.0000
     42 HD3        -1.0111   16.4426   13.4377 H         2 LYS3        0.0000
     43 HE2        -3.6310   16.2502   12.9124 H         2 LYS3        0.0000
     44 HE3        -2.4550   16.8293   11.7201 H         2 LYS3        0.0000
     45 HZ1        -3.0274   19.1099   12.3847 H         2 LYS3        0.0000
     46 HZ2        -4.3599   18.3526   11.8978 H         2 LYS3        0.0000
     47 HZ3        -4.0946   18.5844   13.4669 H         2 LYS3        0.0000
     48 H           0.2973   21.3101   17.4197 H         2 LYS3        0.0000
     49 N           5.0290   19.6060   15.4070 N.am      3 DPP2        0.0000
     50 CA          3.9730   20.2810   16.1400 C.3       3 DPP2        0.0000
     51 C           2.6380   20.2790   15.4270 C.2       3 DPP2        0.0000
     52 O           2.6220   20.5680   14.2230 O.2       3 DPP2        0.0000
     53 CB          4.3340   21.7650   16.3790 C.3       3 DPP2        0.0000
     54 NG          5.2700   21.7450   17.5120 N.3       3 DPP2        0.0000
     55 H           5.7045   20.2650   14.9085 H         3 DPP2        0.0000
     56 H           3.8300   19.8395   17.1234 H         3 DPP2        0.0000
     57 H           3.4378   22.2955   16.6205 H         3 DPP2        0.0000
     58 H           4.7977   22.1460   15.4943 H         3 DPP2        0.0000
@<TRIPOS>BOND
     1    2    1 1
     2   19    1 1
     3   20    1 1
     4   21    1 1
     5    3    2 1
     6    5    2 1
     7   10    2 1
     8    4    3 2
     9    6    5 1
    10   11    5 1
    11   12    5 1
    12    7    6 1
    13   13    6 1
    14   14    6 1
    15    8    7 1
    16   15    7 1
    17   16    7 1
    18    9    8 1
    19   17    8 1
    20   18    8 1
    21   22    9 1
    22   23    9 1
    23   24    9 1
    24   26   25 1
    25   35   25 1
    26   27   26 1
    27   29   26 1
    28   36   26 1
    29   28   27 2
    30   34   27 1
    31   30   29 1
    32   37   29 1
    33   38   29 1
    34   31   30 1
    35   39   30 1
    36   40   30 1
    37   32   31 1
    38   41   31 1
    39   42   31 1
    40   33   32 1
    41   43   32 1
    42   44   32 1
    43   45   33 1
    44   46   33 1
    45   47   33 1
    46   48   34 1
    47   50   49 1
    48   55   49 1
    49   51   50 1
    50   53   50 1
    51   56   50 1
    52   52   51 2
    53   54   53 1
    54   57   53 1
    55   58   53 1
    56   49    3 1 
    57   51   25 am
@<TRIPOS>SUBSTRUCTURE
     1 LYS1        1 RESIDUE
     2 LYS3       25 RESIDUE
     3 DPP2       49 GROUP
@<TRIPOS>SET

