#    Name: 4h80_04T_4_INTS_M
#    Modification time : Tue Mar 25 00:36:26 2014

@<TRIPOS>MOLECULE
4h80_04T_4_INTS_M
   56     0     6     0     0
SMALL
NO_CHARGES


@<TRIPOS>ATOM
      1 CA         20.6170  -15.8285  -96.5605 C.3       2 GLC5        0.0000 
      2 CA         21.0000  -15.9330  -98.4040 C.3       6 GLL5        0.0000 
      3 CA         20.2340  -15.7240  -94.7170 C.3       4 GLP5        0.0000 
      4 CA         22.8125  -14.0750  -97.5475 C.3       2 GLC5        0.0000 
      5 CA         22.0840  -15.2730  -98.9830 C.3       6 GLL5        0.0000 
      6 CA         23.5410  -12.8770  -96.1120 C.3       4 GLP5        0.0000 
      7 CA         19.6775  -18.8155 -101.1820 C.3       2 GLC5        0.0000 
      8 CA         20.9940  -17.5090 -100.2010 C.3       6 GLL5        0.0000 
      9 CA         18.3610  -20.1220 -102.1630 C.3       4 GLP5        0.0000 
     10 N          16.8325  -17.0485 -100.2690 N.am      1 SEC2        0.0000 
     11 N          18.0670  -17.4910  -99.2080 N.am      5 SEL2        0.0000 
     12 N          15.5980  -16.6060 -101.3300 N.am      3 SEP2        0.0000 
     13 N          17.0585  -16.7870  -98.3305 N.am      1 SEC2        0.0000 
     14 N          16.0500  -16.0830  -97.4530 N.am      3 SEP2        0.0000 
     15 N          18.1655  -16.7370  -96.0160 N.am      1 SEC2        0.0000 
     16 N          19.0310  -17.4760  -97.0510 N.am      5 SEL2        0.0000 
     17 N          17.3000  -15.9980  -94.9810 N.am      3 SEP2        0.0000 
     18 CA         19.8845  -20.5340 -100.0420 C.3       2 GLC5        0.0000 
     19 CA         19.4570  -19.4930  -98.5250 C.3       6 GLL5        0.0000 
     20 CA         20.3120  -21.5750 -101.5590 C.3       4 GLP5        0.0000 
     21 CA         17.5725  -19.2715  -98.4555 C.3       2 GLC5        0.0000 
     22 CA         15.6880  -19.0500  -98.3860 C.3       4 GLP5        0.0000 
     23 CA         21.1530  -18.7795  -97.4675 C.3       2 GLC5        0.0000 
     24 CA         22.8490  -18.0660  -96.4100 C.3       4 GLP5        0.0000 
     25 CA         19.8675  -20.4760  -96.9790 C.3       2 GLC5        0.0000 
     26 CA         20.2780  -21.4590  -95.4330 C.3       4 GLP5        0.0000 
     27 CA         23.0965  -11.4310 -100.0135 C.3       2 GLC5        0.0000 
     28 CA         24.4460  -12.8610 -100.6210 C.3       6 GLL5        0.0000 
     29 CA         21.7470  -10.0010  -99.4060 C.3       4 GLP5        0.0000 
     30 CA         24.2950  -10.4530  -99.7730 C.3       2 GLC5        0.0000 
     31 CA         25.3640  -11.9230 -100.1390 C.3       6 GLL5        0.0000 
     32 CA         23.2260   -8.9830  -99.4070 C.3       4 GLP5        0.0000 
     33 CA         28.9485  -13.5030  -98.6605 C.3       2 GLC5        0.0000 
     34 CA         28.3610  -12.5790  -96.9890 C.3       6 GLL5        0.0000 
     35 CA         29.5360  -14.4270 -100.3320 C.3       4 GLP5        0.0000 
     36 CA         27.0805  -10.8520  -96.5220 C.3       2 GLC5        0.0000 
     37 CA         25.8000   -9.1250  -96.0550 C.3       4 GLP5        0.0000 
     38 CA         28.3110  -12.0075  -95.2680 C.3       2 GLC5        0.0000 
     39 CA         28.2610  -11.4360  -93.5470 C.3       4 GLP5        0.0000 
     40 CA         28.0130  -14.2955  -97.0535 C.3       2 GLC5        0.0000 
     41 CA         27.6650  -16.0120  -97.1180 C.3       4 GLP5        0.0000 
     42 CA         22.4665  -16.8702  -97.9229 C.3       2 GLC5        0.0000 
     43 CA         20.6485  -17.2660 -102.4710 C.3       2 GLC5        0.0000 
     44 CA         19.7670  -17.3430 -104.4500 C.3       4 GLP5        0.0000 
     45 CA         21.7880  -17.6745  -98.0097 C.3       2 GLC5        0.0000 
     46 CA         19.7290  -15.0385  -98.1784 C.3       2 GLC5        0.0000 
     47 CA         20.4600  -17.0570  -99.0180 C.3       6 GLL5        0.0000 
     48 CA         18.4570  -13.7470  -97.5010 C.3       4 GLP5        0.0000 
     49 CA         24.3038  -13.6398  -97.9808 C.3       2 GLC5        0.0000 
     50 CA         24.5430  -14.2070 -100.2680 C.3       6 GLL5        0.0000 
     51 CA         25.3431  -12.2763 -102.0314 C.3       2 GLC5        0.0000 
     52 CA         25.7570  -11.8240 -103.7710 C.3       4 GLP5        0.0000 
     53 CA         24.9970  -12.9280  -97.6142 C.3       2 GLC5        0.0000 
     54 CA         26.4030  -12.3040  -99.2860 C.3       6 GLL5        0.0000 
     55 CA         26.8432  -14.9002  -98.1959 C.3       2 GLC5        0.0000 
     56 CA         26.5030  -13.6540  -98.9470 C.3       6 GLL5        0.0000 
@<TRIPOS>BOND
@<TRIPOS>SUBSTRUCTURE
     1 SEC2       10 GROUP        1 X    SEC  0     ROOT SEC X 2
     2 GLC5        1 GROUP        1 X    GLC  0     **** GLC X 6
     3 SEP2       12 GROUP        1 Y    SEP  0     ROOT SEP Y 9
     4 GLP5        3 GROUP        1 Y    GLP  0     **** GLP Y 13
     5 SEL2       11 GROUP        1 Z    SEL  0     ROOT SEL Z 16
     6 GLL5        2 GROUP        1 Z    GLL  0     **** GLL Z 20
@<TRIPOS>SET

