#    Name: 4h80_04T_4_ligand
#    Modification time : Tue Mar 25 00:36:27 2014

@<TRIPOS>MOLECULE
4h80_04T_4_ligand
   39    40     1     0     0
SMALL
NO_CHARGES


@<TRIPOS>ATOM
      1 C1         21.0000  -15.9330  -98.4040 C.ar      1 04T501      0.0000 
      2 C2         22.0840  -15.2730  -98.9830 C.ar      1 04T501      0.0000 
      3 C3         22.6260  -15.7460 -100.1780 C.ar      1 04T501      0.0000 
      4 C4         22.0660  -16.8690 -100.7830 C.ar      1 04T501      0.0000 
      5 C5         20.9940  -17.5090 -100.2010 C.ar      1 04T501      0.0000 
      6 C6         20.4600  -17.0570  -99.0180 C.ar      1 04T501      0.0000 
      7 S7         19.2170  -17.8500  -98.4250 S.o2      1 04T501      0.0000 
      8 O8         18.0670  -17.4910  -99.2080 O.2       1 04T501      0.0000 
      9 O9         19.0310  -17.4760  -97.0510 O.2       1 04T501      0.0000 
     10 C10        19.4570  -19.4930  -98.5250 C.3       1 04T501      0.0000 
     11 N11        22.5190  -17.4300 -101.9820 N.pl3     1 04T501      0.0000 
     12 O12        22.1120  -18.5440 -102.3050 O.2       1 04T501      0.0000 
     13 O13        23.2980  -16.8250 -102.7040 O.2       1 04T501      0.0000 
     14 N14        23.6720  -15.1270 -100.7780 N.pl3     1 04T501      0.0000 
     15 C15        24.5430  -14.2070 -100.2680 C.ar      1 04T501      0.0000 
     16 C16        24.4460  -12.8610 -100.6210 C.ar      1 04T501      0.0000 
     17 C17        25.3640  -11.9230 -100.1390 C.ar      1 04T501      0.0000 
     18 C18        26.4030  -12.3040  -99.2860 C.ar      1 04T501      0.0000 
     19 C19        26.5030  -13.6540  -98.9470 C.ar      1 04T501      0.0000 
     20 C20        25.5900  -14.5980  -99.4310 C.ar      1 04T501      0.0000 
     21 N21        27.3110  -11.3110  -98.8320 N.am      1 04T501      0.0000 
     22 C22        28.2180  -11.3490  -97.8330 C.2       1 04T501      0.0000 
     23 C23        28.3610  -12.5790  -96.9890 C.3       1 04T501      0.0000 
     24 O24        28.9330  -10.3860  -97.5930 O.2       1 04T501      0.0000 
     25 H          20.6016  -15.5859  -97.5220 H         1 04T501      0.0000 
     26 H          22.4812  -14.4424  -98.5313 H         1 04T501      0.0000 
     27 H          20.5845  -18.3447 -100.6637 H         1 04T501      0.0000 
     28 H          23.8485  -15.4043 -101.8320 H         1 04T501      0.0000 
     29 H          23.6853  -12.5512 -101.2476 H         1 04T501      0.0000 
     30 H          25.2723  -10.9324 -100.4183 H         1 04T501      0.0000 
     31 H          27.2694  -13.9662  -98.3234 H         1 04T501      0.0000 
     32 H          25.6924  -15.5876  -99.1671 H         1 04T501      0.0000 
     33 H          27.2462  -10.3675  -99.4017 H         1 04T501      0.0000 
     34 H          19.5840  -19.7929  -99.4705 H         1 04T501      0.0000 
     35 H          20.2670  -19.7818  -98.0146 H         1 04T501      0.0000 
     36 H          18.6807  -20.0048  -98.1569 H         1 04T501      0.0000 
     37 H          28.6161  -13.3767  -97.5354 H         1 04T501      0.0000 
     38 H          29.0641  -12.4678  -96.2866 H         1 04T501      0.0000 
     39 H          27.5091  -12.8070  -96.5175 H         1 04T501      0.0000 
@<TRIPOS>BOND
     1    2    1 ar   
     2    6    1 ar   
     3   25    1 1    
     4    3    2 ar   
     5   26    2 1    
     6    4    3 ar   
     7   14    3 1    
     8    5    4 ar   
     9   11    4 1    
    10    6    5 ar   
    11   27    5 1    
    12    7    6 1    
    13    8    7 2    
    14    9    7 2    
    15   10    7 1    
    16   34   10 1    
    17   35   10 1    
    18   36   10 1    
    19   12   11 2    
    20   13   11 2    
    21   15   14 1    
    22   28   14 1    
    23   16   15 ar   
    24   20   15 ar   
    25   17   16 ar   
    26   29   16 1    
    27   18   17 ar   
    28   30   17 1    
    29   19   18 ar   
    30   21   18 1    
    31   20   19 ar   
    32   31   19 1    
    33   32   20 1    
    34   22   21 am   
    35   33   21 1    
    36   23   22 1    
    37   24   22 2    
    38   37   23 1    
    39   38   23 1    
    40   39   23 1    
@<TRIPOS>SUBSTRUCTURE
     1 04T501      1 GROUP   
@<TRIPOS>SET

