#    Name: 2yww_ATP_3_INTS_M
#    Modification time : Tue Mar 25 09:48:08 2014

@<TRIPOS>MOLECULE
2yww_ATP_3_INTS_M
   72     0    15     0     0
SMALL
NO_CHARGES


@<TRIPOS>ATOM
      1 NZ         42.3595   29.3085   30.0410 N.4       3 LYC4        0.0000 
      2 NZ         41.2070   29.1970   31.1780 N.4      13 LYL4        0.0000 
      3 NZ         43.5120   29.4200   28.9040 N.4       8 LYP4        0.0000 
      4 Zn         41.7820   28.7120   31.8730 Zn        4 ZIC7        0.0000 
      5 Zn         41.2070   29.1970   31.1780 Zn       14 ZIL7        0.0000 
      6 Zn         42.3570   28.2270   32.5680 Zn        9 ZIP7        0.0000 
      7 N          41.6605   30.6620   31.0165 N.am      2 SEC2        0.0000 
      8 N          41.2070   29.1970   31.1780 N.am     12 SEL2        0.0000 
      9 N          42.1140   32.1270   30.8550 N.am      7 SEP2        0.0000 
     10 N          42.3595   29.3085   30.0410 N.am      2 SEC2        0.0000 
     11 N          43.5120   29.4200   28.9040 N.am      7 SEP2        0.0000 
     12 NZ         41.5335   29.6130   29.0290 N.4       3 LYC4        0.0000 
     13 NZ         39.5550   29.8060   29.1540 N.4      13 LYL4        0.0000 
     14 NZ         38.2510   29.6005   29.2360 N.4       3 LYC4        0.0000 
     15 NZ         36.9470   29.3950   29.3180 N.4       8 LYP4        0.0000 
     16 N          38.2510   29.6005   29.2360 N.am      2 SEC2        0.0000 
     17 N          39.5550   29.8060   29.1540 N.am     12 SEL2        0.0000 
     18 N          36.9470   29.3950   29.3180 N.am      7 SEP2        0.0000 
     19 N          39.2240   30.8045   30.1740 N.am      2 SEC2        0.0000 
     20 N          38.8930   31.8030   31.1940 N.am      7 SEP2        0.0000 
     21 NZ         42.3290   28.4930   29.0155 N.4       3 LYC4        0.0000 
     22 NZ         41.1460   27.5660   29.1270 N.4      13 LYL4        0.0000 
     23 N          42.3290   28.4930   29.0155 N.am      2 SEC2        0.0000 
     24 N          41.1460   27.5660   29.1270 N.am     12 SEL2        0.0000 
     25 Zn         41.5390   27.5635   32.5600 Zn        4 ZIC7        0.0000 
     26 Zn         40.7210   26.9000   32.5520 Zn       14 ZIL7        0.0000 
     27 NZ         36.7045   28.4910   30.2180 N.4       3 LYC4        0.0000 
     28 NZ         36.4620   27.5870   31.1180 N.4      13 LYL4        0.0000 
     29 N          36.7045   28.4910   30.2180 N.am      2 SEC2        0.0000 
     30 N          36.4620   27.5870   31.1180 N.am     12 SEL2        0.0000 
     31 CA         35.0850   28.7205   32.6870 C.3       5 GLC5        0.0000 
     32 CA         37.2410   29.2400   33.0000 C.3      15 GLL5        0.0000 
     33 CA         32.9290   28.2010   32.3740 C.3      10 GLP5        0.0000 
     34 CA         36.5405   31.7420   35.1170 C.3       5 GLC5        0.0000 
     35 CA         37.2550   30.0770   34.3110 C.3      15 GLL5        0.0000 
     36 CA         35.8260   33.4070   35.9230 C.3      10 GLP5        0.0000 
     37 N          37.1505   29.6020   38.9465 N.am      2 SEC2        0.0000 
     38 N          37.6510   28.6360   37.6720 N.am     12 SEL2        0.0000 
     39 N          36.6500   30.5680   40.2210 N.am      7 SEP2        0.0000 
     40 CA         35.8725   31.5480   36.0855 C.3       5 GLC5        0.0000 
     41 CA         35.9190   29.6890   36.2480 C.3      15 GLL5        0.0000 
     42 CA         32.1700   26.5770   37.9430 C.3       5 GLC5        0.0000 
     43 CA         32.6610   28.4020   37.2190 C.3      15 GLL5        0.0000 
     44 CA         31.6790   24.7520   38.6670 C.3      10 GLP5        0.0000 
     45 CA         31.2475   27.3280   39.3485 C.3       5 GLC5        0.0000 
     46 CA         31.5650   28.4750   38.1130 C.3      15 GLL5        0.0000 
     47 CA         30.9300   26.1810   40.5840 C.3      10 GLP5        0.0000 
     48 CA         30.5010   29.9390   39.0080 C.3       5 GLC5        0.0000 
     49 CA         29.4370   31.4030   39.9030 C.3      10 GLP5        0.0000 
     50 CA         29.9780   29.2285   36.9340 C.3       5 GLC5        0.0000 
     51 CA         28.3910   29.9820   35.7550 C.3      10 GLP5        0.0000 
     52 O          29.1970   28.2830   38.5070 O.2       1 ALC1        0.0000 
     53 O          30.3530   27.8910   37.7800 O.2      11 ALL1        0.0000 
     54 O          28.0410   28.6750   39.2340 O.2       6 ALP1        0.0000 
     55 O          29.8105   26.7675   36.9670 O.2       1 ALC1        0.0000 
     56 O          29.2680   25.6440   36.1540 O.2       6 ALP1        0.0000 
     57 N          30.7495   29.2700   40.3325 N.am      2 SEC2        0.0000 
     58 N          31.7310   29.1190   39.2940 N.am     12 SEL2        0.0000 
     59 N          29.7680   29.4210   41.3710 N.am      7 SEP2        0.0000 
     60 CA         31.9030   27.9665   40.0905 C.3       5 GLC5        0.0000 
     61 CA         32.8760   29.7520   39.5970 C.3      15 GLL5        0.0000 
     62 CA         31.1565   30.5775   39.7500 C.3       5 GLC5        0.0000 
     63 CA         33.1825   31.2930   38.1050 C.3       5 GLC5        0.0000 
     64 CA         33.4890   32.8340   36.6130 C.3      10 GLP5        0.0000 
     65 CA         34.1190   31.2265   39.9815 C.3       5 GLC5        0.0000 
     66 CA         35.3620   32.7010   40.3660 C.3      10 GLP5        0.0000 
     67 N          35.2960   30.1240   39.5070 N.am      2 SEC2        0.0000 
     68 N          33.9420   29.6800   38.7930 N.am     12 SEL2        0.0000 
     69 CA         33.6725   30.9565   37.0980 C.3       5 GLC5        0.0000 
     70 CA         33.8560   29.0790   37.5830 C.3      15 GLL5        0.0000 
     71 CA         32.1283   29.5763   35.8895 C.3       5 GLC5        0.0000 
     72 CA         30.9980   30.4120   34.3780 C.3      10 GLP5        0.0000 
@<TRIPOS>BOND
@<TRIPOS>SUBSTRUCTURE
     1 ALC1       52 GROUP        1 X    ALC  0     ROOT ALC X 1
     2 SEC2        7 GROUP        1 X    SEC  0     **** SEC X 2
     3 LYC4        1 GROUP        1 X    LYC  0     **** LYC X 4
     4 ZIC7        4 GROUP        1 X    ZIC  0     **** ZIC X 5
     5 GLC5       31 GROUP        1 X    GLC  0     **** GLC X 6
     6 ALP1       54 GROUP        1 Y    ALP  0     ROOT ALP Y 8
     7 SEP2        9 GROUP        1 Y    SEP  0     **** SEP Y 9
     8 LYP4        3 GROUP        1 Y    LYP  0     **** LYP Y 11
     9 ZIP7        6 GROUP        1 Y    ZIP  0     **** ZIP Y 12
    10 GLP5       33 GROUP        1 Y    GLP  0     **** GLP Y 13
    11 ALL1       53 GROUP        1 Z    ALL  0     ROOT ALL Z 15
    12 SEL2        8 GROUP        1 Z    SEL  0     **** SEL Z 16
    13 LYL4        2 GROUP        1 Z    LYL  0     **** LYL Z 18
    14 ZIL7        5 GROUP        1 Z    ZIL  0     **** ZIL Z 19
    15 GLL5       32 GROUP        1 Z    GLL  0     **** GLL Z 20
@<TRIPOS>SET

