#    Name: 2yww_ATP_3_ligand
#    Modification time : Tue Mar 25 09:48:08 2014

@<TRIPOS>MOLECULE
2yww_ATP_3_ligand
   43    45     1     0     0
SMALL
NO_CHARGES


@<TRIPOS>ATOM
      1 PG         40.7490   28.9660   29.8210 P.3       1 ATP400      0.0000 
      2 O1G        41.2070   29.1970   31.1780 O.co2     1 ATP400      0.0000 
      3 O2G        39.5550   29.8060   29.1540 O.co2     1 ATP400      0.0000 
      4 O3G        41.1460   27.5660   29.1270 O.co2     1 ATP400      0.0000 
      5 PB         39.8980   26.7780   31.3490 P.3       1 ATP400      0.0000 
      6 O1B        40.7210   26.9000   32.5520 O.co2     1 ATP400      0.0000 
      7 O2B        39.0410   25.4560   31.0440 O.co2     1 ATP400      0.0000 
      8 O3B        39.4640   28.1610   30.5330 O.3       1 ATP400      0.0000 
      9 PA         37.2080   26.7780   32.1040 P.3       1 ATP400      0.0000 
     10 O1A        36.4620   27.5870   31.1180 O.co2     1 ATP400      0.0000 
     11 O2A        36.4990   25.7860   33.1470 O.co2     1 ATP400      0.0000 
     12 O3A        38.7520   27.2250   32.4610 O.3       1 ATP400      0.0000 
     13 O5'        36.7020   27.8950   33.2280 O.3       1 ATP400      0.0000 
     14 C5'        37.2410   29.2400   33.0000 C.3       1 ATP400      0.0000 
     15 C4'        37.2550   30.0770   34.3110 C.3       1 ATP400      0.0000 
     16 O4'        35.9110   30.2090   34.8790 O.3       1 ATP400      0.0000 
     17 C3'        38.1420   29.4390   35.4110 C.3       1 ATP400      0.0000 
     18 O3'        38.9190   30.4420   36.0840 O.3       1 ATP400      0.0000 
     19 C2'        37.1380   28.7670   36.3410 C.3       1 ATP400      0.0000 
     20 O2'        37.6510   28.6360   37.6720 O.3       1 ATP400      0.0000 
     21 C1'        35.9190   29.6890   36.2480 C.3       1 ATP400      0.0000 
     22 N9         34.6860   28.9370   36.5070 N.pl3     1 ATP400      0.0000 
     23 C8         34.1350   27.9670   35.7110 C.2       1 ATP400      0.0000 
     24 N7         32.8830   27.8160   36.0230 N.2       1 ATP400      0.0000 
     25 C5         32.6610   28.4020   37.2190 C.ar      1 ATP400      0.0000 
     26 C6         31.5650   28.4750   38.1130 C.ar      1 ATP400      0.0000 
     27 N6         30.3530   27.8910   37.7800 N.pl3     1 ATP400      0.0000 
     28 N1         31.7310   29.1190   39.2940 N.ar      1 ATP400      0.0000 
     29 C2         32.8760   29.7520   39.5970 C.ar      1 ATP400      0.0000 
     30 N3         33.9420   29.6800   38.7930 N.ar      1 ATP400      0.0000 
     31 C4         33.8560   29.0790   37.5830 C.ar      1 ATP400      0.0000 
     32 H          36.6393   29.7866   32.2654 H         1 ATP400      0.0000 
     33 H          38.2699   29.1943   32.6261 H         1 ATP400      0.0000 
     34 H          37.6598   31.0545   34.0931 H         1 ATP400      0.0000 
     35 H          38.7296   28.6845   34.9464 H         1 ATP400      0.0000 
     36 H          36.8677   27.8294   35.8942 H         1 ATP400      0.0000 
     37 H          36.0464   30.4826   36.9442 H         1 ATP400      0.0000 
     38 H          34.6404   27.4867   35.0260 H         1 ATP400      0.0000 
     39 H          29.6386   27.9311   38.4786 H         1 ATP400      0.0000 
     40 H          30.2979   27.4801   36.8700 H         1 ATP400      0.0000 
     41 H          32.9329   30.3153   40.4855 H         1 ATP400      0.0000 
     42 H          38.5965   31.3122   35.7115 H         1 ATP400      0.0000 
     43 H          38.3871   29.3101   37.7330 H         1 ATP400      0.0000 
@<TRIPOS>BOND
     1    2    1 ar   
     2    3    1 ar   
     3    4    1 ar   
     4    8    1 1    
     5    6    5 ar   
     6    7    5 ar   
     7    8    5 1    
     8   12    5 1    
     9   10    9 ar   
    10   11    9 ar   
    11   12    9 1    
    12   13    9 1    
    13   14   13 1    
    14   15   14 1    
    15   32   14 1    
    16   33   14 1    
    17   16   15 1    
    18   17   15 1    
    19   34   15 1    
    20   21   16 1    
    21   18   17 1    
    22   19   17 1    
    23   35   17 1    
    24   42   18 1    
    25   20   19 1    
    26   21   19 1    
    27   36   19 1    
    28   43   20 1    
    29   22   21 1    
    30   37   21 1    
    31   23   22 1    
    32   31   22 1    
    33   24   23 2    
    34   38   23 1    
    35   25   24 1    
    36   26   25 ar   
    37   31   25 ar   
    38   27   26 1    
    39   28   26 ar   
    40   39   27 1    
    41   40   27 1    
    42   29   28 ar   
    43   30   29 ar   
    44   41   29 1    
    45   31   30 ar   
@<TRIPOS>SUBSTRUCTURE
     1 ATP400      1 GROUP   
@<TRIPOS>SET

