#    Name: 2iut_AGS_1_INTS_M
#    Modification time : Tue Mar 25 18:41:08 2014

@<TRIPOS>MOLECULE
2iut_AGS_1_INTS_M
   59     0    12     0     0
SMALL
NO_CHARGES


@<TRIPOS>ATOM
      1 CA         -3.0145   10.2220    2.3065 C.3       4 GLC5        0.0000 
      2 CA         -1.7160   11.3090    1.1660 C.3      12 GLL5        0.0000 
      3 CA         -4.3130    9.1350    3.4470 C.3       8 GLP5        0.0000 
      4 N          -0.8460   14.6860   -3.5115 N.am      2 SEC2        0.0000 
      5 N          -0.8190   14.8680   -1.9100 N.am     10 SEL2        0.0000 
      6 N          -0.8730   14.5040   -5.1130 N.am      6 SEP2        0.0000 
      7 N           0.4030   14.8915   -2.9290 N.am      2 SEC2        0.0000 
      8 N           1.6250   14.9150   -3.9480 N.am      6 SEP2        0.0000 
      9 N           0.6785   15.5810   -1.8230 N.am      2 SEC2        0.0000 
     10 N           2.1760   16.2940   -1.7360 N.am      6 SEP2        0.0000 
     11 Zn         -0.7570   13.8610    1.3805 Zn        3 ZIC7        0.0000 
     12 Zn         -0.4220   14.0020    0.4300 Zn       11 ZIL7        0.0000 
     13 Zn         -1.0920   13.7200    2.3310 Zn        7 ZIP7        0.0000 
     14 N           0.9845   14.7345    0.7380 N.am      2 SEC2        0.0000 
     15 N          -0.4220   14.0020    0.4300 N.am     10 SEL2        0.0000 
     16 N           2.3910   15.4670    1.0460 N.am      6 SEP2        0.0000 
     17 N          -2.5230   13.0415   -2.4495 N.am      2 SEC2        0.0000 
     18 N          -2.2770   13.1150   -0.9770 N.am     10 SEL2        0.0000 
     19 N          -2.7690   12.9680   -3.9220 N.am      6 SEP2        0.0000 
     20 N           3.6855   13.3395   -0.0590 N.am      2 SEC2        0.0000 
     21 N           2.7260   12.8890   -0.9210 N.am     10 SEL2        0.0000 
     22 N           4.6450   13.7900    0.8030 N.am      6 SEP2        0.0000 
     23 N           0.9180   13.8625   -2.7705 N.am      2 SEC2        0.0000 
     24 N           0.2110   12.8100   -1.5930 N.am     10 SEL2        0.0000 
     25 CA          4.0670    5.9820   -2.6435 C.3       4 GLC5        0.0000 
     26 CA          3.6910    8.0910   -2.9600 C.3      12 GLL5        0.0000 
     27 CA          4.4430    3.8730   -2.3270 C.3       8 GLP5        0.0000 
     28 O           4.3020    5.8585   -3.3440 O.2       1 ALC1        0.0000 
     29 O           3.4000    6.8830   -2.3030 O.2       9 ALL1        0.0000 
     30 O           5.2040    4.8340   -4.3850 O.2       5 ALP1        0.0000 
     31 O           4.2720    5.7745   -4.6880 O.2       1 ALC1        0.0000 
     32 O           3.3400    6.7150   -4.9910 O.2       9 ALL1        0.0000 
     33 CA          3.0465    9.9780   -7.0710 C.3       4 GLC5        0.0000 
     34 CA          3.4300    9.2680   -5.0450 C.3      12 GLL5        0.0000 
     35 CA          2.6630   10.6880   -9.0970 C.3       8 GLP5        0.0000 
     36 CA          9.0500   10.8415   -5.0350 C.3       4 GLC5        0.0000 
     37 CA          7.6180   11.8830   -5.6910 C.3      12 GLL5        0.0000 
     38 CA         10.4820    9.8000   -4.3790 C.3       8 GLP5        0.0000 
     39 O           9.4635   13.7960   -5.8200 O.2       1 ALC1        0.0000 
     40 O           8.3890   13.0610   -5.2740 O.2       9 ALL1        0.0000 
     41 O          10.5380   14.5310   -6.3660 O.2       5 ALP1        0.0000 
     42 CA          8.2560    8.2515   -7.2175 C.3       4 GLC5        0.0000 
     43 CA          7.4070    9.8910   -7.0270 C.3      12 GLL5        0.0000 
     44 CA          9.1050    6.6120   -7.4080 C.3       8 GLP5        0.0000 
     45 CA          5.6070   10.7575   -7.9345 C.3       4 GLC5        0.0000 
     46 CA          3.8070   11.6240   -8.8420 C.3       8 GLP5        0.0000 
     47 CA          8.9445    9.8455   -5.7030 C.3       4 GLC5        0.0000 
     48 CA          4.2710   10.0066   -1.7138 C.3       4 GLC5        0.0000 
     49 CA          2.4540    8.9620   -2.9580 C.3      12 GLL5        0.0000 
     50 CA          5.4530   11.2400   -0.7560 C.3       8 GLP5        0.0000 
     51 CA          5.7502    7.9172   -3.2045 C.3       4 GLC5        0.0000 
     52 CA          7.6800    7.8400   -2.7040 C.3       8 GLP5        0.0000 
     53 CA          7.2425   12.1285   -3.3647 C.3       4 GLC5        0.0000 
     54 CA          6.3200   11.6290   -5.1360 C.3      12 GLL5        0.0000 
     55 CA          7.5160   12.5010   -1.3160 C.3       8 GLP5        0.0000 
     56 CA          4.7580   11.8688   -6.5805 C.3       4 GLC5        0.0000 
     57 CA          3.5220   12.7070   -7.7840 C.3       8 GLP5        0.0000 
     58 CA          6.4225   13.5900   -5.9703 C.3       4 GLC5        0.0000 
     59 CA          5.8760   15.4240   -6.5270 C.3       8 GLP5        0.0000 
@<TRIPOS>BOND
@<TRIPOS>SUBSTRUCTURE
     1 ALC1       28 GROUP        1 X    ALC  0     ROOT ALC X 1
     2 SEC2        4 GROUP        1 X    SEC  0     **** SEC X 2
     3 ZIC7       11 GROUP        1 X    ZIC  0     **** ZIC X 5
     4 GLC5        1 GROUP        1 X    GLC  0     **** GLC X 6
     5 ALP1       30 GROUP        1 Y    ALP  0     ROOT ALP Y 8
     6 SEP2        6 GROUP        1 Y    SEP  0     **** SEP Y 9
     7 ZIP7       13 GROUP        1 Y    ZIP  0     **** ZIP Y 12
     8 GLP5        3 GROUP        1 Y    GLP  0     **** GLP Y 13
     9 ALL1       29 GROUP        1 Z    ALL  0     ROOT ALL Z 15
    10 SEL2        5 GROUP        1 Z    SEL  0     **** SEL Z 16
    11 ZIL7       12 GROUP        1 Z    ZIL  0     **** ZIL Z 19
    12 GLL5        2 GROUP        1 Z    GLL  0     **** GLL Z 20
@<TRIPOS>SET

