#    Name: 2iut_AGS_1_ligand
#    Modification time : Tue Mar 25 18:41:08 2014

@<TRIPOS>MOLECULE
2iut_AGS_1_ligand
   43    45     1     0     0
SMALL
NO_CHARGES


@<TRIPOS>ATOM
      1 PG         -2.7000   11.6980   -0.2820 P.3       1 AGS1723     0.0000 
      2 O2G        -4.1160   12.0120   -0.0370 O.co2     1 AGS1723     0.0000 
      3 O3G        -2.4440   10.5410   -1.2310 O.co2     1 AGS1723     0.0000 
      4 S1G        -1.7160   11.3090    1.1660 S.3       1 AGS1723     0.0000 
      5 PB         -0.8260   13.7250   -0.9690 P.3       1 AGS1723     0.0000 
      6 O1B        -0.8190   14.8680   -1.9100 O.co2     1 AGS1723     0.0000 
      7 O2B        -0.4220   14.0020    0.4300 O.co2     1 AGS1723     0.0000 
      8 O3B        -2.2770   13.1150   -0.9770 O.3       1 AGS1723     0.0000 
      9 PA          1.5110   12.0550   -0.8900 P.3       1 AGS1723     0.0000 
     10 O1A         2.7260   12.8890   -0.9210 O.co2     1 AGS1723     0.0000 
     11 O2A         0.9970   11.4720    0.3630 O.co2     1 AGS1723     0.0000 
     12 O3A         0.2110   12.8100   -1.5930 O.3       1 AGS1723     0.0000 
     13 O5'         1.6660   10.9980   -2.0480 O.3       1 AGS1723     0.0000 
     14 C5'         2.5200    9.9490   -1.8080 C.3       1 AGS1723     0.0000 
     15 C4'         2.4540    8.9620   -2.9580 C.3       1 AGS1723     0.0000 
     16 O4'         2.3530    9.6130   -4.2170 O.3       1 AGS1723     0.0000 
     17 C3'         3.6910    8.0910   -2.9600 C.3       1 AGS1723     0.0000 
     18 O3'         3.4000    6.8830   -2.3030 O.3       1 AGS1723     0.0000 
     19 C2'         3.9500    7.8980   -4.4500 C.3       1 AGS1723     0.0000 
     20 O2'         3.3400    6.7150   -4.9910 O.3       1 AGS1723     0.0000 
     21 C1'         3.4300    9.2680   -5.0450 C.3       1 AGS1723     0.0000 
     22 N9          4.4730   10.3630   -4.9390 N.pl3     1 AGS1723     0.0000 
     23 C8          4.5090   11.5230   -4.1760 C.2       1 AGS1723     0.0000 
     24 N7          5.5620   12.3030   -4.2220 N.2       1 AGS1723     0.0000 
     25 C5          6.3200   11.6290   -5.1360 C.ar      1 AGS1723     0.0000 
     26 C6          7.6180   11.8830   -5.6910 C.ar      1 AGS1723     0.0000 
     27 N6          8.3890   13.0610   -5.2740 N.pl3     1 AGS1723     0.0000 
     28 N1          8.1380   11.0080   -6.6240 N.ar      1 AGS1723     0.0000 
     29 C2          7.4070    9.8910   -7.0270 C.ar      1 AGS1723     0.0000 
     30 N3          6.1620    9.5240   -6.5720 N.ar      1 AGS1723     0.0000 
     31 C4          5.6680   10.4320   -5.6180 C.ar      1 AGS1723     0.0000 
     32 H           2.2699    9.3929   -0.8874 H         1 AGS1723     0.0000 
     33 H           3.5735   10.2656   -1.7112 H         1 AGS1723     0.0000 
     34 H           1.5977    8.3075   -2.7917 H         1 AGS1723     0.0000 
     35 H           4.4852    8.6441   -2.5459 H         1 AGS1723     0.0000 
     36 H           5.0310    7.9223   -4.5788 H         1 AGS1723     0.0000 
     37 H           3.1467    9.1046   -6.0395 H         1 AGS1723     0.0000 
     38 H           3.6835   11.7420   -3.5797 H         1 AGS1723     0.0000 
     39 H           7.9636   13.6423   -4.5804 H         1 AGS1723     0.0000 
     40 H           9.2765   13.1857   -5.7177 H         1 AGS1723     0.0000 
     41 H           7.8676    9.2598   -7.7655 H         1 AGS1723     0.0000 
     42 H           3.3295    6.2024   -3.0322 H         1 AGS1723     0.0000 
     43 H           4.1047    6.1267   -5.2540 H         1 AGS1723     0.0000 
@<TRIPOS>BOND
     1    2    1 ar   
     2    3    1 ar   
     3    4    1 1    
     4    8    1 1    
     5    6    5 ar   
     6    7    5 ar   
     7    8    5 1    
     8   12    5 1    
     9   10    9 ar   
    10   11    9 ar   
    11   12    9 1    
    12   13    9 1    
    13   14   13 1    
    14   15   14 1    
    15   32   14 1    
    16   33   14 1    
    17   16   15 1    
    18   17   15 1    
    19   34   15 1    
    20   21   16 1    
    21   18   17 1    
    22   19   17 1    
    23   35   17 1    
    24   42   18 1    
    25   20   19 1    
    26   21   19 1    
    27   36   19 1    
    28   43   20 1    
    29   22   21 1    
    30   37   21 1    
    31   23   22 1    
    32   31   22 1    
    33   24   23 2    
    34   38   23 1    
    35   25   24 1    
    36   26   25 ar   
    37   31   25 ar   
    38   27   26 1    
    39   28   26 ar   
    40   39   27 1    
    41   40   27 1    
    42   29   28 ar   
    43   30   29 ar   
    44   41   29 1    
    45   31   30 ar   
@<TRIPOS>SUBSTRUCTURE
     1 AGS1723     1 GROUP   
@<TRIPOS>SET

