#    Name: 3aba_FLI_1_INTS_M
#    Modification time : Tue Mar 25 11:40:43 2014

@<TRIPOS>MOLECULE
3aba_FLI_1_INTS_M
  117     0     6     0     0
SMALL
NO_CHARGES


@<TRIPOS>ATOM
      1 CA          4.1335   41.6400   23.8040 C.3       2 GLC5        0.0000 
      2 CA          1.9570   41.6250   23.7430 C.3       6 GLL5        0.0000 
      3 CA          6.3100   41.6550   23.8650 C.3       4 GLP5        0.0000 
      4 CA          3.4180   40.6040   22.4965 C.3       2 GLC5        0.0000 
      5 CA          4.8790   39.5830   21.2500 C.3       4 GLP5        0.0000 
      6 CA          4.7755   42.5460   24.4885 C.3       2 GLC5        0.0000 
      7 CA          3.2410   43.4370   25.1120 C.3       6 GLL5        0.0000 
      8 CA          2.4595   46.4735   28.4070 C.3       2 GLC5        0.0000 
      9 CA          4.5480   45.9140   27.8390 C.3       6 GLL5        0.0000 
     10 CA          0.3710   47.0330   28.9750 C.3       4 GLP5        0.0000 
     11 CA          4.0265   47.6275   26.0145 C.3       2 GLC5        0.0000 
     12 CA          5.3730   47.2180   27.6030 C.3       6 GLL5        0.0000 
     13 CA          2.6800   48.0370   24.4260 C.3       4 GLP5        0.0000 
     14 CA          4.6930   50.5560   27.7765 C.3       2 GLC5        0.0000 
     15 CA          6.2770   49.3400   28.6700 C.3       6 GLL5        0.0000 
     16 CA          3.1090   51.7720   26.8830 C.3       4 GLP5        0.0000 
     17 CA          4.6645   52.2160   27.9100 C.3       2 GLC5        0.0000 
     18 CA          6.2200   52.6600   28.9370 C.3       6 GLL5        0.0000 
     19 CA          5.4290   53.8615   27.2515 C.3       2 GLC5        0.0000 
     20 CA          7.1640   53.8620   28.5750 C.3       6 GLL5        0.0000 
     21 CA          3.6940   53.8610   25.9280 C.3       4 GLP5        0.0000 
     22 CA         10.3505   54.3530   27.7505 C.3       2 GLC5        0.0000 
     23 CA          8.4410   53.6060   27.6830 C.3       6 GLL5        0.0000 
     24 CA         12.2600   55.1000   27.8180 C.3       4 GLP5        0.0000 
     25 CA          5.3650   51.7180   25.3525 C.3       2 GLC5        0.0000 
     26 CA          7.2540   50.9610   25.1330 C.3       6 GLL5        0.0000 
     27 CA          3.4760   52.4750   25.5720 C.3       4 GLP5        0.0000 
     28 CA          8.2440   51.4650   23.2725 C.3       2 GLC5        0.0000 
     29 CA          9.2340   51.9690   21.4120 C.3       4 GLP5        0.0000 
     30 CA          8.5795   48.1085   23.3120 C.3       2 GLC5        0.0000 
     31 CA          6.6340   48.9000   23.9030 C.3       6 GLL5        0.0000 
     32 CA         10.5250   47.3170   22.7210 C.3       4 GLP5        0.0000 
     33 CA          3.8935   46.8515   21.9510 C.3       2 GLC5        0.0000 
     34 CA          5.9580   46.8570   22.7570 C.3       6 GLL5        0.0000 
     35 CA          1.8290   46.8460   21.1450 C.3       4 GLP5        0.0000 
     36 CA          6.5945   44.1145   23.7395 C.3       2 GLC5        0.0000 
     37 CA          5.9620   45.5100   22.4590 C.3       6 GLL5        0.0000 
     38 CA          7.2270   42.7190   25.0200 C.3       4 GLP5        0.0000 
     39 CA          5.8130   45.1215   19.4810 C.3       2 GLC5        0.0000 
     40 CA          5.2300   45.0970   21.3010 C.3       6 GLL5        0.0000 
     41 CA          6.3960   45.1460   17.6610 C.3       4 GLP5        0.0000 
     42 CA          6.3450   44.0790   19.7175 C.3       2 GLC5        0.0000 
     43 CA          5.0510   43.7270   21.0380 C.3       6 GLL5        0.0000 
     44 CA          7.6390   44.4310   18.3970 C.3       4 GLP5        0.0000 
     45 CA          5.3580   44.2065   18.7715 C.3       2 GLC5        0.0000 
     46 CA          4.3200   43.2670   19.8820 C.3       6 GLL5        0.0000 
     47 CA          5.2655   41.6070   18.8235 C.3       2 GLC5        0.0000 
     48 CA          6.2110   39.9470   17.7650 C.3       4 GLP5        0.0000 
     49 CA          2.3330   45.0590   20.7320 C.3       2 GLC5        0.0000 
     50 CA          2.8370   43.2720   20.3190 C.3       6 GLL5        0.0000 
     51 CA          0.8620   44.2125   19.6715 C.3       2 GLC5        0.0000 
     52 CA          1.9130   42.5720   19.3160 C.3       6 GLL5        0.0000 
     53 CA         -0.1890   45.8530   20.0270 C.3       4 GLP5        0.0000 
     54 CA          9.0885   53.9880   24.6260 C.3       2 GLC5        0.0000 
     55 CA          7.3020   53.9790   25.2980 C.3       6 GLL5        0.0000 
     56 CA         10.8750   53.9970   23.9540 C.3       4 GLP5        0.0000 
     57 CA          6.6230   54.9155   23.7425 C.3       2 GLC5        0.0000 
     58 CA          5.9440   55.8520   22.1870 C.3       4 GLP5        0.0000 
     59 CA          2.1440   39.6285   21.3890 C.3       2 GLC5        0.0000 
     60 CA          0.5250   39.9790   22.2850 C.3       6 GLL5        0.0000 
     61 CA          3.7630   39.2780   20.4930 C.3       4 GLP5        0.0000 
     62 CA         -2.7780   39.1720   22.5530 C.3       2 GLC5        0.0000 
     63 CA         -0.7230   39.1320   22.1900 C.3       6 GLL5        0.0000 
     64 CA         -4.8330   39.2120   22.9160 C.3       4 GLP5        0.0000 
     65 CA          1.4165   38.2170   20.4060 C.3       2 GLC5        0.0000 
     66 CA         -0.7180   38.4850   20.8040 C.3       6 GLL5        0.0000 
     67 CA          3.5510   37.9490   20.0080 C.3       4 GLP5        0.0000 
     68 CA         -2.8960   36.5890   21.7885 C.3       2 GLC5        0.0000 
     69 CA         -1.9440   37.6070   20.4160 C.3       6 GLL5        0.0000 
     70 CA         -3.8480   35.5710   23.1610 C.3       4 GLP5        0.0000 
     71 O           4.0230   52.1570   30.4230 O.2       1 ALC1        0.0000 
     72 O           5.0090   53.0470   29.6200 O.2       5 ALL1        0.0000 
     73 O           3.0370   51.2670   31.2260 O.2       3 ALP1        0.0000 
     74 CA          2.7672   40.1893   24.6495 C.3       2 GLC5        0.0000 
     75 CA          2.0280   42.4260   25.0730 C.3       6 GLL5        0.0000 
     76 CA          3.5420   38.3530   24.8910 C.3       4 GLP5        0.0000 
     77 CA          2.4928   45.4873   25.3317 C.3       2 GLC5        0.0000 
     78 CA          1.7180   47.1650   24.8650 C.3       4 GLP5        0.0000 
     79 CA          5.5638   43.6893   25.7545 C.3       2 GLC5        0.0000 
     80 CA          3.2940   44.1820   26.4850 C.3       6 GLL5        0.0000 
     81 CA          3.1227   46.3453   26.0155 C.3       2 GLC5        0.0000 
     82 CA          4.5070   45.1370   26.4930 C.3       6 GLL5        0.0000 
     83 CA          7.5791   47.6455   28.2170 C.3       2 GLC5        0.0000 
     84 CA          9.3290   46.8000   27.9720 C.3       4 GLP5        0.0000 
     85 CA          8.2978   50.2035   29.9154 C.3       2 GLC5        0.0000 
     86 CA          6.9760   51.6010   29.7550 C.3       6 GLL5        0.0000 
     87 CA         10.0050   49.6930   30.3020 C.3       4 GLP5        0.0000 
     88 CA          5.6545   53.6735   25.8795 C.3       2 GLC5        0.0000 
     89 CA          7.9280   52.9930   26.3640 C.3       6 GLL5        0.0000 
     90 CA          9.2155   50.5190   25.4450 C.3       2 GLC5        0.0000 
     91 CA          7.9040   51.6010   26.2230 C.3       6 GLL5        0.0000 
     92 CA         10.8520   49.7570   25.2120 C.3       4 GLP5        0.0000 
     93 CA          9.4596   53.2236   25.2886 C.3       2 GLC5        0.0000 
     94 CA          8.8993   49.4985   24.8240 C.3       2 GLC5        0.0000 
     95 CA          7.2590   49.5800   24.9690 C.3       6 GLL5        0.0000 
     96 CA          2.0793   39.3563   23.9325 C.3       2 GLC5        0.0000 
     97 CA          0.7080   40.7400   23.6630 C.3       6 GLL5        0.0000 
     98 CA          7.9759   47.2293   25.2215 C.3       2 GLC5        0.0000 
     99 CA          6.6770   47.4750   23.8040 C.3       6 GLL5        0.0000 
    100 CA          9.1400   46.1010   26.3230 C.3       4 GLP5        0.0000 
    101 CA          8.0038   46.7620   22.5617 C.3       2 GLC5        0.0000 
    102 CA          9.6900   46.3580   21.8430 C.3       4 GLP5        0.0000 
    103 CA          4.4934   47.7796   23.8656 C.3       2 GLC5        0.0000 
    104 CA          6.3269   48.7061   21.7016 C.3       2 GLC5        0.0000 
    105 CA          6.3470   49.8900   20.0980 C.3       4 GLP5        0.0000 
    106 CA          7.5385   45.1363   22.2165 C.3       2 GLC5        0.0000 
    107 CA          9.4810   44.9690   22.5530 C.3       4 GLP5        0.0000 
    108 CA          3.4848   45.6290   21.1572 C.3       2 GLC5        0.0000 
    109 CA          5.7252   43.0335   22.5172 C.3       2 GLC5        0.0000 
    110 CA          4.7822   41.5400   20.8550 C.3       2 GLC5        0.0000 
    111 CA          3.0690   41.1000   20.1552 C.3       2 GLC5        0.0000 
    112 CA         -0.0240   36.5420   20.5440 C.3       2 GLC5        0.0000 
    113 CA          1.2830   35.0380   20.4780 C.3       4 GLP5        0.0000 
    114 CA         -3.6570   38.6265   21.4843 C.3       2 GLC5        0.0000 
    115 CA         -2.8455   36.3910   19.2593 C.3       2 GLC5        0.0000 
    116 CA         -3.0180   38.4750   19.6890 C.3       6 GLL5        0.0000 
    117 CA         -3.2100   34.7410   18.4660 C.3       4 GLP5        0.0000 
@<TRIPOS>BOND
@<TRIPOS>SUBSTRUCTURE
     1 ALC1       71 GROUP        1 X    ALC  0     ROOT ALC X 1
     2 GLC5        1 GROUP        1 X    GLC  0     **** GLC X 6
     3 ALP1       73 GROUP        1 Y    ALP  0     ROOT ALP Y 8
     4 GLP5        3 GROUP        1 Y    GLP  0     **** GLP Y 13
     5 ALL1       72 GROUP        1 Z    ALL  0     ROOT ALL Z 15
     6 GLL5        2 GROUP        1 Z    GLL  0     **** GLL Z 20
@<TRIPOS>SET

