#    Name: 3aba_FLI_1_ligand
#    Modification time : Tue Mar 25 11:40:43 2014

@<TRIPOS>MOLECULE
3aba_FLI_1_ligand
  102   102     1     0     0
SMALL
NO_CHARGES


@<TRIPOS>ATOM
      1 C1          1.9400   42.5430   22.5140 C.2       1 FLI404      0.0000 
      2 O1          1.0690   43.4240   22.3790 O.2       1 FLI404      0.0000 
      3 C2          1.9570   41.6250   23.7430 C.3       1 FLI404      0.0000 
      4 C3          2.0280   42.4260   25.0730 C.3       1 FLI404      0.0000 
      5 C4          3.2410   43.4370   25.1120 C.3       1 FLI404      0.0000 
      6 C5          3.2940   44.1820   26.4850 C.3       1 FLI404      0.0000 
      7 C6          4.5070   45.1370   26.4930 C.3       1 FLI404      0.0000 
      8 C7          4.5480   45.9140   27.8390 C.3       1 FLI404      0.0000 
      9 C8          5.3730   47.2180   27.6030 C.3       1 FLI404      0.0000 
     10 C9          5.3900   48.0660   28.9050 C.3       1 FLI404      0.0000 
     11 C10         6.2770   49.3400   28.6700 C.3       1 FLI404      0.0000 
     12 C11         6.1330   50.3140   29.9350 C.3       1 FLI404      0.0000 
     13 C12         6.9760   51.6010   29.7550 C.3       1 FLI404      0.0000 
     14 C13         6.2200   52.6600   28.9370 C.3       1 FLI404      0.0000 
     15 C14         7.1640   53.8620   28.5750 C.3       1 FLI404      0.0000 
     16 C15         8.4410   53.6060   27.6830 C.3       1 FLI404      0.0000 
     17 C16         7.9280   52.9930   26.3640 C.2       1 FLI404      0.0000 
     18 C17         7.9040   51.6010   26.2230 C.2       1 FLI404      0.0000 
     19 C18         7.2540   50.9610   25.1330 C.2       1 FLI404      0.0000 
     20 C19         7.2590   49.5800   24.9690 C.2       1 FLI404      0.0000 
     21 C1P         0.7080   40.7400   23.6630 C.3       1 FLI404      0.0000 
     22 C20         6.6340   48.9000   23.9030 C.2       1 FLI404      0.0000 
     23 C21         6.6770   47.4750   23.8040 C.2       1 FLI404      0.0000 
     24 C22         5.9580   46.8570   22.7570 C.2       1 FLI404      0.0000 
     25 C23         5.9620   45.5100   22.4590 C.2       1 FLI404      0.0000 
     26 C24         5.2300   45.0970   21.3010 C.2       1 FLI404      0.0000 
     27 C25         5.0510   43.7270   21.0380 C.2       1 FLI404      0.0000 
     28 C26         4.3200   43.2670   19.8820 C.3       1 FLI404      0.0000 
     29 C27         2.8370   43.2720   20.3190 C.3       1 FLI404      0.0000 
     30 C28         1.9130   42.5720   19.3160 C.3       1 FLI404      0.0000 
     31 C29         7.3020   53.9790   25.2980 C.3       1 FLI404      0.0000 
     32 C2P         0.5250   39.9790   22.2850 C.3       1 FLI404      0.0000 
     33 O30         2.8570   42.3610   21.5060 O.3       1 FLI404      0.0000 
     34 C3P        -0.7230   39.1320   22.1900 C.3       1 FLI404      0.0000 
     35 C4P        -0.7180   38.4850   20.8040 C.3       1 FLI404      0.0000 
     36 C5P        -1.9440   37.6070   20.4160 C.3       1 FLI404      0.0000 
     37 C6P        -3.0180   38.4750   19.6890 C.3       1 FLI404      0.0000 
     38 OA3         2.1770   41.4280   26.1190 O.3       1 FLI404      0.0000 
     39 OA5         3.5200   43.1780   27.5510 O.3       1 FLI404      0.0000 
     40 OA7         5.2390   45.0570   28.8230 O.3       1 FLI404      0.0000 
     41 OA9         6.0010   47.2440   29.9010 O.3       1 FLI404      0.0000 
     42 OB1         6.6100   49.6320   31.1310 O.3       1 FLI404      0.0000 
     43 OB3         5.0090   53.0470   29.6200 O.3       1 FLI404      0.0000 
     44 OB5         8.9690   54.9770   27.5480 O.3       1 FLI404      0.0000 
     45 H           2.8277   40.9857   23.6721 H         1 FLI404      0.0000 
     46 H           1.1207   42.9687   25.1901 H         1 FLI404      0.0000 
     47 H           3.1131   44.1585   24.3205 H         1 FLI404      0.0000 
     48 H           4.1556   42.8825   24.9726 H         1 FLI404      0.0000 
     49 H           2.4139   44.7175   26.6313 H         1 FLI404      0.0000 
     50 H           4.4131   45.8429   25.6830 H         1 FLI404      0.0000 
     51 H           5.4152   44.5642   26.3906 H         1 FLI404      0.0000 
     52 H           3.5773   46.1569   28.1278 H         1 FLI404      0.0000 
     53 H           4.9110   47.7871   26.8141 H         1 FLI404      0.0000 
     54 H           6.3825   46.9512   27.3393 H         1 FLI404      0.0000 
     55 H           4.4169   48.3551   29.1398 H         1 FLI404      0.0000 
     56 H           5.9320   49.8619   27.8045 H         1 FLI404      0.0000 
     57 H           7.3018   49.0520   28.5841 H         1 FLI404      0.0000 
     58 H           5.1062   50.5817   30.0233 H         1 FLI404      0.0000 
     59 H           7.9026   51.3456   29.2444 H         1 FLI404      0.0000 
     60 H           7.2128   52.0061   30.7370 H         1 FLI404      0.0000 
     61 H           5.9633   52.1726   27.9711 H         1 FLI404      0.0000 
     62 H           7.5042   54.3350   29.5293 H         1 FLI404      0.0000 
     63 H           6.5477   54.6468   28.0706 H         1 FLI404      0.0000 
     64 H           9.0625   52.9752   28.1999 H         1 FLI404      0.0000 
     65 H           8.3738   51.0080   26.9330 H         1 FLI404      0.0000 
     66 H           6.7600   51.5587   24.4394 H         1 FLI404      0.0000 
     67 H           7.7637   48.9927   25.6884 H         1 FLI404      0.0000 
     68 H          -0.1897   41.3524   23.8262 H         1 FLI404      0.0000 
     69 H           0.7400   39.9830   24.4590 H         1 FLI404      0.0000 
     70 H           6.1356   49.4328   23.1788 H         1 FLI404      0.0000 
     71 H           7.2068   46.9340   24.4653 H         1 FLI404      0.0000 
     72 H           5.3613   47.5013   22.1485 H         1 FLI404      0.0000 
     73 H           6.4488   44.8309   23.0140 H         1 FLI404      0.0000 
     74 H           4.8440   45.8013   20.6758 H         1 FLI404      0.0000 
     75 H           5.4451   43.0229   21.6764 H         1 FLI404      0.0000 
     76 H           4.5816   42.2619   19.6111 H         1 FLI404      0.0000 
     77 H           4.4210   43.9341   19.0472 H         1 FLI404      0.0000 
     78 H           2.5193   44.2006   20.5755 H         1 FLI404      0.0000 
     79 H           1.4200   39.3534   22.1361 H         1 FLI404      0.0000 
     80 H           0.5278   40.7406   21.4884 H         1 FLI404      0.0000 
     81 H          -1.5960   39.7501   22.2902 H         1 FLI404      0.0000 
     82 H          -0.7045   38.3636   22.9406 H         1 FLI404      0.0000 
     83 H           0.1978   37.8568   20.7020 H         1 FLI404      0.0000 
     84 H          -0.6124   39.2837   20.0330 H         1 FLI404      0.0000 
     85 H          -2.3774   37.1889   21.3114 H         1 FLI404      0.0000 
     86 H          -1.6200   36.8203   19.7524 H         1 FLI404      0.0000 
     87 H           1.9432   43.0078   18.4165 H         1 FLI404      0.0000 
     88 H           2.1648   41.6130   19.1857 H         1 FLI404      0.0000 
     89 H           0.9594   42.5864   19.6168 H         1 FLI404      0.0000 
     90 H           7.9586   54.6736   25.0040 H         1 FLI404      0.0000 
     91 H           7.0000   53.4950   24.4767 H         1 FLI404      0.0000 
     92 H           6.5064   54.4632   25.6621 H         1 FLI404      0.0000 
     93 H          -2.6583   38.8864   18.8515 H         1 FLI404      0.0000 
     94 H          -3.8187   37.9349   19.4298 H         1 FLI404      0.0000 
     95 H          -3.3438   39.2234   20.2667 H         1 FLI404      0.0000 
     96 H           2.6989   41.8845   26.8396 H         1 FLI404      0.0000 
     97 H           3.6719   43.7129   28.3822 H         1 FLI404      0.0000 
     98 H           5.6460   45.6927   29.4790 H         1 FLI404      0.0000 
     99 H           5.2889   47.0970   30.5875 H         1 FLI404      0.0000 
    100 H           6.4348   48.6619   30.9629 H         1 FLI404      0.0000 
    101 H           4.6451   52.1978   30.0026 H         1 FLI404      0.0000 
    102 H           9.1516   55.2772   28.4842 H         1 FLI404      0.0000 
@<TRIPOS>BOND
     1    2    1 2    
     2    3    1 1    
     3   33    1 1    
     4    4    3 1    
     5   21    3 1    
     6   45    3 1    
     7    5    4 1    
     8   38    4 1    
     9   46    4 1    
    10    6    5 1    
    11   47    5 1    
    12   48    5 1    
    13    7    6 1    
    14   39    6 1    
    15   49    6 1    
    16    8    7 1    
    17   50    7 1    
    18   51    7 1    
    19    9    8 1    
    20   40    8 1    
    21   52    8 1    
    22   10    9 1    
    23   53    9 1    
    24   54    9 1    
    25   11   10 1    
    26   41   10 1    
    27   55   10 1    
    28   12   11 1    
    29   56   11 1    
    30   57   11 1    
    31   13   12 1    
    32   42   12 1    
    33   58   12 1    
    34   14   13 1    
    35   59   13 1    
    36   60   13 1    
    37   15   14 1    
    38   43   14 1    
    39   61   14 1    
    40   16   15 1    
    41   62   15 1    
    42   63   15 1    
    43   17   16 1    
    44   44   16 1    
    45   64   16 1    
    46   18   17 2    
    47   31   17 1    
    48   19   18 1    
    49   65   18 1    
    50   20   19 2    
    51   66   19 1    
    52   22   20 1    
    53   67   20 1    
    54   32   21 1    
    55   68   21 1    
    56   69   21 1    
    57   23   22 2    
    58   70   22 1    
    59   24   23 1    
    60   71   23 1    
    61   25   24 2    
    62   72   24 1    
    63   26   25 1    
    64   73   25 1    
    65   27   26 2    
    66   74   26 1    
    67   28   27 1    
    68   75   27 1    
    69   29   28 1    
    70   76   28 1    
    71   77   28 1    
    72   30   29 1    
    73   33   29 1    
    74   78   29 1    
    75   87   30 1    
    76   88   30 1    
    77   89   30 1    
    78   90   31 1    
    79   91   31 1    
    80   92   31 1    
    81   34   32 1    
    82   79   32 1    
    83   80   32 1    
    84   35   34 1    
    85   81   34 1    
    86   82   34 1    
    87   36   35 1    
    88   83   35 1    
    89   84   35 1    
    90   37   36 1    
    91   85   36 1    
    92   86   36 1    
    93   93   37 1    
    94   94   37 1    
    95   95   37 1    
    96   96   38 1    
    97   97   39 1    
    98   98   40 1    
    99   99   41 1    
   100  100   42 1    
   101  101   43 1    
   102  102   44 1    
@<TRIPOS>SUBSTRUCTURE
     1 FLI404      1 GROUP   
@<TRIPOS>SET

