#    Name: 3ice_ADP_1_INTS_M
#    Modification time : Tue Mar 25 16:11:45 2014

@<TRIPOS>MOLECULE
3ice_ADP_1_INTS_M
   50     0     9     0     0
SMALL
NO_CHARGES


@<TRIPOS>ATOM
      1 N         -22.9580   -0.3435  -39.3675 N.am      1 SEC2        0.0000 
      2 N         -21.8720    0.4720  -39.8710 N.am      7 SEL2        0.0000 
      3 N         -24.0440   -1.1590  -38.8640 N.am      4 SEP2        0.0000 
      4 Zn        -20.1130    2.2800  -41.4655 Zn        2 ZIC7        0.0000 
      5 Zn        -21.0050    2.4800  -41.1290 Zn        8 ZIL7        0.0000 
      6 Zn        -19.2210    2.0800  -41.8020 Zn        5 ZIP7        0.0000 
      7 N         -21.4690    3.6915  -41.7560 N.am      1 SEC2        0.0000 
      8 N         -21.0050    2.4800  -41.1290 N.am      7 SEL2        0.0000 
      9 N         -21.9330    4.9030  -42.3830 N.am      4 SEP2        0.0000 
     10 N         -24.7795    1.6600  -39.7920 N.am      1 SEC2        0.0000 
     11 N         -23.4210    2.3900  -40.3460 N.am      7 SEL2        0.0000 
     12 N         -26.1380    0.9300  -39.2380 N.am      4 SEP2        0.0000 
     13 N         -24.9505    2.6890  -40.6565 N.am      1 SEC2        0.0000 
     14 N         -26.4800    2.9880  -40.9670 N.am      4 SEP2        0.0000 
     15 N         -23.9785    3.5920  -40.6260 N.am      1 SEC2        0.0000 
     16 N         -24.5360    4.7940  -40.9060 N.am      4 SEP2        0.0000 
     17 N         -23.5025    4.0630  -43.8435 N.am      1 SEC2        0.0000 
     18 N         -23.9910    3.0220  -42.7610 N.am      7 SEL2        0.0000 
     19 N         -23.0140    5.1040  -44.9260 N.am      4 SEP2        0.0000 
     20 N         -22.2290   -0.3680  -41.9085 N.am      1 SEC2        0.0000 
     21 N         -22.6330    0.9570  -42.1630 N.am      7 SEL2        0.0000 
     22 N         -21.8250   -1.6930  -41.6540 N.am      4 SEP2        0.0000 
     23 N         -25.7455    1.8525  -41.9380 N.am      1 SEC2        0.0000 
     24 N         -25.0110    0.7170  -42.9090 N.am      7 SEL2        0.0000 
     25 CA        -25.1425   -0.9885  -41.4560 C.3       3 GLC5        0.0000 
     26 CA        -24.9960   -0.6540  -43.2960 C.3       9 GLL5        0.0000 
     27 CA        -25.2890   -1.3230  -39.6160 C.3       6 GLP5        0.0000 
     28 CA        -25.8670   -2.3240  -42.4120 C.3       3 GLC5        0.0000 
     29 CA        -26.2230   -1.0390  -44.1080 C.3       9 GLL5        0.0000 
     30 CA        -25.5110   -3.6090  -40.7160 C.3       6 GLP5        0.0000 
     31 N         -27.3070   -2.7490  -47.6540 N.am      1 SEC2        0.0000 
     32 N         -27.9560   -1.4450  -46.8550 N.am      7 SEL2        0.0000 
     33 N         -26.6580   -4.0530  -48.4530 N.am      4 SEP2        0.0000 
     34 CA        -30.0375    0.1185  -44.3210 C.3       3 GLC5        0.0000 
     35 CA        -28.1880   -0.0330  -44.8940 C.3       9 GLL5        0.0000 
     36 CA        -31.8870    0.2700  -43.7480 C.3       6 GLP5        0.0000 
     37 CA        -28.9840    2.8455  -48.7335 C.3       3 GLC5        0.0000 
     38 CA        -30.8360    2.4430  -47.5990 C.3       9 GLL5        0.0000 
     39 CA        -27.1320    3.2480  -49.8680 C.3       6 GLP5        0.0000 
     40 CA        -32.2070    3.2835  -46.0705 C.3       3 GLC5        0.0000 
     41 CA        -33.5780    4.1240  -44.5420 C.3       6 GLP5        0.0000 
     42 CA        -26.5042    1.0745  -46.9810 C.3       3 GLC5        0.0000 
     43 CA        -25.9930   -0.7740  -45.5800 C.3       9 GLL5        0.0000 
     44 CA        -26.3380    2.7220  -48.1150 C.3       6 GLP5        0.0000 
     45 CA        -25.1686   -2.4616  -44.6135 C.3       3 GLC5        0.0000 
     46 CA        -24.5360   -4.1130  -44.5860 C.3       6 GLP5        0.0000 
     47 CA        -27.8317    2.7165  -46.8897 C.3       3 GLC5        0.0000 
     48 CA        -29.3360    1.9970  -45.8320 C.3       9 GLL5        0.0000 
     49 CA        -31.6562    3.9977  -45.2285 C.3       3 GLC5        0.0000 
     50 CA        -29.3150    3.4250  -45.4970 C.3       9 GLL5        0.0000 
@<TRIPOS>BOND
@<TRIPOS>SUBSTRUCTURE
     1 SEC2        1 GROUP        1 X    SEC  0     ROOT SEC X 2
     2 ZIC7        4 GROUP        1 X    ZIC  0     **** ZIC X 5
     3 GLC5       25 GROUP        1 X    GLC  0     **** GLC X 6
     4 SEP2        3 GROUP        1 Y    SEP  0     ROOT SEP Y 9
     5 ZIP7        6 GROUP        1 Y    ZIP  0     **** ZIP Y 12
     6 GLP5       27 GROUP        1 Y    GLP  0     **** GLP Y 13
     7 SEL2        2 GROUP        1 Z    SEL  0     ROOT SEL Z 16
     8 ZIL7        5 GROUP        1 Z    ZIL  0     **** ZIL Z 19
     9 GLL5       26 GROUP        1 Z    GLL  0     **** GLL Z 20
@<TRIPOS>SET

