#    Name: 3ice_ADP_1_ligand
#    Modification time : Tue Mar 25 16:11:45 2014

@<TRIPOS>MOLECULE
3ice_ADP_1_ligand
   39    41     1     0     0
SMALL
NO_CHARGES


@<TRIPOS>ATOM
      1 PB        -22.2110    1.6300  -40.7620 P.3       1 ADP1000     0.0000 
      2 O1B       -21.8720    0.4720  -39.8710 O.co2     1 ADP1000     0.0000 
      3 O2B       -21.0050    2.4800  -41.1290 O.co2     1 ADP1000     0.0000 
      4 O3B       -23.4210    2.3900  -40.3460 O.co2     1 ADP1000     0.0000 
      5 PA        -23.7050    1.6160  -43.1830 P.3       1 ADP1000     0.0000 
      6 O1A       -23.9910    3.0220  -42.7610 O.co2     1 ADP1000     0.0000 
      7 O2A       -23.2170    1.3310  -44.5760 O.co2     1 ADP1000     0.0000 
      8 O3A       -22.6330    0.9570  -42.1630 O.3       1 ADP1000     0.0000 
      9 O5'       -25.0110    0.7170  -42.9090 O.3       1 ADP1000     0.0000 
     10 C5'       -24.9960   -0.6540  -43.2960 C.3       1 ADP1000     0.0000 
     11 C4'       -26.2230   -1.0390  -44.1080 C.3       1 ADP1000     0.0000 
     12 O4'       -27.3860   -0.2980  -43.7370 O.3       1 ADP1000     0.0000 
     13 C3'       -25.9930   -0.7740  -45.5800 C.3       1 ADP1000     0.0000 
     14 O3'       -25.4850   -1.9330  -46.2540 O.3       1 ADP1000     0.0000 
     15 C2'       -27.3480   -0.3720  -46.1140 C.3       1 ADP1000     0.0000 
     16 O2'       -27.9560   -1.4450  -46.8550 O.3       1 ADP1000     0.0000 
     17 C1'       -28.1880   -0.0330  -44.8940 C.3       1 ADP1000     0.0000 
     18 N9        -28.5170    1.4110  -44.9520 N.pl3     1 ADP1000     0.0000 
     19 C8        -28.0160    2.3430  -44.1170 C.2       1 ADP1000     0.0000 
     20 N7        -28.4860    3.5670  -44.4390 N.2       1 ADP1000     0.0000 
     21 C5        -29.3150    3.4250  -45.4970 C.ar      1 ADP1000     0.0000 
     22 C6        -30.1540    4.3180  -46.3330 C.ar      1 ADP1000     0.0000 
     23 N6        -30.1930    5.6500  -46.0840 N.pl3     1 ADP1000     0.0000 
     24 N1        -30.8710    3.7600  -47.3390 N.ar      1 ADP1000     0.0000 
     25 C2        -30.8360    2.4430  -47.5990 C.ar      1 ADP1000     0.0000 
     26 N3        -30.1090    1.5770  -46.8800 N.ar      1 ADP1000     0.0000 
     27 C4        -29.3360    1.9970  -45.8320 C.ar      1 ADP1000     0.0000 
     28 H         -24.9549   -1.3232  -42.4137 H         1 ADP1000     0.0000 
     29 H         -24.1023   -0.8926  -43.9062 H         1 ADP1000     0.0000 
     30 H         -26.3962   -2.1042  -43.9938 H         1 ADP1000     0.0000 
     31 H         -25.3379    0.0726  -45.6659 H         1 ADP1000     0.0000 
     32 H         -27.2364    0.5152  -46.6987 H         1 ADP1000     0.0000 
     33 H         -29.0682   -0.6177  -44.9128 H         1 ADP1000     0.0000 
     34 H         -27.3981    2.1594  -43.3802 H         1 ADP1000     0.0000 
     35 H         -29.5938    5.9789  -45.3541 H         1 ADP1000     0.0000 
     36 H         -30.8175    6.1858  -46.6523 H         1 ADP1000     0.0000 
     37 H         -31.4124    2.0713  -48.4135 H         1 ADP1000     0.0000 
     38 H         -26.2679   -2.3071  -46.7510 H         1 ADP1000     0.0000 
     39 H         -28.6788   -1.7942  -46.2585 H         1 ADP1000     0.0000 
@<TRIPOS>BOND
     1    2    1 ar   
     2    3    1 ar   
     3    4    1 ar   
     4    8    1 1    
     5    6    5 ar   
     6    7    5 ar   
     7    8    5 1    
     8    9    5 1    
     9   10    9 1    
    10   11   10 1    
    11   28   10 1    
    12   29   10 1    
    13   12   11 1    
    14   13   11 1    
    15   30   11 1    
    16   17   12 1    
    17   14   13 1    
    18   15   13 1    
    19   31   13 1    
    20   38   14 1    
    21   16   15 1    
    22   17   15 1    
    23   32   15 1    
    24   39   16 1    
    25   18   17 1    
    26   33   17 1    
    27   19   18 1    
    28   27   18 1    
    29   20   19 2    
    30   34   19 1    
    31   21   20 1    
    32   22   21 ar   
    33   27   21 ar   
    34   23   22 1    
    35   24   22 ar   
    36   35   23 1    
    37   36   23 1    
    38   25   24 ar   
    39   26   25 ar   
    40   37   25 1    
    41   27   26 ar   
@<TRIPOS>SUBSTRUCTURE
     1 ADP1000     1 GROUP   
@<TRIPOS>SET

