#    Name: 3VIL_1_CAVITY_N1_6.mol2
#    Modification time : Tue Mar 11 11:20:38 2014

@<TRIPOS>MOLECULE
3VIL_1_CAVITY_N1_6.mol2
  112     0     6     0     0
SMALL
NO_CHARGES


@<TRIPOS>ATOM
      1 CA        -25.9121   75.6659    9.9273 C.3       5 GLY6        0.0000 
      2 CA        -25.3376   76.4113    8.7593 C.3       5 GLY6        0.0000 
      3 CA        -23.5908   79.4717    7.7188 C.3       5 GLY6        0.0000 
      4 NZ        -27.1208   76.1863   11.5912 N.2       3 LYS4        0.0000 
      5 O         -26.5463   76.9316   10.4231 O.2       2 ALA2        0.0000 
      6 O         -25.9718   77.6770    9.2550 O.2       2 ALA2        0.0000 
      7 CA        -25.3973   78.4224    8.0870 C.3       5 GLY6        0.0000 
      8 CA        -28.3528   75.8823   10.7913 C.3       5 GLY6        0.0000 
      9 CA        -27.7783   76.6277    9.6232 C.3       5 GLY6        0.0000 
     10 DU        -27.2038   77.3731    8.4551 H         6 CUB7        0.0000 
     11 DU        -26.6293   78.1184    7.2871 H         6 CUB7        0.0000 
     12 CA        -29.0103   76.3237    8.8233 C.3       5 GLY6        0.0000 
     13 CA        -28.4358   77.0691    7.6553 C.3       5 GLY6        0.0000 
     14 O         -20.6121   82.8361    7.4783 O.2       2 ALA2        0.0000 
     15 CA        -22.4185   81.7867    7.8464 C.3       5 GLY6        0.0000 
     16 O         -21.8440   82.5321    6.6784 O.2       2 ALA2        0.0000 
     17 NZ        -25.9485   78.5013   11.7188 N.2       3 LYS4        0.0000 
     18 O         -25.3740   79.2467   10.5507 O.2       2 ALA2        0.0000 
     19 O         -24.7995   79.9920    9.3827 O.2       2 ALA2        0.0000 
     20 CA        -24.2250   80.7374    8.2146 C.3       5 GLY6        0.0000 
     21 CA        -23.6505   81.4828    7.0465 C.3       5 GLY6        0.0000 
     22 DU        -23.0760   82.2282    5.8785 H         6 CUB7        0.0000 
     23 NZ        -27.1805   78.1973   10.9189 N.2       3 LYS4        0.0000 
     24 O         -26.6060   78.9427    9.7508 O.2       2 ALA2        0.0000 
     25 DU        -26.0315   79.6881    8.5828 H         6 CUB7        0.0000 
     26 DU        -25.4570   80.4335    7.4147 H         6 CUB7        0.0000 
     27 DU        -24.8825   81.1788    6.2466 H         6 CUB7        0.0000 
     28 CA        -28.9870   77.1480   11.2870 C.3       5 GLY6        0.0000 
     29 CA        -28.4125   77.8934   10.1190 C.3       5 GLY6        0.0000 
     30 CA        -27.8380   78.6388    8.9509 C.3       5 GLY6        0.0000 
     31 CA        -27.2635   79.3841    7.7829 C.3       5 GLY6        0.0000 
     32 DU        -26.6890   80.1295    6.6148 H         6 CUB7        0.0000 
     33 DU        -26.1145   80.8749    5.4467 H         6 CUB7        0.0000 
     34 CZ        -21.8207   83.3564    9.1421 C.ar      4 PHE5        0.0000 
     35 CZ        -24.2017   81.5617   10.6783 C.ar      4 PHE5        0.0000 
     36 CZ        -23.6272   82.3071    9.5103 C.ar      4 PHE5        0.0000 
     37 CZ        -23.0527   83.0525    8.3422 C.ar      4 PHE5        0.0000 
     38 O         -22.4782   83.7978    7.1741 O.2       2 ALA2        0.0000 
     39 O         -21.9037   84.5432    6.0061 O.2       2 ALA2        0.0000 
     40 NZ        -26.5827   79.7670   12.2146 N.2       3 LYS4        0.0000 
     41 CZ        -26.0082   80.5124   11.0465 C.ar      4 PHE5        0.0000 
     42 CZ        -25.4337   81.2578    9.8784 C.ar      4 PHE5        0.0000 
     43 DU        -24.8592   82.0031    8.7104 H         6 CUB7        0.0000 
     44 DU        -24.2847   82.7485    7.5423 H         6 CUB7        0.0000 
     45 DU        -23.7102   83.4939    6.3742 H         6 CUB7        0.0000 
     46 DU        -23.1357   84.2392    5.2062 H         6 CUB7        0.0000 
     47 CA        -27.8147   79.4631   11.4147 C.3       5 GLY6        0.0000 
     48 CA        -27.2402   80.2084   10.2466 C.3       5 GLY6        0.0000 
     49 CA        -26.6657   80.9538    9.0785 C.3       5 GLY6        0.0000 
     50 DU        -26.0912   81.6992    7.9105 H         6 CUB7        0.0000 
     51 DU        -25.5167   82.4445    6.7424 H         6 CUB7        0.0000 
     52 NZ        -24.9422   83.1899    5.5743 N.2       3 LYS4        0.0000 
     53 CA        -27.8977   80.6499    8.2786 C.3       5 GLY6        0.0000 
     54 CA        -27.3232   81.3952    7.1106 C.3       5 GLY6        0.0000 
     55 NZ        -26.7487   82.1406    5.9425 N.2       3 LYS4        0.0000 
     56 NZ        -28.5551   81.0913    6.3107 N.2       3 LYS4        0.0000 
     57 CZ        -21.7974   84.1807   11.6058 C.ar      4 PHE5        0.0000 
     58 CZ        -23.6039   83.1314   11.9740 C.ar      4 PHE5        0.0000 
     59 CZ        -23.0294   83.8768   10.8059 C.ar      4 PHE5        0.0000 
     60 N         -22.4549   84.6221    9.6379 N.2       2 ALA2        0.0000 
     61 NZ        -26.5594   80.5913   14.6783 N.2       3 LYS4        0.0000 
     62 CZ        -25.9849   81.3367   13.5102 C.ar      4 PHE5        0.0000 
     63 CZ        -25.4104   82.0821   12.3422 C.ar      4 PHE5        0.0000 
     64 CZ        -24.8359   82.8274   11.1741 C.ar      4 PHE5        0.0000 
     65 O         -24.2614   83.5728   10.0060 O.2       2 ALA2        0.0000 
     66 O         -23.6869   84.3182    8.8380 O.2       2 ALA2        0.0000 
     67 O         -23.1124   85.0635    7.6699 O.2       2 ALA2        0.0000 
     68 O         -22.5379   85.8089    6.5018 O.2       2 ALA2        0.0000 
     69 NZ        -27.7914   80.2874   13.8784 N.2       3 LYS4        0.0000 
     70 CZ        -27.2169   81.0327   12.7103 C.ar      4 PHE5        0.0000 
     71 DU        -26.6424   81.7781   11.5423 H         6 CUB7        0.0000 
     72 OG        -26.0679   82.5235   10.3742 O.2       1 SER1        0.0000 
     73 OG        -25.4934   83.2688    9.2061 O.2       1 SER1        0.0000 
     74 OG        -24.9189   84.0142    8.0381 O.2       1 SER1        0.0000 
     75 DU        -24.3444   84.7596    6.8700 H         6 CUB7        0.0000 
     76 DU        -23.7699   85.5050    5.7019 H         6 CUB7        0.0000 
     77 CZ        -28.4488   80.7288   11.9104 C.ar      4 PHE5        0.0000 
     78 CA        -27.8743   81.4741   10.7424 C.3       5 GLY6        0.0000 
     79 CA        -27.2998   82.2195    9.5743 C.3       5 GLY6        0.0000 
     80 OG        -26.7253   82.9649    8.4062 O.2       1 SER1        0.0000 
     81 NZ        -25.5763   84.4556    6.0701 N.2       3 LYS4        0.0000 
     82 NZ        -27.3828   83.4063    6.4383 N.2       3 LYS4        0.0000 
     83 N         -22.4316   85.4464   12.1016 N.2       2 ALA2        0.0000 
     84 CZ        -25.3871   82.9064   14.8059 C.ar      4 PHE5        0.0000 
     85 CZ        -24.8126   83.6517   13.6378 C.ar      4 PHE5        0.0000 
     86 CZ        -24.2381   84.3971   12.4698 C.ar      4 PHE5        0.0000 
     87 O         -23.6636   85.1425   11.3017 O.2       2 ALA2        0.0000 
     88 O         -23.0891   85.8878   10.1336 O.2       2 ALA2        0.0000 
     89 N         -22.5146   86.6332    8.9656 N.2       2 ALA2        0.0000 
     90 O         -27.7680   81.1117   16.3421 O.2       2 ALA2        0.0000 
     91 OG        -27.1935   81.8570   15.1741 O.2       1 SER1        0.0000 
     92 CZ        -26.6191   82.6024   14.0060 C.ar      4 PHE5        0.0000 
     93 DU        -26.0446   83.3478   12.8379 H         6 CUB7        0.0000 
     94 O         -25.4701   84.0931   11.6699 O.2       2 ALA2        0.0000 
     95 O         -23.7466   86.3293    8.1657 O.2       2 ALA2        0.0000 
     96 CA        -23.1721   87.0746    6.9976 C.3       5 GLY6        0.0000 
     97 O         -29.0000   80.8077   15.5422 O.2       2 ALA2        0.0000 
     98 CZ        -28.4255   81.5531   14.3742 C.ar      4 PHE5        0.0000 
     99 CZ        -27.8510   82.2984   13.2061 C.ar      4 PHE5        0.0000 
    100 OG        -27.2765   83.0438   12.0380 O.2       1 SER1        0.0000 
    101 O         -24.9785   86.0253    7.3658 O.2       2 ALA2        0.0000 
    102 CA        -24.4040   86.7707    6.1977 C.3       5 GLY6        0.0000 
    103 OG        -26.2105   85.7213    6.5659 O.2       1 SER1        0.0000 
    104 CZ        -25.4467   84.9174   14.1336 C.ar      4 PHE5        0.0000 
    105 CA        -24.8722   85.6628   12.9655 C.3       5 GLY6        0.0000 
    106 NZ        -27.8277   83.1227   15.6698 N.2       3 LYS4        0.0000 
    107 NZ        -27.2532   83.8681   14.5018 N.2       3 LYS4        0.0000 
    108 OG        -26.6787   84.6135   13.3337 O.2       1 SER1        0.0000 
    109 CZ        -29.0597   82.8188   14.8699 C.ar      4 PHE5        0.0000 
    110 CZ        -28.4852   83.5642   13.7019 C.ar      4 PHE5        0.0000 
    111 OG        -27.9107   84.3095   12.5338 O.2       1 SER1        0.0000 
    112 NZ        -27.8874   85.1338   14.9975 N.2       3 LYS4        0.0000 
@<TRIPOS>BOND
@<TRIPOS>SUBSTRUCTURE
     1 SER1       72 GROUP   
     2 ALA2        5 GROUP   
     3 LYS4        4 GROUP   
     4 PHE5       34 GROUP   
     5 GLY6        1 GROUP   
     6 CUB7       10 GROUP   
@<TRIPOS>SET

