#    Name: 3vil_SA0_1_INTS_M
#    Modification time : Tue Mar 25 00:55:21 2014

@<TRIPOS>MOLECULE
3vil_SA0_1_INTS_M
   58     0     9     0     0
SMALL
NO_CHARGES


@<TRIPOS>ATOM
      1 CA        -25.3475   83.8460   15.4290 C.3       3 GLC5        0.0000 
      2 CA        -27.1230   83.5230   14.8400 C.3       9 GLL5        0.0000 
      3 CA        -23.5720   84.1690   16.0180 C.3       6 GLP5        0.0000 
      4 CA        -29.8180   83.5425   13.9415 C.3       3 GLC5        0.0000 
      5 CA        -28.5690   83.2770   15.3190 C.3       9 GLL5        0.0000 
      6 CA        -31.0670   83.8080   12.5640 C.3       6 GLP5        0.0000 
      7 N         -29.9535   85.5490   16.0220 N.am      2 SEC2        0.0000 
      8 N         -29.0920   84.4880   15.8600 N.am      8 SEL2        0.0000 
      9 N         -30.8150   86.6100   16.1840 N.am      5 SEP2        0.0000 
     10 O         -27.9375   84.7295   16.5715 O.2       1 ALC1        0.0000 
     11 O         -29.0920   84.4880   15.8600 O.2       7 ALL1        0.0000 
     12 O         -26.7830   84.9710   17.2830 O.2       4 ALP1        0.0000 
     13 O         -28.8640   85.0345   17.0655 O.2       1 ALC1        0.0000 
     14 O         -28.6360   85.5810   18.2710 O.2       4 ALP1        0.0000 
     15 CA        -29.8050   82.3120   14.3560 C.3       3 GLC5        0.0000 
     16 CA        -28.7840   82.1580   16.3460 C.3       9 GLL5        0.0000 
     17 CA        -30.8260   82.4660   12.3660 C.3       6 GLP5        0.0000 
     18 CA        -29.0085   81.3355   18.1285 C.3       3 GLC5        0.0000 
     19 CA        -29.2330   80.5130   19.9110 C.3       6 GLP5        0.0000 
     20 N         -31.1205   82.9280   16.7695 N.am      2 SEC2        0.0000 
     21 N         -30.1920   81.8860   16.4370 N.am      8 SEL2        0.0000 
     22 N         -32.0490   83.9700   17.1020 N.am      5 SEP2        0.0000 
     23 N         -30.8110   80.8005   15.6205 N.am      2 SEC2        0.0000 
     24 N         -31.4300   79.7150   14.8040 N.am      5 SEP2        0.0000 
     25 O         -30.9605   81.1220   17.2315 O.2       1 ALC1        0.0000 
     26 O         -30.1920   81.8860   16.4370 O.2       7 ALL1        0.0000 
     27 O         -31.7290   80.3580   18.0260 O.2       4 ALP1        0.0000 
     28 CA        -27.9460   80.7965   17.9375 C.3       3 GLC5        0.0000 
     29 CA        -28.0500   80.9180   15.8720 C.3       9 GLL5        0.0000 
     30 CA        -27.8420   80.6750   20.0030 C.3       6 GLP5        0.0000 
     31 CA        -29.4895   79.8350   14.9195 C.3       3 GLC5        0.0000 
     32 CA        -30.9290   78.7520   13.9670 C.3       6 GLP5        0.0000 
     33 N         -29.6315   79.0390   17.2070 N.am      2 SEC2        0.0000 
     34 N         -28.2830   79.8290   16.7660 N.am      8 SEL2        0.0000 
     35 N         -30.9800   78.2490   17.6480 N.am      5 SEP2        0.0000 
     36 O         -28.0940   78.5295   16.4610 O.2       1 ALC1        0.0000 
     37 O         -28.2830   79.8290   16.7660 O.2       7 ALL1        0.0000 
     38 O         -27.9050   77.2300   16.1560 O.2       4 ALP1        0.0000 
     39 CA        -24.3130   79.9030   14.0815 C.3       3 GLC5        0.0000 
     40 CA        -25.6250   80.1930   15.5220 C.3       9 GLL5        0.0000 
     41 CA        -23.0010   79.6130   12.6410 C.3       6 GLP5        0.0000 
     42 CA        -24.3540   78.8785   15.8400 C.3       3 GLC5        0.0000 
     43 CA        -23.0830   77.5640   16.1580 C.3       6 GLP5        0.0000 
     44 O         -26.4790   78.5205   14.1510 O.2       1 ALC1        0.0000 
     45 O         -25.8840   79.7310   14.1870 O.2       7 ALL1        0.0000 
     46 O         -27.0740   77.3100   14.1150 O.2       4 ALP1        0.0000 
     47 CA        -28.7485   82.3755   11.7840 C.3       3 GLC5        0.0000 
     48 CA        -26.6710   82.2850   11.2020 C.3       9 GLL5        0.0000 
     49 CA        -28.1245   82.8485   10.1815 C.3       3 GLC5        0.0000 
     50 CA        -29.5780   83.4120    9.1610 C.3       6 GLP5        0.0000 
     51 CA        -24.9035   81.9955   16.3535 C.3       3 GLC5        0.0000 
     52 CA        -26.5790   81.3250   15.8540 C.3       9 GLL5        0.0000 
     53 CA        -23.7050   83.2320   17.0190 C.3       6 GLP5        0.0000 
     54 CA        -25.8615   80.5955   17.8105 C.3       3 GLC5        0.0000 
     55 CA        -25.6210   80.4320   19.9330 C.3       6 GLP5        0.0000 
     56 CA        -25.2286   86.4330   12.5698 C.3       3 GLC5        0.0000 
     57 CA        -24.8180   85.0050   13.0640 C.3       9 GLL5        0.0000 
     58 CA        -25.4280   88.2880   12.4170 C.3       6 GLP5        0.0000 
@<TRIPOS>BOND
@<TRIPOS>SUBSTRUCTURE
     1 ALC1       10 GROUP        1 X    ALC  0     ROOT ALC X 1
     2 SEC2        7 GROUP        1 X    SEC  0     **** SEC X 2
     3 GLC5        1 GROUP        1 X    GLC  0     **** GLC X 6
     4 ALP1       12 GROUP        1 Y    ALP  0     ROOT ALP Y 8
     5 SEP2        9 GROUP        1 Y    SEP  0     **** SEP Y 9
     6 GLP5        3 GROUP        1 Y    GLP  0     **** GLP Y 13
     7 ALL1       11 GROUP        1 Z    ALL  0     ROOT ALL Z 15
     8 SEL2        8 GROUP        1 Z    SEL  0     **** SEL Z 16
     9 GLL5        2 GROUP        1 Z    GLL  0     **** GLL Z 20
@<TRIPOS>SET

