#    Name: 3vil_SA0_1_ligand
#    Modification time : Tue Mar 25 00:55:21 2014

@<TRIPOS>MOLECULE
3vil_SA0_1_ligand
   38    39     1     0     0
SMALL
NO_CHARGES


@<TRIPOS>ATOM
      1 C1        -27.1230   83.5230   14.8400 C.3       1 SA0507      0.0000 
      2 O1        -27.0040   84.0670   13.5000 O.3       1 SA0507      0.0000 
      3 C2        -28.5690   83.2770   15.3190 C.3       1 SA0507      0.0000 
      4 O2        -29.0920   84.4880   15.8600 O.3       1 SA0507      0.0000 
      5 C3        -28.7840   82.1580   16.3460 C.3       1 SA0507      0.0000 
      6 O3        -30.1920   81.8860   16.4370 O.3       1 SA0507      0.0000 
      7 C4        -28.0500   80.9180   15.8720 C.3       1 SA0507      0.0000 
      8 O4        -28.2830   79.8290   16.7660 O.3       1 SA0507      0.0000 
      9 C5        -26.5790   81.3250   15.8540 C.3       1 SA0507      0.0000 
     10 O5        -26.3360   82.3370   14.8680 O.3       1 SA0507      0.0000 
     11 C6        -25.6250   80.1930   15.5220 C.3       1 SA0507      0.0000 
     12 O6        -25.8840   79.7310   14.1870 O.3       1 SA0507      0.0000 
     13 OAA       -26.4340   80.9370   11.6110 O.3       1 SA0507      0.0000 
     14 CAF       -23.4260   84.2620   11.2400 C.ar      1 SA0507      0.0000 
     15 CAG       -23.6270   85.0950   12.3380 C.ar      1 SA0507      0.0000 
     16 CAH       -24.4320   83.3530   10.9050 C.ar      1 SA0507      0.0000 
     17 CAI       -24.8180   85.0050   13.0640 C.ar      1 SA0507      0.0000 
     18 CAJ       -26.6710   82.2850   11.2020 C.3       1 SA0507      0.0000 
     19 CAN       -25.6160   83.2730   11.6450 C.ar      1 SA0507      0.0000 
     20 CAO       -25.8360   84.1060   12.7440 C.ar      1 SA0507      0.0000 
     21 H         -26.6719   84.2536   15.5488 H         1 SA0507      0.0000 
     22 H         -29.1675   83.0139   14.4208 H         1 SA0507      0.0000 
     23 H         -28.3778   82.4735   17.2778 H         1 SA0507      0.0000 
     24 H         -28.3520   80.7135   14.8714 H         1 SA0507      0.0000 
     25 H         -26.3085   81.7070   16.8379 H         1 SA0507      0.0000 
     26 H         -25.7717   79.3959   16.2571 H         1 SA0507      0.0000 
     27 H         -24.6019   80.5671   15.6248 H         1 SA0507      0.0000 
     28 H         -22.5705   84.3129   10.6958 H         1 SA0507      0.0000 
     29 H         -22.9080   85.7699   12.6135 H         1 SA0507      0.0000 
     30 H         -24.2993   82.7252   10.0924 H         1 SA0507      0.0000 
     31 H         -24.9514   85.6414   13.8850 H         1 SA0507      0.0000 
     32 H         -27.6569   82.6497   11.5840 H         1 SA0507      0.0000 
     33 H         -26.7530   82.3549   10.0887 H         1 SA0507      0.0000 
     34 H         -28.6243   84.6030   16.7365 H         1 SA0507      0.0000 
     35 H         -30.2790   81.2169   17.1751 H         1 SA0507      0.0000 
     36 H         -28.0436   79.0102   16.2442 H         1 SA0507      0.0000 
     37 H         -26.3511   78.8544   14.3027 H         1 SA0507      0.0000 
     38 H         -26.0882   81.0076   12.5467 H         1 SA0507      0.0000 
@<TRIPOS>BOND
     1    2    1 1    
     2    3    1 1    
     3   10    1 1    
     4   21    1 1    
     5   20    2 1    
     6    4    3 1    
     7    5    3 1    
     8   22    3 1    
     9   34    4 1    
    10    6    5 1    
    11    7    5 1    
    12   23    5 1    
    13   35    6 1    
    14    8    7 1    
    15    9    7 1    
    16   24    7 1    
    17   36    8 1    
    18   10    9 1    
    19   11    9 1    
    20   25    9 1    
    21   12   11 1    
    22   26   11 1    
    23   27   11 1    
    24   37   12 1    
    25   18   13 1    
    26   38   13 1    
    27   15   14 ar   
    28   16   14 ar   
    29   28   14 1    
    30   17   15 ar   
    31   29   15 1    
    32   19   16 ar   
    33   30   16 1    
    34   20   17 ar   
    35   31   17 1    
    36   19   18 1    
    37   32   18 1    
    38   33   18 1    
    39   20   19 ar   
@<TRIPOS>SUBSTRUCTURE
     1 SA0507      1 GROUP   
@<TRIPOS>SET

