#    Name: 2ANB_1_CAVITY_N1_6.mol2
#    Modification time : Tue Mar 11 02:13:14 2014

@<TRIPOS>MOLECULE
2ANB_1_CAVITY_N1_6.mol2
  112     0     7     0     0
SMALL
NO_CHARGES


@<TRIPOS>ATOM
      1 OG         36.0014   16.0158   75.9020 O.2       1 SER1        0.0000 
      2 CZ         33.8984   16.2270   75.7208 C.ar      5 PHE5        0.0000 
      3 CZ         34.9417   15.3847   75.0483 C.ar      5 PHE5        0.0000 
      4 OG         37.2575   17.7157   75.7217 O.2       1 SER1        0.0000 
      5 O          38.3008   16.8735   75.0492 O.2       2 ALA2        0.0000 
      6 CZ         35.1546   17.9269   75.5405 C.ar      5 PHE5        0.0000 
      7 OG         36.1978   17.0846   74.8680 O.2       1 SER1        0.0000 
      8 O          37.2411   16.2424   74.1955 O.2       2 ALA2        0.0000 
      9 CZ         33.0516   18.1380   75.3593 C.ar      5 PHE5        0.0000 
     10 CA         34.0948   17.2958   74.6868 C.3       6 GLY6        0.0000 
     11 DU         35.1381   16.4535   74.0143 H         7 CUB7        0.0000 
     12 OG         36.1814   15.6113   73.3419 O.2       1 SER1        0.0000 
     13 CA         29.9053   19.1914   75.8506 C.3       6 GLY6        0.0000 
     14 CA         30.9486   18.3492   75.1781 C.3       6 GLY6        0.0000 
     15 CA         33.0351   16.6647   73.8332 C.3       6 GLY6        0.0000 
     16 CZ         34.0784   15.8225   73.1607 C.ar      5 PHE5        0.0000 
     17 CZ         35.1217   14.9802   72.4882 C.ar      5 PHE5        0.0000 
     18 CA         31.9754   16.0336   72.9795 C.3       6 GLY6        0.0000 
     19 NZ         41.6764   19.8355   76.5762 N.2       4 LYS4        0.0000 
     20 O          42.7197   18.9933   75.9037 O.2       2 ALA2        0.0000 
     21 O          40.6167   19.2044   75.7226 O.2       2 ALA2        0.0000 
     22 OG         38.5137   19.4156   75.5414 O.2       1 SER1        0.0000 
     23 O          39.5569   18.5734   74.8689 O.2       2 ALA2        0.0000 
     24 O          40.6002   17.7311   74.1964 O.2       2 ALA2        0.0000 
     25 OG         37.4539   18.7845   74.6877 O.2       1 SER1        0.0000 
     26 O          38.4972   17.9423   74.0152 O.2       2 ALA2        0.0000 
     27 O          39.5405   17.1000   73.3428 O.2       2 ALA2        0.0000 
     28 CA         32.2211   21.5224   76.5239 C.3       6 GLY6        0.0000 
     29 CZ         33.2644   20.6802   75.8515 C.ar      5 PHE5        0.0000 
     30 OG         34.3077   19.8379   75.1790 O.2       1 SER1        0.0000 
     31 OG         35.3510   18.9957   74.5065 O.2       1 SER1        0.0000 
     32 OG         36.3942   18.1534   73.8341 O.2       1 SER1        0.0000 
     33 OD1        37.4375   17.3112   73.1616 O.3       3 ASP3        0.0000 
     34 OG         38.4808   16.4690   72.4891 O.2       1 SER1        0.0000 
     35 OG         39.5240   15.6267   71.8166 O.2       1 SER1        0.0000 
     36 CA         31.1614   20.8913   75.6703 C.3       6 GLY6        0.0000 
     37 CZ         32.2047   20.0491   74.9978 C.ar      5 PHE5        0.0000 
     38 CZ         33.2480   19.2068   74.3253 C.ar      5 PHE5        0.0000 
     39 DU         34.2912   18.3646   73.6529 H         7 CUB7        0.0000 
     40 OD1        35.3345   17.5224   72.9804 O.3       3 ASP3        0.0000 
     41 OD1        36.3778   16.6801   72.3079 O.3       3 ASP3        0.0000 
     42 OG         37.4211   15.8379   71.6355 O.2       1 SER1        0.0000 
     43 CA         29.0584   21.1025   75.4891 C.3       6 GLY6        0.0000 
     44 CA         30.1017   20.2602   74.8166 C.3       6 GLY6        0.0000 
     45 O          31.1450   19.4180   74.1441 O.2       2 ALA2        0.0000 
     46 O          32.1882   18.5758   73.4717 O.2       2 ALA2        0.0000 
     47 DU         33.2315   17.7335   72.7992 H         7 CUB7        0.0000 
     48 DU         34.2748   16.8913   72.1267 H         7 CUB7        0.0000 
     49 N          35.3181   16.0490   71.4543 N.2       2 ALA2        0.0000 
     50 NZ         29.0420   19.6291   73.9630 N.2       4 LYS4        0.0000 
     51 CA         30.0852   18.7869   73.2905 C.3       6 GLY6        0.0000 
     52 CA         32.1718   17.1024   71.9455 C.3       6 GLY6        0.0000 
     53 NZ         33.2151   16.2602   71.2731 N.2       4 LYS4        0.0000 
     54 N          34.2583   15.4180   70.6006 N.2       2 ALA2        0.0000 
     55 CZ         40.8295   21.7466   76.2147 C.ar      5 PHE5        0.0000 
     56 NZ         41.8728   20.9043   75.5423 N.2       4 LYS4        0.0000 
     57 O          42.9161   20.0621   74.8698 O.2       2 ALA2        0.0000 
     58 CZ         39.7698   21.1155   75.3611 C.ar      5 PHE5        0.0000 
     59 OG         40.8131   20.2733   74.6886 O.2       1 SER1        0.0000 
     60 CA         41.8563   19.4310   74.0161 C.3       6 GLY6        0.0000 
     61 O          42.8996   18.5888   73.3437 O.2       2 ALA2        0.0000 
     62 OG         38.7101   20.4844   74.5074 O.2       1 SER1        0.0000 
     63 OG         39.7533   19.6422   73.8349 O.2       1 SER1        0.0000 
     64 OG         40.7966   18.7999   73.1625 O.2       1 SER1        0.0000 
     65 O          41.8399   17.9577   72.4900 O.2       2 ALA2        0.0000 
     66 CZ         34.5205   22.3801   75.6712 C.ar      5 PHE5        0.0000 
     67 OG         37.6503   19.8533   73.6538 O.2       1 SER1        0.0000 
     68 OG         38.6936   19.0111   72.9813 O.2       1 SER1        0.0000 
     69 OG         39.7369   18.1689   72.3088 O.2       1 SER1        0.0000 
     70 O          40.7802   17.3266   71.6363 O.2       2 ALA2        0.0000 
     71 OG         32.4175   22.5912   75.4900 O.2       1 SER1        0.0000 
     72 N          33.4608   21.7490   74.8175 N.2       2 ALA2        0.0000 
     73 N          34.5041   20.9067   74.1450 N.2       2 ALA2        0.0000 
     74 OG         35.5474   20.0645   73.4726 O.2       1 SER1        0.0000 
     75 OD1        36.5906   19.2223   72.8001 O.3       3 ASP3        0.0000 
     76 OD1        37.6339   18.3800   72.1276 O.3       3 ASP3        0.0000 
     77 OD1        38.6772   17.5378   71.4552 O.3       3 ASP3        0.0000 
     78 O          39.7204   16.6955   70.7827 O.2       2 ALA2        0.0000 
     79 O          40.7637   15.8533   70.1102 O.2       2 ALA2        0.0000 
     80 CA         31.3578   21.9601   74.6363 C.3       6 GLY6        0.0000 
     81 N          32.4011   21.1179   73.9639 N.2       2 ALA2        0.0000 
     82 N          33.4444   20.2757   73.2914 N.2       2 ALA2        0.0000 
     83 NZ         34.4876   19.4334   72.6189 N.2       4 LYS4        0.0000 
     84 OD1        35.5309   18.5912   71.9464 O.3       3 ASP3        0.0000 
     85 O          38.6607   16.0645   69.9290 O.2       2 ALA2        0.0000 
     86 CA         30.2981   21.3290   73.7827 C.3       6 GLY6        0.0000 
     87 CA         31.3414   20.4868   73.1102 C.3       6 GLY6        0.0000 
     88 O          32.3846   19.6446   72.4377 O.2       2 ALA2        0.0000 
     89 O          33.4279   18.8023   71.7653 O.2       2 ALA2        0.0000 
     90 OD1        34.4712   17.9601   71.0928 O.3       3 ASP3        0.0000 
     91 O          32.3682   18.1713   70.9116 O.2       2 ALA2        0.0000 
     92 N          33.4115   17.3290   70.2391 N.2       2 ALA2        0.0000 
     93 N          39.9826   23.6576   75.8532 N.2       2 ALA2        0.0000 
     94 CA         41.0259   22.8154   75.1808 C.3       6 GLY6        0.0000 
     95 N          37.8796   23.8688   75.6721 N.2       2 ALA2        0.0000 
     96 CZ         38.9229   23.0266   74.9996 C.ar      5 PHE5        0.0000 
     97 CA         39.9662   22.1843   74.3271 C.3       6 GLY6        0.0000 
     98 CA         41.0095   21.3421   73.6547 C.3       6 GLY6        0.0000 
     99 CZ         35.7766   24.0799   75.4909 C.ar      5 PHE5        0.0000 
    100 OG         36.8199   23.2377   74.8184 O.2       1 SER1        0.0000 
    101 NZ         37.8632   22.3955   74.1459 N.2       4 LYS4        0.0000 
    102 NZ         38.9065   21.5532   73.4735 N.2       4 LYS4        0.0000 
    103 CA         42.0363   19.0265   71.4561 C.3       6 GLY6        0.0000 
    104 N          34.7169   23.4489   74.6372 N.2       2 ALA2        0.0000 
    105 N          35.7602   22.6066   73.9647 N.2       2 ALA2        0.0000 
    106 OG         39.9168   17.7644   69.7487 O.2       1 SER1        0.0000 
    107 OD1        38.8571   17.1333   68.8951 O.3       3 ASP3        0.0000 
    108 N          37.0328   25.7798   75.3106 N.2       2 ALA2        0.0000 
    109 N          38.0760   24.9376   74.6381 N.2       2 ALA2        0.0000 
    110 N          35.9730   25.1488   74.4569 N.2       2 ALA2        0.0000 
    111 CA         37.0163   24.3065   73.7845 C.3       6 GLY6        0.0000 
    112 CA         37.2127   25.3753   72.7505 C.3       6 GLY6        0.0000 
@<TRIPOS>BOND
@<TRIPOS>SUBSTRUCTURE
     1 SER1        1 GROUP   
     2 ALA2        5 GROUP   
     3 ASP3       33 GROUP   
     4 LYS4       19 GROUP   
     5 PHE5        2 GROUP   
     6 GLY6       10 GROUP   
     7 CUB7       11 GROUP   
@<TRIPOS>SET

