#    Name: 2anb_5GP_1_INTS_M
#    Modification time : Mon Mar 24 19:30:04 2014

@<TRIPOS>MOLECULE
2anb_5GP_1_INTS_M
   57     0    12     0     0
SMALL
NO_CHARGES


@<TRIPOS>ATOM
      1 NZ         38.5290   18.3860   77.6815 N.4       3 LYC4        0.0000 
      2 NZ         37.5750   18.2870   76.3780 N.4      11 LYL4        0.0000 
      3 NZ         38.9840   17.6660   79.9010 N.4       7 LYP4        0.0000 
      4 N          38.5290   18.3860   77.6815 N.am      2 SEC2        0.0000 
      5 N          37.5750   18.2870   76.3780 N.am     10 SEL2        0.0000 
      6 N          39.4830   18.4850   78.9850 N.am      6 SEP2        0.0000 
      7 NZ         36.9875   14.2775   76.4545 N.4       3 LYC4        0.0000 
      8 NZ         36.9370   16.0010   76.8150 N.4      11 LYL4        0.0000 
      9 NZ         37.0380   12.5540   76.0940 N.4       7 LYP4        0.0000 
     10 N          37.3910   16.5105   78.2390 N.am      2 SEC2        0.0000 
     11 N          36.9370   16.0010   76.8150 N.am     10 SEL2        0.0000 
     12 N          37.8450   17.0200   79.6630 N.am      6 SEP2        0.0000 
     13 N          38.6420   15.9460   76.6200 N.am      2 SEC2        0.0000 
     14 N          40.3470   15.8910   76.4250 N.am      6 SEP2        0.0000 
     15 CA         34.2285   14.4450   74.3440 C.3       4 GLC5        0.0000 
     16 CA         35.0970   16.1590   74.4000 C.3      12 GLL5        0.0000 
     17 CA         33.3600   12.7310   74.2880 C.3       8 GLP5        0.0000 
     18 CA         34.3600   16.6825   76.4215 C.3       4 GLC5        0.0000 
     19 CA         33.6230   17.2060   78.4430 C.3       8 GLP5        0.0000 
     20 CA         32.3555   16.1905   74.6375 C.3       4 GLC5        0.0000 
     21 CA         33.9090   16.5980   73.5430 C.3      12 GLL5        0.0000 
     22 CA         30.8020   15.7830   75.7320 C.3       8 GLP5        0.0000 
     23 CA         33.6660   14.7195   73.2175 C.3       4 GLC5        0.0000 
     24 CA         33.4230   12.8410   72.8920 C.3       8 GLP5        0.0000 
     25 CA         31.8245   17.2295   74.6035 C.3       4 GLC5        0.0000 
     26 CA         32.8470   18.6760   73.4750 C.3      12 GLL5        0.0000 
     27 CA         31.2110   18.0575   72.3285 C.3       4 GLC5        0.0000 
     28 CA         29.5750   17.4390   71.1820 C.3       8 GLP5        0.0000 
     29 CA         32.4620   23.3580   76.3000 C.3       4 GLC5        0.0000 
     30 CA         31.8260   21.7460   75.0380 C.3      12 GLL5        0.0000 
     31 CA         33.0980   24.9700   77.5620 C.3       8 GLP5        0.0000 
     32 CA         31.1360   22.8060   73.5650 C.3       4 GLC5        0.0000 
     33 CA         30.4460   23.8660   72.0920 C.3       8 GLP5        0.0000 
     34 N          31.7580   24.3965   76.1385 N.am      2 SEC2        0.0000 
     35 N          30.8650   23.5440   76.0330 N.am     10 SEL2        0.0000 
     36 N          32.6510   25.2490   76.2440 N.am      6 SEP2        0.0000 
     37 O          27.8860   22.4875   74.4950 O.2       1 ALC1        0.0000 
     38 O          29.4440   22.1200   75.0070 O.2       9 ALL1        0.0000 
     39 O          26.3280   22.8550   73.9830 O.2       5 ALP1        0.0000 
     40 O          28.6435   23.2245   74.8145 O.2       1 ALC1        0.0000 
     41 O          27.8430   24.3290   74.6220 O.2       5 ALP1        0.0000 
     42 O          27.1850   21.7360   73.9480 O.2       1 ALC1        0.0000 
     43 O          28.0420   20.6170   73.9130 O.2       9 ALL1        0.0000 
     44 O          27.8575   19.5305   73.0180 O.2       1 ALC1        0.0000 
     45 O          27.6730   18.4440   72.1230 O.2       5 ALP1        0.0000 
     46 N          30.2940   19.9795   72.3105 N.am      2 SEC2        0.0000 
     47 N          30.3830   20.2120   73.9380 N.am     10 SEL2        0.0000 
     48 N          30.2050   19.7470   70.6830 N.am      6 SEP2        0.0000 
     49 CA         31.5200   21.2130   72.6285 C.3       4 GLC5        0.0000 
     50 CA         31.6460   20.6050   74.3350 C.3      12 GLL5        0.0000 
     51 CA         31.3940   21.8210   70.9220 C.3       8 GLP5        0.0000 
     52 CA         35.0042   18.5293   70.4942 C.3       4 GLC5        0.0000 
     53 CA         33.9830   18.7190   72.4440 C.3      12 GLL5        0.0000 
     54 CA         35.8430   19.0650   68.6430 C.3       8 GLP5        0.0000 
     55 CA         32.4045   20.2593   71.9407 C.3       4 GLC5        0.0000 
     56 CA         31.1980   20.7422   76.3897 C.3       4 GLC5        0.0000 
     57 CA         30.6600   20.3090   78.0930 C.3       8 GLP5        0.0000 
@<TRIPOS>BOND
@<TRIPOS>SUBSTRUCTURE
     1 ALC1       37 GROUP        1 X    ALC  0     ROOT ALC X 1
     2 SEC2        4 GROUP        1 X    SEC  0     **** SEC X 2
     3 LYC4        1 GROUP        1 X    LYC  0     **** LYC X 4
     4 GLC5       15 GROUP        1 X    GLC  0     **** GLC X 6
     5 ALP1       39 GROUP        1 Y    ALP  0     ROOT ALP Y 8
     6 SEP2        6 GROUP        1 Y    SEP  0     **** SEP Y 9
     7 LYP4        3 GROUP        1 Y    LYP  0     **** LYP Y 11
     8 GLP5       17 GROUP        1 Y    GLP  0     **** GLP Y 13
     9 ALL1       38 GROUP        1 Z    ALL  0     ROOT ALL Z 15
    10 SEL2        5 GROUP        1 Z    SEL  0     **** SEL Z 16
    11 LYL4        2 GROUP        1 Z    LYL  0     **** LYL Z 18
    12 GLL5       16 GROUP        1 Z    GLL  0     **** GLL Z 20
@<TRIPOS>SET

