#    Name: 2anb_5GP_1_ligand
#    Modification time : Mon Mar 24 19:30:04 2014

@<TRIPOS>MOLECULE
2anb_5GP_1_ligand
   36    38     1     0     0
SMALL
NO_CHARGES


@<TRIPOS>ATOM
      1 P          37.1400   17.0210   75.7630 P.3       1 5GP301      0.0000 
      2 O1P        37.5750   18.2870   76.3780 O.co2     1 5GP301      0.0000 
      3 O2P        36.9370   16.0010   76.8150 O.co2     1 5GP301      0.0000 
      4 O3P        38.1550   16.5740   74.7840 O.co2     1 5GP301      0.0000 
      5 O5'        35.7670   17.2670   74.9620 O.3       1 5GP301      0.0000 
      6 C5'        35.0970   16.1590   74.4000 C.3       1 5GP301      0.0000 
      7 C4'        33.9090   16.5980   73.5430 C.3       1 5GP301      0.0000 
      8 O4'        33.0990   17.5200   74.2540 O.3       1 5GP301      0.0000 
      9 C3'        34.3480   17.2680   72.2470 C.3       1 5GP301      0.0000 
     10 O3'        33.6590   16.7470   71.1290 O.3       1 5GP301      0.0000 
     11 C2'        33.9830   18.7190   72.4440 C.3       1 5GP301      0.0000 
     12 O2'        33.6220   19.2860   71.2030 O.3       1 5GP301      0.0000 
     13 C1'        32.8470   18.6760   73.4750 C.3       1 5GP301      0.0000 
     14 N9         32.7570   19.8460   74.3860 N.pl3     1 5GP301      0.0000 
     15 C8         33.7290   20.7520   74.8050 C.2       1 5GP301      0.0000 
     16 N7         33.1280   21.9150   75.3040 N.2       1 5GP301      0.0000 
     17 C5         31.8260   21.7460   75.0380 C.2       1 5GP301      0.0000 
     18 C6         30.7180   22.5090   75.3830 C.2       1 5GP301      0.0000 
     19 O6         30.8650   23.5440   76.0330 O.2       1 5GP301      0.0000 
     20 N1         29.4440   22.1200   75.0070 N.am      1 5GP301      0.0000 
     21 C2         29.2750   20.9750   74.2690 C.2       1 5GP301      0.0000 
     22 N2         28.0420   20.6170   73.9130 N.pl3     1 5GP301      0.0000 
     23 N3         30.3830   20.2120   73.9380 N.2       1 5GP301      0.0000 
     24 C4         31.6460   20.6050   74.3350 C.2       1 5GP301      0.0000 
     25 H          34.7070   15.4744   75.1754 H         1 5GP301      0.0000 
     26 H          35.7625   15.5569   73.7545 H         1 5GP301      0.0000 
     27 H          33.3354   15.7128   73.2791 H         1 5GP301      0.0000 
     28 H          35.4049   17.1957   72.1737 H         1 5GP301      0.0000 
     29 H          34.8254   19.1998   72.9059 H         1 5GP301      0.0000 
     30 H          31.9164   18.5507   72.9346 H         1 5GP301      0.0000 
     31 H          34.6764   20.6044   74.7600 H         1 5GP301      0.0000 
     32 H          28.6315   22.6894   75.2817 H         1 5GP301      0.0000 
     33 H          27.3085   21.2434   74.1767 H         1 5GP301      0.0000 
     34 H          27.9611   19.7541   73.4141 H         1 5GP301      0.0000 
     35 H          34.3740   16.5151   70.4695 H         1 5GP301      0.0000 
     36 H          33.5999   18.5172   70.5640 H         1 5GP301      0.0000 
@<TRIPOS>BOND
     1    2    1 ar   
     2    3    1 ar   
     3    4    1 ar   
     4    5    1 1    
     5    6    5 1    
     6    7    6 1    
     7   25    6 1    
     8   26    6 1    
     9    8    7 1    
    10    9    7 1    
    11   27    7 1    
    12   13    8 1    
    13   10    9 1    
    14   11    9 1    
    15   28    9 1    
    16   35   10 1    
    17   12   11 1    
    18   13   11 1    
    19   29   11 1    
    20   36   12 1    
    21   14   13 1    
    22   30   13 1    
    23   15   14 1    
    24   24   14 1    
    25   16   15 2    
    26   31   15 1    
    27   17   16 1    
    28   18   17 1    
    29   24   17 2    
    30   19   18 2    
    31   20   18 am   
    32   21   20 1    
    33   32   20 1    
    34   22   21 1    
    35   23   21 2    
    36   33   22 1    
    37   34   22 1    
    38   24   23 1    
@<TRIPOS>SUBSTRUCTURE
     1 5GP301      1 GROUP   
@<TRIPOS>SET

