#    Name: 3aut_NAI_1_INTS_M
#    Modification time : Mon Mar 24 18:14:47 2014

@<TRIPOS>MOLECULE
3aut_NAI_1_INTS_M
   88     0     9     0     0
SMALL
NO_CHARGES


@<TRIPOS>ATOM
      1 N         -30.3830  -34.5455   -8.8380 N.am      2 SEC2        0.0000 
      2 N         -31.0110  -33.6170   -9.5900 N.am      8 SEL2        0.0000 
      3 N         -29.7550  -35.4740   -8.0860 N.am      5 SEP2        0.0000 
      4 CA        -24.9855  -31.3980   -8.7490 C.3       3 GLC5        0.0000 
      5 CA        -26.8370  -32.3040   -8.1840 C.3       9 GLL5        0.0000 
      6 CA        -23.1340  -30.4920   -9.3140 C.3       6 GLP5        0.0000 
      7 N         -25.3295  -30.0640   -8.4825 N.am      2 SEC2        0.0000 
      8 N         -25.8660  -31.4010   -7.6520 N.am      8 SEL2        0.0000 
      9 N         -24.7930  -28.7270   -9.3130 N.am      5 SEP2        0.0000 
     10 O         -28.6040  -34.8950   -7.5230 O.2       1 ALC1        0.0000 
     11 O         -27.4530  -34.3160   -6.9600 O.2       7 ALL1        0.0000 
     12 O         -29.7550  -35.4740   -8.0860 O.2       4 ALP1        0.0000 
     13 CA        -24.7365  -33.2760   -7.1810 C.3       3 GLC5        0.0000 
     14 CA        -25.6570  -31.7770   -6.2920 C.3       9 GLL5        0.0000 
     15 CA        -23.8160  -34.7750   -8.0700 C.3       6 GLP5        0.0000 
     16 CA        -23.9715  -31.1335   -7.1685 C.3       3 GLC5        0.0000 
     17 CA        -22.2860  -30.4900   -8.0450 C.3       6 GLP5        0.0000 
     18 CA        -20.9080  -30.0880   -2.0935 C.3       3 GLC5        0.0000 
     19 CA        -22.5420  -29.4540   -3.4210 C.3       9 GLL5        0.0000 
     20 CA        -19.2740  -30.7220   -0.7660 C.3       6 GLP5        0.0000 
     21 O         -21.2675  -28.1815   -1.7825 O.2       1 ALC1        0.0000 
     22 O         -22.3230  -28.2990   -2.7380 O.2       7 ALL1        0.0000 
     23 O         -20.2120  -28.0640   -0.8270 O.2       4 ALP1        0.0000 
     24 N         -20.2140  -30.1200   -3.1940 N.am      2 SEC2        0.0000 
     25 N         -21.6290  -30.4630   -3.4130 N.am      8 SEL2        0.0000 
     26 N         -18.7990  -29.7770   -2.9750 N.am      5 SEP2        0.0000 
     27 CA        -22.8810  -32.1850   -2.6910 C.3       3 GLC5        0.0000 
     28 CA        -21.8440  -31.6060   -4.0920 C.3       9 GLL5        0.0000 
     29 CA        -23.9180  -32.7640   -1.2900 C.3       6 GLP5        0.0000 
     30 CA        -20.5590  -31.1640   -2.4290 C.3       3 GLC5        0.0000 
     31 CA        -20.2970  -31.2150   -4.9740 C.3       3 GLC5        0.0000 
     32 CA        -18.7500  -30.8240   -5.8560 C.3       6 GLP5        0.0000 
     33 CA        -22.0650  -31.0480   -6.0685 C.3       3 GLC5        0.0000 
     34 N         -29.3555  -34.7005  -13.1435 N.am      2 SEC2        0.0000 
     35 N         -29.4820  -33.5630  -12.3720 N.am      8 SEL2        0.0000 
     36 N         -29.2290  -35.8380  -13.9150 N.am      5 SEP2        0.0000 
     37 N         -32.1920  -31.8985  -13.4845 N.am      2 SEC2        0.0000 
     38 N         -30.7790  -31.5940  -13.5230 N.am      8 SEL2        0.0000 
     39 N         -33.6050  -32.2030  -13.4460 N.am      5 SEP2        0.0000 
     40 CA        -27.6415  -33.1425  -14.4635 C.3       3 GLC5        0.0000 
     41 CA        -27.3520  -31.6450  -13.2790 C.3       9 GLL5        0.0000 
     42 CA        -27.9310  -34.6400  -15.6480 C.3       6 GLP5        0.0000 
     43 CA        -27.5320  -31.5160  -15.3840 C.3       3 GLC5        0.0000 
     44 CA        -26.5450  -30.4610  -13.8400 C.3       9 GLL5        0.0000 
     45 CA        -28.5190  -32.5710  -16.9280 C.3       6 GLP5        0.0000 
     46 CA        -25.3840  -30.5985  -15.2430 C.3       3 GLC5        0.0000 
     47 CA        -24.2230  -30.7360  -16.6460 C.3       6 GLP5        0.0000 
     48 CA        -25.9785  -28.2765  -11.2860 C.3       3 GLC5        0.0000 
     49 CA        -26.6460  -29.1660  -13.0380 C.3       9 GLL5        0.0000 
     50 CA        -25.3110  -27.3870   -9.5340 C.3       6 GLP5        0.0000 
     51 O         -24.6880  -29.6435  -12.5140 O.2       1 ALC1        0.0000 
     52 O         -25.3720  -28.5200  -13.0400 O.2       7 ALL1        0.0000 
     53 O         -24.0040  -30.7670  -11.9880 O.2       4 ALP1        0.0000 
     54 N         -27.4490  -25.9890  -14.3060 N.am      2 SEC2        0.0000 
     55 N         -27.2240  -26.9380  -13.6100 N.am      8 SEL2        0.0000 
     56 N         -27.6740  -25.0400  -15.0020 N.am      5 SEP2        0.0000 
     57 CA        -27.9445  -30.6690  -16.0920 C.3       3 GLC5        0.0000 
     58 CA        -27.3700  -28.7670  -15.2560 C.3       9 GLL5        0.0000 
     59 CA        -25.7965  -29.7515  -15.9510 C.3       3 GLC5        0.0000 
     60 CA        -29.1515  -30.7205  -16.2960 C.3       3 GLC5        0.0000 
     61 CA        -29.7840  -28.8700  -15.6640 C.3       9 GLL5        0.0000 
     62 N         -33.9315  -29.7025  -17.8665 N.am      2 SEC2        0.0000 
     63 N         -33.1430  -29.0030  -16.8930 N.am      8 SEL2        0.0000 
     64 N         -34.7200  -30.4020  -18.8400 N.am      5 SEP2        0.0000 
     65 N         -34.2820  -29.0745  -15.9100 N.am      2 SEC2        0.0000 
     66 N         -35.4210  -29.1460  -14.9270 N.am      5 SEP2        0.0000 
     67 O         -32.8925  -31.2750  -14.4050 O.2       1 ALC1        0.0000 
     68 O         -32.1800  -30.3470  -15.3640 O.2       7 ALL1        0.0000 
     69 O         -33.6050  -32.2030  -13.4460 O.2       4 ALP1        0.0000 
     70 CA        -27.5555  -28.2540  -18.5050 C.3       3 GLC5        0.0000 
     71 CA        -28.4750  -27.3980  -16.8170 C.3       9 GLL5        0.0000 
     72 CA        -26.6360  -29.1100  -20.1930 C.3       6 GLP5        0.0000 
     73 CA        -25.5207  -33.6860   -7.8312 C.3       3 GLC5        0.0000 
     74 CA        -21.4672  -29.0348   -4.6845 C.3       3 GLC5        0.0000 
     75 CA        -19.8060  -28.5390   -5.5830 C.3       6 GLP5        0.0000 
     76 CA        -23.0500  -30.3457   -6.2705 C.3       3 GLC5        0.0000 
     77 CA        -23.7150  -29.6070   -4.1510 C.3       9 GLL5        0.0000 
     78 CA        -23.1058  -27.8343   -5.0140 C.3       3 GLC5        0.0000 
     79 CA        -23.0830  -26.1380   -6.2420 C.3       6 GLP5        0.0000 
     80 CA        -23.7194  -31.4636   -2.8018 C.3       3 GLC5        0.0000 
     81 CA        -31.4480  -29.8740  -18.1587 C.3       3 GLC5        0.0000 
     82 CA        -30.7890  -27.6500  -17.5860 C.3       9 GLL5        0.0000 
     83 CA        -32.0690  -31.5930  -19.2980 C.3       6 GLP5        0.0000 
     84 CA        -28.0128  -25.8180  -17.8240 C.3       3 GLC5        0.0000 
     85 CA        -29.4020  -27.0700  -17.7190 C.3       9 GLL5        0.0000 
     86 CA        -27.0870  -24.4020  -18.3800 C.3       6 GLP5        0.0000 
     87 CA        -29.4767  -28.7897  -18.7516 C.3       3 GLC5        0.0000 
     88 CA        -28.8390  -29.9670  -20.1340 C.3       6 GLP5        0.0000 
@<TRIPOS>BOND
@<TRIPOS>SUBSTRUCTURE
     1 ALC1       10 GROUP        1 X    ALC  0     ROOT ALC X 1
     2 SEC2        1 GROUP        1 X    SEC  0     **** SEC X 2
     3 GLC5        4 GROUP        1 X    GLC  0     **** GLC X 6
     4 ALP1       12 GROUP        1 Y    ALP  0     ROOT ALP Y 8
     5 SEP2        3 GROUP        1 Y    SEP  0     **** SEP Y 9
     6 GLP5        6 GROUP        1 Y    GLP  0     **** GLP Y 13
     7 ALL1       11 GROUP        1 Z    ALL  0     ROOT ALL Z 15
     8 SEL2        2 GROUP        1 Z    SEL  0     **** SEL Z 16
     9 GLL5        5 GROUP        1 Z    GLL  0     **** GLL Z 20
@<TRIPOS>SET

