#    Name: 3aut_NAI_1_ligand
#    Modification time : Mon Mar 24 18:14:47 2014

@<TRIPOS>MOLECULE
3aut_NAI_1_ligand
   71    75     1     0     0
SMALL
NO_CHARGES


@<TRIPOS>ATOM
      1 PA        -30.3000  -32.2790   -9.6020 P.3       1 NAI301      0.0000 
      2 O1A       -30.6170  -31.2160   -8.5590 O.co2     1 NAI301      0.0000 
      3 O2A       -31.0110  -33.6170   -9.5900 O.co2     1 NAI301      0.0000 
      4 O5B       -28.7080  -32.5490   -9.6040 O.3       1 NAI301      0.0000 
      5 C5B       -27.7610  -31.5800   -9.1490 C.3       1 NAI301      0.0000 
      6 C4B       -26.8370  -32.3040   -8.1840 C.3       1 NAI301      0.0000 
      7 O4B       -25.8660  -31.4010   -7.6520 O.3       1 NAI301      0.0000 
      8 C3B       -27.6140  -32.8900   -7.0010 C.3       1 NAI301      0.0000 
      9 O3B       -27.4530  -34.3160   -6.9600 O.3       1 NAI301      0.0000 
     10 C2B       -27.0120  -32.2250   -5.7770 C.3       1 NAI301      0.0000 
     11 O2B       -26.8540  -33.1250   -4.6760 O.3       1 NAI301      0.0000 
     12 C1B       -25.6570  -31.7770   -6.2920 C.3       1 NAI301      0.0000 
     13 N9A       -25.0930  -30.6960   -5.4550 N.pl3     1 NAI301      0.0000 
     14 C8A       -25.6390  -29.4990   -5.1740 C.2       1 NAI301      0.0000 
     15 N7A       -24.7900  -28.8170   -4.3710 N.2       1 NAI301      0.0000 
     16 C5A       -23.7150  -29.6070   -4.1510 C.ar      1 NAI301      0.0000 
     17 C6A       -22.5420  -29.4540   -3.4210 C.ar      1 NAI301      0.0000 
     18 N6A       -22.3230  -28.2990   -2.7380 N.pl3     1 NAI301      0.0000 
     19 N1A       -21.6290  -30.4630   -3.4130 N.ar      1 NAI301      0.0000 
     20 C2A       -21.8440  -31.6060   -4.0920 C.ar      1 NAI301      0.0000 
     21 N3A       -22.9720  -31.7850   -4.8010 N.ar      1 NAI301      0.0000 
     22 C4A       -23.9130  -30.7960   -4.8410 C.ar      1 NAI301      0.0000 
     23 O3        -30.5400  -31.6040  -11.0560 O.3       1 NAI301      0.0000 
     24 PN        -29.8570  -32.0990  -12.4440 P.3       1 NAI301      0.0000 
     25 O1N       -29.4820  -33.5630  -12.3720 O.co2     1 NAI301      0.0000 
     26 O2N       -30.7790  -31.5940  -13.5230 O.co2     1 NAI301      0.0000 
     27 O5D       -28.4900  -31.2260  -12.5170 O.3       1 NAI301      0.0000 
     28 C5D       -27.3520  -31.6450  -13.2790 C.3       1 NAI301      0.0000 
     29 C4D       -26.5450  -30.4610  -13.8400 C.3       1 NAI301      0.0000 
     30 O4D       -26.9890  -30.1430  -15.1620 O.3       1 NAI301      0.0000 
     31 C3D       -26.6460  -29.1660  -13.0380 C.3       1 NAI301      0.0000 
     32 O3D       -25.3720  -28.5200  -13.0400 O.3       1 NAI301      0.0000 
     33 C2D       -27.5940  -28.3000  -13.8200 C.3       1 NAI301      0.0000 
     34 O2D       -27.2240  -26.9380  -13.6100 O.3       1 NAI301      0.0000 
     35 C1D       -27.3700  -28.7670  -15.2560 C.3       1 NAI301      0.0000 
     36 N1N       -28.5200  -28.6290  -16.1940 N.pl3     1 NAI301      0.0000 
     37 C2N       -29.7840  -28.8700  -15.6640 C.2       1 NAI301      0.0000 
     38 C3N       -30.8650  -28.6600  -16.4530 C.2       1 NAI301      0.0000 
     39 C7N       -32.1480  -29.3560  -16.2550 C.2       1 NAI301      0.0000 
     40 O7N       -33.1430  -29.0030  -16.8930 O.2       1 NAI301      0.0000 
     41 N7N       -32.1800  -30.3470  -15.3640 N.am      1 NAI301      0.0000 
     42 C4N       -30.7890  -27.6500  -17.5860 C.3       1 NAI301      0.0000 
     43 C5N       -29.4020  -27.0700  -17.7190 C.2       1 NAI301      0.0000 
     44 C6N       -28.4750  -27.3980  -16.8170 C.2       1 NAI301      0.0000 
     45 H         -28.2379  -30.7660   -8.6168 H         1 NAI301      0.0000 
     46 H         -27.1626  -31.1856   -9.9612 H         1 NAI301      0.0000 
     47 H         -26.3588  -33.1201   -8.7014 H         1 NAI301      0.0000 
     48 H         -28.6285  -32.5856   -7.0918 H         1 NAI301      0.0000 
     49 H         -27.5783  -31.3588   -5.5497 H         1 NAI301      0.0000 
     50 H         -25.0048  -32.6543   -6.2474 H         1 NAI301      0.0000 
     51 H         -26.4934  -29.1764   -5.4902 H         1 NAI301      0.0000 
     52 H         -21.4590  -28.2406   -2.2381 H         1 NAI301      0.0000 
     53 H         -23.0453  -27.6098   -2.7959 H         1 NAI301      0.0000 
     54 H         -21.1211  -32.3659   -4.0666 H         1 NAI301      0.0000 
     55 H         -27.6495  -32.2760  -14.1384 H         1 NAI301      0.0000 
     56 H         -26.6584  -32.2556  -12.6696 H         1 NAI301      0.0000 
     57 H         -25.4921  -30.7479  -13.8740 H         1 NAI301      0.0000 
     58 H         -27.0260  -29.3603  -12.0953 H         1 NAI301      0.0000 
     59 H         -28.5776  -28.5316  -13.5302 H         1 NAI301      0.0000 
     60 H         -26.5120  -28.2013  -15.6494 H         1 NAI301      0.0000 
     61 H         -29.8766  -29.1979  -14.6990 H         1 NAI301      0.0000 
     62 H         -33.0514  -30.8291  -15.2731 H         1 NAI301      0.0000 
     63 H         -31.3297  -30.5192  -14.8667 H         1 NAI301      0.0000 
     64 H         -31.5053  -26.8443  -17.3959 H         1 NAI301      0.0000 
     65 H         -31.0711  -28.1411  -18.5228 H         1 NAI301      0.0000 
     66 H         -29.2565  -26.4498  -18.5074 H         1 NAI301      0.0000 
     67 H         -27.7089  -26.7395  -16.5686 H         1 NAI301      0.0000 
     68 H         -28.2720  -34.6816   -7.4022 H         1 NAI301      0.0000 
     69 H         -27.0823  -34.0264   -5.0439 H         1 NAI301      0.0000 
     70 H         -24.8678  -28.9400  -12.2854 H         1 NAI301      0.0000 
     71 H         -26.2692  -26.9719  -13.3149 H         1 NAI301      0.0000 
@<TRIPOS>BOND
     1    2    1 ar   
     2    3    1 ar   
     3    4    1 1    
     4   23    1 1    
     5    5    4 1    
     6    6    5 1    
     7   45    5 1    
     8   46    5 1    
     9    7    6 1    
    10    8    6 1    
    11   47    6 1    
    12   12    7 1    
    13    9    8 1    
    14   10    8 1    
    15   48    8 1    
    16   68    9 1    
    17   11   10 1    
    18   12   10 1    
    19   49   10 1    
    20   69   11 1    
    21   13   12 1    
    22   50   12 1    
    23   14   13 1    
    24   22   13 1    
    25   15   14 2    
    26   51   14 1    
    27   16   15 1    
    28   17   16 ar   
    29   22   16 ar   
    30   18   17 1    
    31   19   17 ar   
    32   52   18 1    
    33   53   18 1    
    34   20   19 ar   
    35   21   20 ar   
    36   54   20 1    
    37   22   21 ar   
    38   24   23 1    
    39   25   24 ar   
    40   26   24 ar   
    41   27   24 1    
    42   28   27 1    
    43   29   28 1    
    44   55   28 1    
    45   56   28 1    
    46   30   29 1    
    47   31   29 1    
    48   57   29 1    
    49   35   30 1    
    50   32   31 1    
    51   33   31 1    
    52   58   31 1    
    53   70   32 1    
    54   34   33 1    
    55   35   33 1    
    56   59   33 1    
    57   71   34 1    
    58   36   35 1    
    59   60   35 1    
    60   37   36 1    
    61   44   36 1    
    62   38   37 2    
    63   61   37 1    
    64   39   38 1    
    65   42   38 1    
    66   40   39 2    
    67   41   39 am   
    68   62   41 1    
    69   63   41 1    
    70   43   42 1    
    71   64   42 1    
    72   65   42 1    
    73   44   43 2    
    74   66   43 1    
    75   67   44 1    
@<TRIPOS>SUBSTRUCTURE
     1 NAI301      1 GROUP   
@<TRIPOS>SET

