#    Name: 4mr7_2BV_1_INTS_M
#    Modification time : Tue Mar 25 12:21:22 2014

@<TRIPOS>MOLECULE
4mr7_2BV_1_INTS_M
   50     0    12     0     0
SMALL
NO_CHARGES


@<TRIPOS>ATOM
      1 N         -44.1120   22.4745  -27.5960 N.am      2 SEC2        0.0000 
      2 N         -45.4250   22.3190  -27.3230 N.am     10 SEL2        0.0000 
      3 N         -42.7990   22.6300  -27.8690 N.am      6 SEP2        0.0000 
      4 N         -45.2065   22.9770  -28.6485 N.am      2 SEC2        0.0000 
      5 N         -44.9880   23.6350  -29.9740 N.am      6 SEP2        0.0000 
      6 N         -45.9555   23.5510  -27.6065 N.am      2 SEC2        0.0000 
      7 N         -46.4860   24.7830  -27.8900 N.am      6 SEP2        0.0000 
      8 N         -43.8125   19.8975  -26.7300 N.am      2 SEC2        0.0000 
      9 N         -44.9760   20.2270  -26.1260 N.am     10 SEL2        0.0000 
     10 N         -42.6490   19.5680  -27.3340 N.am      6 SEP2        0.0000 
     11 CA        -47.5430   23.4500  -28.5130 C.3       4 GLC5        0.0000 
     12 CA        -48.4440   21.6110  -27.8170 C.3      12 GLL5        0.0000 
     13 CA        -46.6420   25.2890  -29.2090 C.3       8 GLP5        0.0000 
     14 N         -47.1565   23.6210  -28.3525 N.am      2 SEC2        0.0000 
     15 N         -47.8270   22.4590  -28.8150 N.am     10 SEL2        0.0000 
     16 O         -47.3120   21.4920  -29.5900 O.2       1 ALC1        0.0000 
     17 O         -47.8270   22.4590  -28.8150 O.2       9 ALL1        0.0000 
     18 O         -46.7970   20.5250  -30.3650 O.2       5 ALP1        0.0000 
     19 CA        -49.9860   19.1515  -28.4155 C.3       4 GLC5        0.0000 
     20 CA        -49.6080   20.8770  -28.4900 C.3      12 GLL5        0.0000 
     21 CA        -50.3640   17.4260  -28.3410 C.3       8 GLP5        0.0000 
     22 CA        -49.2955   21.3980  -30.4665 C.3       4 GLC5        0.0000 
     23 CA        -48.9830   21.9190  -32.4430 C.3       8 GLP5        0.0000 
     24 CA        -50.8490   20.2090  -30.1430 C.3       4 GLC5        0.0000 
     25 CA        -52.0900   19.5410  -31.7960 C.3       8 GLP5        0.0000 
     26 OD1       -51.7660   21.1480  -29.4490 O.co2     3 ASC3        0.0000 
     27 OD1       -50.5660   21.8130  -29.0850 O.co2    11 ASL3        0.0000 
     28 OD1       -52.9660   20.4830  -29.8130 O.co2     7 ASP3        0.0000 
     29 CA        -52.8485   25.3360  -28.2575 C.3       4 GLC5        0.0000 
     30 CA        -52.0390   23.8450  -29.2280 C.3      12 GLL5        0.0000 
     31 CA        -53.6580   26.8270  -27.2870 C.3       8 GLP5        0.0000 
     32 CA        -52.4040   23.5290  -31.0155 C.3       4 GLC5        0.0000 
     33 CA        -52.7690   23.2130  -32.8030 C.3       8 GLP5        0.0000 
     34 CA        -53.2455   23.9195  -22.8360 C.3       4 GLC5        0.0000 
     35 CA        -53.3450   22.0540  -22.8130 C.3      12 GLL5        0.0000 
     36 CA        -53.1460   25.7850  -22.8590 C.3       8 GLP5        0.0000 
     37 CA        -52.5125   19.0600  -25.7105 C.3       4 GLC5        0.0000 
     38 CA        -54.0510   20.0600  -25.1410 C.3      12 GLL5        0.0000 
     39 CA        -50.9740   18.0600  -26.2800 C.3       8 GLP5        0.0000 
     40 CA        -47.9585   19.2413  -24.1520 C.3       4 GLC5        0.0000 
     41 CA        -47.4580   21.2340  -23.9720 C.3      12 GLL5        0.0000 
     42 CA        -48.8620   17.5730  -24.8990 C.3       8 GLP5        0.0000 
     43 CA        -47.9203   18.6587  -20.8407 C.3       4 GLC5        0.0000 
     44 CA        -47.1740   20.7740  -21.3970 C.3      12 GLL5        0.0000 
     45 CA        -47.9040   16.5760  -20.3670 C.3       8 GLP5        0.0000 
     46 CA        -49.2685   23.5752  -22.0030 C.3       4 GLC5        0.0000 
     47 CA        -49.5120   21.2660  -22.4110 C.3      12 GLL5        0.0000 
     48 CA        -49.4350   25.5190  -21.0620 C.3       8 GLP5        0.0000 
     49 CA        -48.6135   19.1528  -27.5010 C.3       4 GLC5        0.0000 
     50 CA        -49.2690   17.2110  -27.4700 C.3       8 GLP5        0.0000 
@<TRIPOS>BOND
@<TRIPOS>SUBSTRUCTURE
     1 ALC1       16 GROUP        1 X    ALC  0     ROOT ALC X 1
     2 SEC2        1 GROUP        1 X    SEC  0     **** SEC X 2
     3 ASC3       26 GROUP        1 X    ASC  0     **** ASC X 3
     4 GLC5       11 GROUP        1 X    GLC  0     **** GLC X 6
     5 ALP1       18 GROUP        1 Y    ALP  0     ROOT ALP Y 8
     6 SEP2        3 GROUP        1 Y    SEP  0     **** SEP Y 9
     7 ASP3       28 GROUP        1 Y    ASP  0     **** ASP Y 10
     8 GLP5       13 GROUP        1 Y    GLP  0     **** GLP Y 13
     9 ALL1       17 GROUP        1 Z    ALL  0     ROOT ALL Z 15
    10 SEL2        2 GROUP        1 Z    SEL  0     **** SEL Z 16
    11 ASL3       27 GROUP        1 Z    ASL  0     **** ASL Z 17
    12 GLL5       12 GROUP        1 Z    GLL  0     **** GLL Z 20
@<TRIPOS>SET

