#    Name: 4mr7_2BV_1_ligand
#    Modification time : Tue Mar 25 12:21:22 2014

@<TRIPOS>MOLECULE
4mr7_2BV_1_ligand
   51    52     1     0     0
SMALL
NO_CHARGES


@<TRIPOS>ATOM
      1 O1        -45.4250   22.3190  -27.3230 O.co2     1 2BV501      0.0000 
      2 P         -46.0560   21.3550  -26.4070 P.3       1 2BV501      0.0000 
      3 O2        -44.9760   20.2270  -26.1260 O.co2     1 2BV501      0.0000 
      4 C12       -46.6000   22.1540  -24.8670 C.3       1 2BV501      0.0000 
      5 C13       -47.4580   21.2340  -23.9720 C.3       1 2BV501      0.0000 
      6 C18       -46.6520   20.5850  -22.8380 C.3       1 2BV501      0.0000 
      7 C17       -47.1740   20.7740  -21.3970 C.3       1 2BV501      0.0000 
      8 C16       -48.6990   20.7090  -21.2320 C.3       1 2BV501      0.0000 
      9 C15       -49.5120   21.2660  -22.4110 C.3       1 2BV501      0.0000 
     10 C14       -48.6920   21.9970  -23.4770 C.3       1 2BV501      0.0000 
     11 C11       -47.4720   20.5780  -27.2470 C.3       1 2BV501      0.0000 
     12 C10       -48.4440   21.6110  -27.8170 C.3       1 2BV501      0.0000 
     13 O3        -47.8270   22.4590  -28.8150 O.3       1 2BV501      0.0000 
     14 C9        -49.6080   20.8770  -28.4900 C.3       1 2BV501      0.0000 
     15 N         -50.5660   21.8130  -29.0850 N.4       1 2BV501      0.0000 
     16 C2        -51.0860   22.9950  -28.3860 C.3       1 2BV501      0.0000 
     17 C1        -52.0390   23.8450  -29.2280 C.3       1 2BV501      0.0000 
     18 C3        -51.6530   22.7220  -27.0420 C.ar      1 2BV501      0.0000 
     19 C8        -51.3210   23.6120  -26.0100 C.ar      1 2BV501      0.0000 
     20 C7        -51.7880   23.4310  -24.7120 C.ar      1 2BV501      0.0000 
     21 C6        -52.6480   22.3700  -24.4400 C.ar      1 2BV501      0.0000 
     22 CL1       -53.3450   22.0540  -22.8130 Cl        1 2BV501      0.0000 
     23 C5        -52.9970   21.4350  -25.5410 C.ar      1 2BV501      0.0000 
     24 CL2       -54.0510   20.0600  -25.1410 Cl        1 2BV501      0.0000 
     25 C4        -52.4970   21.6250  -26.8180 C.ar      1 2BV501      0.0000 
     26 H         -47.1356   23.0108  -25.2275 H         1 2BV501      0.0000 
     27 H         -45.6704   22.4374  -24.4124 H         1 2BV501      0.0000 
     28 H         -47.8291   20.4169  -24.6288 H         1 2BV501      0.0000 
     29 H         -45.6050   20.9669  -22.8826 H         1 2BV501      0.0000 
     30 H         -46.5727   19.4908  -23.0396 H         1 2BV501      0.0000 
     31 H         -46.8153   21.7506  -21.0194 H         1 2BV501      0.0000 
     32 H         -46.7119   20.0019  -20.7526 H         1 2BV501      0.0000 
     33 H         -48.9810   21.2609  -20.3151 H         1 2BV501      0.0000 
     34 H         -48.9937   19.6554  -21.0649 H         1 2BV501      0.0000 
     35 H         -50.2804   21.9563  -22.0154 H         1 2BV501      0.0000 
     36 H         -50.0574   20.4312  -22.8897 H         1 2BV501      0.0000 
     37 H         -49.3447   22.2159  -24.3413 H         1 2BV501      0.0000 
     38 H         -48.3676   22.9721  -23.0711 H         1 2BV501      0.0000 
     39 H         -47.8935   19.9754  -26.4695 H         1 2BV501      0.0000 
     40 H         -46.9921   19.9818  -27.9951 H         1 2BV501      0.0000 
     41 H         -48.8500   22.1916  -27.0092 H         1 2BV501      0.0000 
     42 H         -50.0976   20.2480  -27.7333 H         1 2BV501      0.0000 
     43 H         -49.1918   20.2074  -29.2557 H         1 2BV501      0.0000 
     44 H         -50.1849   23.6878  -28.2017 H         1 2BV501      0.0000 
     45 H         -50.7117   24.4240  -26.2249 H         1 2BV501      0.0000 
     46 H         -51.5033   24.0695  -23.9657 H         1 2BV501      0.0000 
     47 H         -52.7300   20.9925  -27.5763 H         1 2BV501      0.0000 
     48 H         -51.5957   24.1913  -30.0548 H         1 2BV501      0.0000 
     49 H         -52.8405   23.3240  -29.5214 H         1 2BV501      0.0000 
     50 H         -52.3749   24.6389  -28.7211 H         1 2BV501      0.0000 
     51 H         -47.4240   21.8276  -29.4776 H         1 2BV501      0.0000 
@<TRIPOS>BOND
     1    2    1 ar   
     2    3    2 ar   
     3    4    2 1    
     4   11    2 1    
     5    5    4 1    
     6   26    4 1    
     7   27    4 1    
     8    6    5 1    
     9   10    5 1    
    10   28    5 1    
    11    7    6 1    
    12   29    6 1    
    13   30    6 1    
    14    8    7 1    
    15   31    7 1    
    16   32    7 1    
    17    9    8 1    
    18   33    8 1    
    19   34    8 1    
    20   10    9 1    
    21   35    9 1    
    22   36    9 1    
    23   37   10 1    
    24   38   10 1    
    25   12   11 1    
    26   39   11 1    
    27   40   11 1    
    28   13   12 1    
    29   14   12 1    
    30   41   12 1    
    31   51   13 1    
    32   15   14 1    
    33   42   14 1    
    34   43   14 1    
    35   16   15 1    
    36   17   16 1    
    37   18   16 1    
    38   44   16 1    
    39   48   17 1    
    40   49   17 1    
    41   50   17 1    
    42   19   18 ar   
    43   25   18 ar   
    44   20   19 ar   
    45   45   19 1    
    46   21   20 ar   
    47   46   20 1    
    48   22   21 1    
    49   23   21 ar   
    50   24   23 1    
    51   25   23 ar   
    52   47   25 1    
@<TRIPOS>SUBSTRUCTURE
     1 2BV501      1 GROUP   
@<TRIPOS>SET

