#    Name: 2xkc_4VQ_1_INTS_M
#    Modification time : Tue Mar 25 06:14:25 2014

@<TRIPOS>MOLECULE
2xkc_4VQ_1_INTS_M
   57     0    12     0     0
SMALL
NO_CHARGES


@<TRIPOS>ATOM
      1 CA         20.0590   -6.1965   16.0525 C.3       4 GLC5        0.0000 
      2 CA         21.1770   -7.2750   14.5330 C.3      12 GLL5        0.0000 
      3 CA         18.9410   -5.1180   17.5720 C.3       8 GLP5        0.0000 
      4 CA         20.9515   -8.3830   15.9275 C.3       4 GLC5        0.0000 
      5 CA         20.7260   -9.4910   17.3220 C.3       8 GLP5        0.0000 
      6 CA         19.4160   -7.5200   14.5785 C.3       4 GLC5        0.0000 
      7 CA         17.6550   -7.7650   14.6240 C.3       8 GLP5        0.0000 
      8 NZ         23.6140   -7.8520   10.5615 N.4       3 LYC4        0.0000 
      9 NZ         23.5810   -9.0060   11.8910 N.4      11 LYL4        0.0000 
     10 NZ         23.6470   -6.6980    9.2320 N.4       7 LYP4        0.0000 
     11 NZ         23.0645   -6.8805   10.4910 N.4       3 LYC4        0.0000 
     12 NZ         22.4820   -7.0630   11.7500 N.4      11 LYL4        0.0000 
     13 N          23.0645   -6.8805   10.4910 N.am      2 SEC2        0.0000 
     14 N          22.4820   -7.0630   11.7500 N.am     10 SEL2        0.0000 
     15 N          23.6470   -6.6980    9.2320 N.am      6 SEP2        0.0000 
     16 CA         22.8745   -5.1545   19.8630 C.3       4 GLC5        0.0000 
     17 CA         24.6270   -5.7210   18.6060 C.3      12 GLL5        0.0000 
     18 CA         21.1220   -4.5880   21.1200 C.3       8 GLP5        0.0000 
     19 O          23.8810   -3.3600   18.3240 O.2       1 ALC1        0.0000 
     20 O          24.0060   -4.6720   17.8220 O.2       9 ALL1        0.0000 
     21 O          23.7560   -2.0480   18.8260 O.2       5 ALP1        0.0000 
     22 N          24.4975   -4.6490   20.9835 N.am      2 SEC2        0.0000 
     23 N          25.0010   -5.4840   19.8370 N.am     10 SEL2        0.0000 
     24 N          23.9940   -3.8140   22.1300 N.am      6 SEP2        0.0000 
     25 CA         26.7475   -4.8705   19.7610 C.3       4 GLC5        0.0000 
     26 CA         25.5680   -6.4710   20.5740 C.3      12 GLL5        0.0000 
     27 CA         27.9270   -3.2700   18.9480 C.3       8 GLP5        0.0000 
     28 CA         23.8700   -5.9580   21.4510 C.3       4 GLC5        0.0000 
     29 CA         22.1720   -5.4450   22.3280 C.3       8 GLP5        0.0000 
     30 CA         29.7330  -10.9805   21.0530 C.3       4 GLC5        0.0000 
     31 CA         29.5720  -12.3100   22.7280 C.3      12 GLL5        0.0000 
     32 CA         29.8940   -9.6510   19.3780 C.3       8 GLP5        0.0000 
     33 CA         25.8560  -10.0720   24.5075 C.3       4 GLC5        0.0000 
     34 CA         27.5360   -9.8340   25.1790 C.3      12 GLL5        0.0000 
     35 CA         24.1760  -10.3100   23.8360 C.3       8 GLP5        0.0000 
     36 CA         22.7913   -5.6952   14.6017 C.3       4 GLC5        0.0000 
     37 CA         22.6500   -7.4280   14.9040 C.3      12 GLL5        0.0000 
     38 CA         23.6690   -4.0390   14.4850 C.3       8 GLP5        0.0000 
     39 CA         26.7325   -7.4251   15.5700 C.3       4 GLC5        0.0000 
     40 CA         24.3770   -7.3310   16.5780 C.3      12 GLL5        0.0000 
     41 CA         28.6880   -7.2770   15.3990 C.3       8 GLP5        0.0000 
     42 CA         25.8325   -4.9260   17.4855 C.3       4 GLC5        0.0000 
     43 CA         24.8230   -7.0650   18.0140 C.3      12 GLL5        0.0000 
     44 CA         26.9400   -3.4590   16.6610 C.3       8 GLP5        0.0000 
     45 CA         27.6987   -6.8838   19.8580 C.3       4 GLC5        0.0000 
     46 CA         29.7370   -6.6460   19.4280 C.3       8 GLP5        0.0000 
     47 CA         28.2897   -9.1950   20.4017 C.3       4 GLC5        0.0000 
     48 CA         26.4030   -8.8830   20.8220 C.3      12 GLL5        0.0000 
     49 CA         25.4307   -9.5245   22.6307 C.3       4 GLC5        0.0000 
     50 CA         28.3260  -10.2058   20.0110 C.3       4 GLC5        0.0000 
     51 CA         26.4600  -10.2640   20.2820 C.3      12 GLL5        0.0000 
     52 CA         25.4670  -10.5352   22.2400 C.3       4 GLC5        0.0000 
     53 CA         28.7485   -9.9710   20.9495 C.3       4 GLC5        0.0000 
     54 CA         27.6250  -10.9610   22.2640 C.3      12 GLL5        0.0000 
     55 CA         25.8895  -10.3005   23.1785 C.3       4 GLC5        0.0000 
     56 CA         24.0458   -5.8557   14.7574 C.3       4 GLC5        0.0000 
     57 CA         25.3760   -7.7070   15.5480 C.3      12 GLL5        0.0000 
@<TRIPOS>BOND
@<TRIPOS>SUBSTRUCTURE
     1 ALC1       19 GROUP        1 X    ALC  0     ROOT ALC X 1
     2 SEC2       13 GROUP        1 X    SEC  0     **** SEC X 2
     3 LYC4        8 GROUP        1 X    LYC  0     **** LYC X 4
     4 GLC5        1 GROUP        1 X    GLC  0     **** GLC X 6
     5 ALP1       21 GROUP        1 Y    ALP  0     ROOT ALP Y 8
     6 SEP2       15 GROUP        1 Y    SEP  0     **** SEP Y 9
     7 LYP4       10 GROUP        1 Y    LYP  0     **** LYP Y 11
     8 GLP5        3 GROUP        1 Y    GLP  0     **** GLP Y 13
     9 ALL1       20 GROUP        1 Z    ALL  0     ROOT ALL Z 15
    10 SEL2       14 GROUP        1 Z    SEL  0     **** SEL Z 16
    11 LYL4        9 GROUP        1 Z    LYL  0     **** LYL Z 18
    12 GLL5        2 GROUP        1 Z    GLL  0     **** GLL Z 20
@<TRIPOS>SET

