#    Name: 2xkc_4VQ_1_ligand
#    Modification time : Tue Mar 25 06:14:25 2014

@<TRIPOS>MOLECULE
2xkc_4VQ_1_ligand
   49    51     1     0     0
SMALL
NO_CHARGES


@<TRIPOS>ATOM
      1 CAD        21.1770   -7.2750   14.5330 C.3       1 4VQ1280     0.0000 
      2 CAT        22.6500   -7.4280   14.9040 C.ar      1 4VQ1280     0.0000 
      3 CAK        23.0610   -7.2020   16.2360 C.ar      1 4VQ1280     0.0000 
      4 CBA        23.6170   -7.7920   13.9040 C.ar      1 4VQ1280     0.0000 
      5 CAS        23.1850   -8.0450   12.4600 C.2       1 4VQ1280     0.0000 
      6 OAG        23.5810   -9.0060   11.8910 O.co2     1 4VQ1280     0.0000 
      7 OAF        22.4820   -7.0630   11.7500 O.co2     1 4VQ1280     0.0000 
      8 CAI        24.9780   -7.9240   14.2600 C.ar      1 4VQ1280     0.0000 
      9 CAH        25.3760   -7.7070   15.5480 C.ar      1 4VQ1280     0.0000 
     10 CAV        24.3770   -7.3310   16.5780 C.ar      1 4VQ1280     0.0000 
     11 CBB        24.8230   -7.0650   18.0140 C.ar      1 4VQ1280     0.0000 
     12 NAO        25.3660   -8.0190   18.7260 N.ar      1 4VQ1280     0.0000 
     13 CAU        24.6270   -5.7210   18.6060 C.ar      1 4VQ1280     0.0000 
     14 NAE        24.0060   -4.6720   17.8220 N.pl3     1 4VQ1280     0.0000 
     15 NAN        25.0010   -5.4840   19.8370 N.ar      1 4VQ1280     0.0000 
     16 CAJ        25.5680   -6.4710   20.5740 C.ar      1 4VQ1280     0.0000 
     17 CAX        25.7530   -7.7720   20.0020 C.ar      1 4VQ1280     0.0000 
     18 CAW        26.4030   -8.8830   20.8220 C.ar      1 4VQ1280     0.0000 
     19 CAM        26.9680   -8.5950   22.0290 C.ar      1 4VQ1280     0.0000 
     20 CAL        26.4600  -10.2640   20.2820 C.ar      1 4VQ1280     0.0000 
     21 CAY        27.0560  -11.2570   21.0060 C.ar      1 4VQ1280     0.0000 
     22 OAP        27.0880  -12.5690   20.5150 O.3       1 4VQ1280     0.0000 
     23 CAA        26.6840  -12.8380   19.2010 C.3       1 4VQ1280     0.0000 
     24 CBC        27.6250  -10.9610   22.2640 C.ar      1 4VQ1280     0.0000 
     25 OAR        28.2400  -11.9790   22.9990 O.3       1 4VQ1280     0.0000 
     26 CAC        29.5720  -12.3100   22.7280 C.3       1 4VQ1280     0.0000 
     27 CAZ        27.5810   -9.6210   22.7780 C.ar      1 4VQ1280     0.0000 
     28 OAQ        28.1370   -9.3240   24.0240 O.3       1 4VQ1280     0.0000 
     29 CAB        27.5360   -9.8340   25.1790 C.3       1 4VQ1280     0.0000 
     30 H          22.3518   -6.9405   16.9352 H         1 4VQ1280     0.0000 
     31 H          25.6563   -8.1858   13.5296 H         1 4VQ1280     0.0000 
     32 H          26.3435   -7.7898   15.8532 H         1 4VQ1280     0.0000 
     33 H          23.7297   -4.9213   16.8938 H         1 4VQ1280     0.0000 
     34 H          23.9053   -3.7858   18.2741 H         1 4VQ1280     0.0000 
     35 H          25.8754   -6.3215   21.5419 H         1 4VQ1280     0.0000 
     36 H          26.9583   -7.6402   22.4102 H         1 4VQ1280     0.0000 
     37 H          26.0399  -10.4181   19.3671 H         1 4VQ1280     0.0000 
     38 H          20.8430   -6.3496   14.7123 H         1 4VQ1280     0.0000 
     39 H          21.0168   -7.4618   13.5637 H         1 4VQ1280     0.0000 
     40 H          20.5962   -7.9019   15.0522 H         1 4VQ1280     0.0000 
     41 H          27.2389  -12.3422   18.5330 H         1 4VQ1280     0.0000 
     42 H          26.7598  -13.8105   18.9809 H         1 4VQ1280     0.0000 
     43 H          25.7320  -12.5753   19.0440 H         1 4VQ1280     0.0000 
     44 H          30.1836  -11.5307   22.8649 H         1 4VQ1280     0.0000 
     45 H          29.8993  -13.0469   23.3195 H         1 4VQ1280     0.0000 
     46 H          29.6939  -12.6160   21.7838 H         1 4VQ1280     0.0000 
     47 H          27.5182  -10.8338   25.1779 H         1 4VQ1280     0.0000 
     48 H          28.0210   -9.5504   26.0062 H         1 4VQ1280     0.0000 
     49 H          26.5899   -9.5241   25.2732 H         1 4VQ1280     0.0000 
@<TRIPOS>BOND
     1    2    1 1    
     2   38    1 1    
     3   39    1 1    
     4   40    1 1    
     5    3    2 ar   
     6    4    2 ar   
     7   10    3 ar   
     8   30    3 1    
     9    5    4 1    
    10    8    4 ar   
    11    6    5 ar   
    12    7    5 ar   
    13    9    8 ar   
    14   31    8 1    
    15   10    9 ar   
    16   32    9 1    
    17   11   10 1    
    18   12   11 ar   
    19   13   11 ar   
    20   17   12 ar   
    21   14   13 1    
    22   15   13 ar   
    23   33   14 1    
    24   34   14 1    
    25   16   15 ar   
    26   17   16 ar   
    27   35   16 1    
    28   18   17 1    
    29   19   18 ar   
    30   20   18 ar   
    31   27   19 ar   
    32   36   19 1    
    33   21   20 ar   
    34   37   20 1    
    35   22   21 1    
    36   24   21 ar   
    37   23   22 1    
    38   41   23 1    
    39   42   23 1    
    40   43   23 1    
    41   25   24 1    
    42   27   24 ar   
    43   26   25 1    
    44   44   26 1    
    45   45   26 1    
    46   46   26 1    
    47   28   27 1    
    48   29   28 1    
    49   47   29 1    
    50   48   29 1    
    51   49   29 1    
@<TRIPOS>SUBSTRUCTURE
     1 4VQ1280     1 GROUP   
@<TRIPOS>SET

