#    Name: 2nxe_SAM_2_INTS_M
#    Modification time : Tue Mar 25 21:42:26 2014

@<TRIPOS>MOLECULE
2nxe_SAM_2_INTS_M
   79     0    12     0     0
SMALL
NO_CHARGES


@<TRIPOS>ATOM
      1 OD1        46.8710   -9.0000   -3.9985 O.co2     3 ASC3        0.0000 
      2 OD1        45.0370   -9.0920   -4.1550 O.co2    11 ASL3        0.0000 
      3 OD1        48.7050   -8.9080   -3.8420 O.co2     7 ASP3        0.0000 
      4 O          45.4575  -10.3625   -4.5970 O.2       1 ALC1        0.0000 
      5 O          45.0370   -9.0920   -4.1550 O.2       9 ALL1        0.0000 
      6 O          45.8780  -11.6330   -5.0390 O.2       5 ALP1        0.0000 
      7 O          45.7065   -8.1005   -4.9245 O.2       1 ALC1        0.0000 
      8 O          46.3760   -7.1090   -5.6940 O.2       5 ALP1        0.0000 
      9 CA         41.9760   -7.6330   -5.5030 C.3       4 GLC5        0.0000 
     10 CA         43.6550   -8.7990   -4.6180 C.3      12 GLL5        0.0000 
     11 CA         40.2970   -6.4670   -6.3880 C.3       8 GLP5        0.0000 
     12 CA         43.6355   -6.6245   -5.1265 C.3       4 GLC5        0.0000 
     13 CA         43.6160   -4.4500   -5.6350 C.3       8 GLP5        0.0000 
     14 N          42.6435   -8.4415   -1.4145 N.am      2 SEC2        0.0000 
     15 N          43.4450   -7.8060   -2.3920 N.am     10 SEL2        0.0000 
     16 N          41.8420   -9.0770   -0.4370 N.am      6 SEP2        0.0000 
     17 N          41.0325   -6.8450   -2.9510 N.am      2 SEC2        0.0000 
     18 N          41.8070   -7.5110   -3.7610 N.am     10 SEL2        0.0000 
     19 N          40.2580   -6.1790   -2.1410 N.am      6 SEP2        0.0000 
     20 CA         43.4175  -10.3885   -6.8300 C.3       4 GLC5        0.0000 
     21 CA         42.9530  -10.1420   -4.8920 C.3      12 GLL5        0.0000 
     22 CA         43.8820  -10.6350   -8.7680 C.3       8 GLP5        0.0000 
     23 CA         43.3320  -10.5530   -1.8525 C.3       4 GLC5        0.0000 
     24 CA         42.6460  -10.9360   -3.6080 C.3      12 GLL5        0.0000 
     25 CA         44.0180  -10.1700   -0.0970 C.3       8 GLP5        0.0000 
     26 CA         40.1570  -11.5185   -4.4555 C.3       4 GLC5        0.0000 
     27 CA         41.5560  -12.3830   -3.9770 C.3      12 GLL5        0.0000 
     28 CA         38.7580  -10.6540   -4.9340 C.3       8 GLP5        0.0000 
     29 CA         40.0255  -11.0455   -3.2600 C.3       4 GLC5        0.0000 
     30 CA         40.7090  -12.4780   -2.3620 C.3      12 GLL5        0.0000 
     31 CA         39.3420   -9.6130   -4.1580 C.3       8 GLP5        0.0000 
     32 CA         45.3560  -13.8575   -5.1665 C.3       4 GLC5        0.0000 
     33 CA         43.5150  -14.0520   -5.1780 C.3      12 GLL5        0.0000 
     34 CA         47.1970  -13.6630   -5.1550 C.3       8 GLP5        0.0000 
     35 O          44.1890  -13.7565   -7.9750 O.2       1 ALC1        0.0000 
     36 O          42.9460  -13.7000   -7.5600 O.2       9 ALL1        0.0000 
     37 O          45.4320  -13.8130   -8.3900 O.2       5 ALP1        0.0000 
     38 O          44.2105  -16.1800   -8.5540 O.2       1 ALC1        0.0000 
     39 O          43.1290  -16.5060   -7.9100 O.2       9 ALL1        0.0000 
     40 O          45.2920  -15.8540   -9.1980 O.2       5 ALP1        0.0000 
     41 CA         45.8365  -14.8510   -5.5400 C.3       4 GLC5        0.0000 
     42 CA         44.4760  -16.0390   -5.9250 C.3      12 GLL5        0.0000 
     43 CA         45.1520  -15.8880   -3.8870 C.3       4 GLC5        0.0000 
     44 CA         45.8280  -15.7370   -1.8490 C.3       8 GLP5        0.0000 
     45 CA         45.8410  -19.9380   -5.7715 C.3       4 GLC5        0.0000 
     46 CA         46.3010  -18.8230   -4.5050 C.3      12 GLL5        0.0000 
     47 CA         45.3810  -21.0530   -7.0380 C.3       8 GLP5        0.0000 
     48 CA         47.9530  -19.9615   -5.9935 C.3       4 GLC5        0.0000 
     49 CA         47.5440  -19.4070   -4.2760 C.3      12 GLL5        0.0000 
     50 CA         48.3620  -20.5160   -7.7110 C.3       8 GLP5        0.0000 
     51 CA         49.5265  -19.6960   -4.8760 C.3       4 GLC5        0.0000 
     52 CA         51.5090  -19.9850   -5.4760 C.3       8 GLP5        0.0000 
     53 O          49.3950  -20.1320   -3.8785 O.2       1 ALC1        0.0000 
     54 O          47.7500  -20.5690   -3.6360 O.2       9 ALL1        0.0000 
     55 O          51.0400  -19.6950   -4.1210 O.2       5 ALP1        0.0000 
     56 N          49.8445  -19.2305   -4.4460 N.am      2 SEC2        0.0000 
     57 N          48.6490  -18.7660   -4.7710 N.am     10 SEL2        0.0000 
     58 N          51.0400  -19.6950   -4.1210 N.am      6 SEP2        0.0000 
     59 CA         50.0290  -16.7950   -4.4725 C.3       4 GLC5        0.0000 
     60 CA         48.5260  -17.5990   -5.4850 C.3      12 GLL5        0.0000 
     61 CA         51.5320  -15.9910   -3.4600 C.3       8 GLP5        0.0000 
     62 CA         47.8615  -15.6310   -5.3200 C.3       4 GLC5        0.0000 
     63 CA         48.4330  -16.5070   -7.2885 C.3       4 GLC5        0.0000 
     64 CA         48.3400  -15.4150   -9.0920 C.3       8 GLP5        0.0000 
     65 CA         48.4440  -19.0575   -6.5980 C.3       4 GLC5        0.0000 
     66 CA         50.0175  -18.7920   -5.4805 C.3       4 GLC5        0.0000 
     67 N          47.4995  -17.3535   -7.3875 N.am      2 SEC2        0.0000 
     68 N          47.3370  -16.9760   -5.7260 N.am     10 SEL2        0.0000 
     69 N          47.6620  -17.7310   -9.0490 N.am      6 SEP2        0.0000 
     70 CA         46.7130  -15.6435   -5.1805 C.3       4 GLC5        0.0000 
     71 CA         46.2290  -17.6240   -5.2060 C.3      12 GLL5        0.0000 
     72 CA         46.0400  -18.7535   -6.5635 C.3       4 GLC5        0.0000 
     73 CA         45.8510  -19.8830   -7.9210 C.3       8 GLP5        0.0000 
     74 CA         41.1585   -9.9081   -4.1698 C.3       4 GLC5        0.0000 
     75 CA         44.4573  -14.8338   -3.1972 C.3       4 GLC5        0.0000 
     76 CA         42.6580  -13.8090   -3.9130 C.3      12 GLL5        0.0000 
     77 CA         46.0465  -16.9802   -3.3523 C.3       4 GLC5        0.0000 
     78 CA         46.4013  -19.3775   -2.5697 C.3       4 GLC5        0.0000 
     79 CA         45.8800  -19.6400   -0.7490 C.3       8 GLP5        0.0000 
@<TRIPOS>BOND
@<TRIPOS>SUBSTRUCTURE
     1 ALC1        4 GROUP        1 X    ALC  0     ROOT ALC X 1
     2 SEC2       14 GROUP        1 X    SEC  0     **** SEC X 2
     3 ASC3        1 GROUP        1 X    ASC  0     **** ASC X 3
     4 GLC5        9 GROUP        1 X    GLC  0     **** GLC X 6
     5 ALP1        6 GROUP        1 Y    ALP  0     ROOT ALP Y 8
     6 SEP2       16 GROUP        1 Y    SEP  0     **** SEP Y 9
     7 ASP3        3 GROUP        1 Y    ASP  0     **** ASP Y 10
     8 GLP5       11 GROUP        1 Y    GLP  0     **** GLP Y 13
     9 ALL1        5 GROUP        1 Z    ALL  0     ROOT ALL Z 15
    10 SEL2       15 GROUP        1 Z    SEL  0     **** SEL Z 16
    11 ASL3        2 GROUP        1 Z    ASL  0     **** ASL Z 17
    12 GLL5       10 GROUP        1 Z    GLL  0     **** GLL Z 20
@<TRIPOS>SET

