#    Name: 2nxe_SAM_2_ligand
#    Modification time : Tue Mar 25 21:42:26 2014

@<TRIPOS>MOLECULE
2nxe_SAM_2_ligand
   50    52     1     0     0
SMALL
NO_CHARGES


@<TRIPOS>ATOM
      1 N          45.0370   -9.0920   -4.1550 N.4       1 SAM303      0.0000 
      2 CA         43.6550   -8.7990   -4.6180 C.3       1 SAM303      0.0000 
      3 C          42.9240   -7.9940   -3.5200 C.2       1 SAM303      0.0000 
      4 O          43.4450   -7.8060   -2.3920 O.co2     1 SAM303      0.0000 
      5 OXT        41.8070   -7.5110   -3.7610 O.co2     1 SAM303      0.0000 
      6 CB         42.9530  -10.1420   -4.8920 C.3       1 SAM303      0.0000 
      7 CG         42.6460  -10.9360   -3.6080 C.3       1 SAM303      0.0000 
      8 SD         41.5560  -12.3830   -3.9770 S.3       1 SAM303      0.0000 
      9 CE         40.7090  -12.4780   -2.3620 C.3       1 SAM303      0.0000 
     10 C5'        42.6580  -13.8090   -3.9130 C.3       1 SAM303      0.0000 
     11 C4'        43.5150  -14.0520   -5.1780 C.3       1 SAM303      0.0000 
     12 O4'        44.4250  -15.0870   -4.8640 O.3       1 SAM303      0.0000 
     13 C3'        42.7290  -14.5440   -6.4080 C.3       1 SAM303      0.0000 
     14 O3'        42.9460  -13.7000   -7.5600 O.3       1 SAM303      0.0000 
     15 C2'        43.1200  -16.0150   -6.5750 C.3       1 SAM303      0.0000 
     16 O2'        43.1290  -16.5060   -7.9100 O.3       1 SAM303      0.0000 
     17 C1'        44.4760  -16.0390   -5.9250 C.3       1 SAM303      0.0000 
     18 N9         44.9300  -17.2870   -5.2980 N.pl3     1 SAM303      0.0000 
     19 C8         44.1870  -18.2390   -4.6150 C.2       1 SAM303      0.0000 
     20 N7         45.0140  -19.1760   -4.1140 N.2       1 SAM303      0.0000 
     21 C5         46.3010  -18.8230   -4.5050 C.ar      1 SAM303      0.0000 
     22 C6         47.5440  -19.4070   -4.2760 C.ar      1 SAM303      0.0000 
     23 N6         47.7500  -20.5690   -3.6360 N.pl3     1 SAM303      0.0000 
     24 N1         48.6490  -18.7660   -4.7710 N.ar      1 SAM303      0.0000 
     25 C2         48.5260  -17.5990   -5.4850 C.ar      1 SAM303      0.0000 
     26 N3         47.3370  -16.9760   -5.7260 N.ar      1 SAM303      0.0000 
     27 C4         46.2290  -17.6240   -5.2060 C.ar      1 SAM303      0.0000 
     28 H          43.6813   -8.2278   -5.5143 H         1 SAM303      0.0000 
     29 H          43.5912  -10.7508   -5.5422 H         1 SAM303      0.0000 
     30 H          42.0145   -9.9507   -5.4244 H         1 SAM303      0.0000 
     31 H          42.0636  -10.4011   -2.9014 H         1 SAM303      0.0000 
     32 H          43.4948  -11.4077   -3.1817 H         1 SAM303      0.0000 
     33 H          41.9774  -14.6275   -3.7067 H         1 SAM303      0.0000 
     34 H          43.2598  -13.6063   -3.0341 H         1 SAM303      0.0000 
     35 H          44.0311  -13.1532   -5.4298 H         1 SAM303      0.0000 
     36 H          41.6698  -14.5334   -6.1008 H         1 SAM303      0.0000 
     37 H          42.4557  -16.5814   -5.9175 H         1 SAM303      0.0000 
     38 H          45.2191  -15.6968   -6.6457 H         1 SAM303      0.0000 
     39 H          43.2262  -18.2129   -4.5259 H         1 SAM303      0.0000 
     40 H          48.7027  -20.8601   -3.5482 H         1 SAM303      0.0000 
     41 H          46.9324  -21.0396   -3.3043 H         1 SAM303      0.0000 
     42 H          49.4128  -17.1583   -5.8711 H         1 SAM303      0.0000 
     43 H          45.6792   -8.3748   -4.4255 H         1 SAM303      0.0000 
     44 H          45.0865   -9.1693   -3.1592 H         1 SAM303      0.0000 
     45 H          45.3810   -9.9514   -4.5332 H         1 SAM303      0.0000 
     46 H          41.3573  -12.4585   -1.6009 H         1 SAM303      0.0000 
     47 H          40.0772  -11.7145   -2.2285 H         1 SAM303      0.0000 
     48 H          40.1757  -13.3190   -2.2712 H         1 SAM303      0.0000 
     49 H          43.6818  -14.1442   -8.0712 H         1 SAM303      0.0000 
     50 H          44.0952  -16.6410   -8.1294 H         1 SAM303      0.0000 
@<TRIPOS>BOND
     1    2    1 1    
     2   43    1 1    
     3   44    1 1    
     4   45    1 1    
     5    3    2 1    
     6    6    2 1    
     7   28    2 1    
     8    4    3 ar   
     9    5    3 ar   
    10    7    6 1    
    11   29    6 1    
    12   30    6 1    
    13    8    7 1    
    14   31    7 1    
    15   32    7 1    
    16    9    8 1    
    17   10    8 1    
    18   46    9 1    
    19   47    9 1    
    20   48    9 1    
    21   11   10 1    
    22   33   10 1    
    23   34   10 1    
    24   12   11 1    
    25   13   11 1    
    26   35   11 1    
    27   17   12 1    
    28   14   13 1    
    29   15   13 1    
    30   36   13 1    
    31   49   14 1    
    32   16   15 1    
    33   17   15 1    
    34   37   15 1    
    35   50   16 1    
    36   18   17 1    
    37   38   17 1    
    38   19   18 1    
    39   27   18 1    
    40   20   19 2    
    41   39   19 1    
    42   21   20 1    
    43   22   21 ar   
    44   27   21 ar   
    45   23   22 1    
    46   24   22 ar   
    47   40   23 1    
    48   41   23 1    
    49   25   24 ar   
    50   26   25 ar   
    51   42   25 1    
    52   27   26 ar   
@<TRIPOS>SUBSTRUCTURE
     1 SAM303      1 GROUP   
@<TRIPOS>SET

