#    Name: 3lj3_WYE_1_INTS_M
#    Modification time : Mon Mar 24 21:44:04 2014

@<TRIPOS>MOLECULE
3lj3_WYE_1_INTS_M
   73     0     6     0     0
SMALL
NO_CHARGES


@<TRIPOS>ATOM
      1 O          37.2325    9.7665   31.0865 O.2       1 ALC1        0.0000 
      2 O          38.3810   10.0870   30.4130 O.2       5 ALL1        0.0000 
      3 O          36.0840    9.4460   31.7600 O.2       3 ALP1        0.0000 
      4 CA         50.3745   12.2790   30.4145 C.3       2 GLC5        0.0000 
      5 CA         49.1730   13.7700   29.6240 C.3       6 GLL5        0.0000 
      6 CA         51.5760   10.7880   31.2050 C.3       4 GLP5        0.0000 
      7 CA         49.9650   14.4260   27.7400 C.3       2 GLC5        0.0000 
      8 CA         50.7570   15.0820   25.8560 C.3       4 GLP5        0.0000 
      9 CA         44.4140   10.2765   30.6675 C.3       2 GLC5        0.0000 
     10 CA         45.1330   11.9670   30.1040 C.3       6 GLL5        0.0000 
     11 CA         43.6950    8.5860   31.2310 C.3       4 GLP5        0.0000 
     12 CA         44.0160   13.0425   28.6105 C.3       2 GLC5        0.0000 
     13 CA         42.8990   14.1180   27.1170 C.3       4 GLP5        0.0000 
     14 CA         37.7445    9.3975   30.5225 C.3       2 GLC5        0.0000 
     15 CA         39.2400   10.8850   31.1060 C.3       6 GLL5        0.0000 
     16 CA         36.2490    7.9100   29.9390 C.3       4 GLP5        0.0000 
     17 CA         39.6610   12.0470   35.0290 C.3       2 GLC5        0.0000 
     18 CA         39.6880   12.3900   32.9940 C.3       6 GLL5        0.0000 
     19 CA         39.6340   11.7040   37.0640 C.3       4 GLP5        0.0000 
     20 CA         48.4690   10.9835   30.0410 C.3       2 GLC5        0.0000 
     21 CA         47.1960   12.7000   29.6640 C.3       6 GLL5        0.0000 
     22 CA         49.7420    9.2670   30.4180 C.3       4 GLP5        0.0000 
     23 CA         42.4360   11.1345   32.7990 C.3       2 GLC5        0.0000 
     24 CA         43.1820   12.9300   31.9990 C.3       6 GLL5        0.0000 
     25 CA         41.6900    9.3390   33.5990 C.3       4 GLP5        0.0000 
     26 CA         45.7025   16.0200   34.1470 C.3       2 GLC5        0.0000 
     27 CA         45.9760   16.1220   32.1590 C.3       6 GLL5        0.0000 
     28 CA         45.4290   15.9180   36.1350 C.3       4 GLP5        0.0000 
     29 CA         46.1480   15.9795   30.0190 C.3       2 GLC5        0.0000 
     30 CA         46.3200   15.8370   27.8790 C.3       4 GLP5        0.0000 
     31 CA         44.2725   16.0880   30.8435 C.3       2 GLC5        0.0000 
     32 CA         42.5690   16.0540   29.5280 C.3       4 GLP5        0.0000 
     33 CA         47.4450   15.2230   34.9155 C.3       2 GLC5        0.0000 
     34 CA         48.1460   15.6930   33.3370 C.3       6 GLL5        0.0000 
     35 CA         46.7440   14.7530   36.4940 C.3       4 GLP5        0.0000 
     36 CA         47.4115   13.6495   33.5985 C.3       2 GLC5        0.0000 
     37 CA         46.6770   11.6060   33.8600 C.3       4 GLP5        0.0000 
     38 CA         46.9490   16.5475   34.6805 C.3       2 GLC5        0.0000 
     39 CA         48.4690   17.1770   33.2260 C.3       6 GLL5        0.0000 
     40 CA         45.1345    9.7190   27.3600 C.3       2 GLC5        0.0000 
     41 CA         46.3230   10.8270   28.2430 C.3       6 GLL5        0.0000 
     42 CA         43.9460    8.6110   26.4770 C.3       4 GLP5        0.0000 
     43 CA         48.0325   10.0470   29.3305 C.3       2 GLC5        0.0000 
     44 CA         47.4170   10.4805   26.9935 C.3       2 GLC5        0.0000 
     45 CA         48.5110   10.1340   25.7440 C.3       4 GLP5        0.0000 
     46 CA         46.1485   11.9630   26.5225 C.3       2 GLC5        0.0000 
     47 CA         45.9740   13.0990   24.8020 C.3       4 GLP5        0.0000 
     48 CA         48.5003   15.3027   29.0515 C.3       2 GLC5        0.0000 
     49 CA         48.0080   16.4220   27.9510 C.3       4 GLP5        0.0000 
     50 CA         41.3290   10.3818   32.2975 C.3       2 GLC5        0.0000 
     51 CA         41.3900   11.8310   31.3550 C.3       6 GLL5        0.0000 
     52 CA         41.3005   12.8588   29.4660 C.3       2 GLC5        0.0000 
     53 CA         41.6330   14.2930   27.9360 C.3       4 GLP5        0.0000 
     54 CA         39.4745   12.5243   30.5125 C.3       2 GLC5        0.0000 
     55 CA         37.9810   13.6240   30.0290 C.3       4 GLP5        0.0000 
     56 CA         38.4825    9.6487   32.9795 C.3       2 GLC5        0.0000 
     57 CA         37.9380    8.0730   34.2690 C.3       4 GLP5        0.0000 
     58 CA         40.3585   10.2817   32.6445 C.3       2 GLC5        0.0000 
     59 CA         38.8140   11.5640   32.2740 C.3       6 GLL5        0.0000 
     60 CA         38.5040   12.4243   30.8595 C.3       2 GLC5        0.0000 
     61 CA         45.9690   12.0407   32.2052 C.3       2 GLC5        0.0000 
     62 CA         41.0113   10.8930   33.1745 C.3       2 GLC5        0.0000 
     63 CA         40.9770   12.5040   32.5060 C.3       6 GLL5        0.0000 
     64 CA         39.3342   13.6260   31.8445 C.3       2 GLC5        0.0000 
     65 CA         38.3360   14.8050   30.9390 C.3       4 GLP5        0.0000 
     66 CA         46.9190   12.4664   32.0944 C.3       2 GLC5        0.0000 
     67 CA         46.7030   13.4580   30.7290 C.3       6 GLL5        0.0000 
     68 CA         46.6584   14.5523   29.1206 C.3       2 GLC5        0.0000 
     69 CA         45.2475   12.3805   32.9260 C.3       2 GLC5        0.0000 
     70 CA         44.4540   13.3800   31.9850 C.3       6 GLL5        0.0000 
     71 CA         43.3104   14.5550   30.6365 C.3       2 GLC5        0.0000 
     72 CA         49.7218   15.8360   33.7848 C.3       2 GLC5        0.0000 
     73 CA         51.1360   15.2370   34.2880 C.3       4 GLP5        0.0000 
@<TRIPOS>BOND
@<TRIPOS>SUBSTRUCTURE
     1 ALC1        1 GROUP        1 X    ALC  0     ROOT ALC X 1
     2 GLC5        4 GROUP        1 X    GLC  0     **** GLC X 6
     3 ALP1        3 GROUP        1 Y    ALP  0     ROOT ALP Y 8
     4 GLP5        6 GROUP        1 Y    GLP  0     **** GLP Y 13
     5 ALL1        2 GROUP        1 Z    ALL  0     ROOT ALL Z 15
     6 GLL5        5 GROUP        1 Z    GLL  0     **** GLL Z 20
@<TRIPOS>SET

