#    Name: 3lj3_WYE_1_ligand
#    Modification time : Mon Mar 24 21:44:04 2014

@<TRIPOS>MOLECULE
3lj3_WYE_1_ligand
   54    58     1     0     0
SMALL
NO_CHARGES


@<TRIPOS>ATOM
      1 C1         48.8120   14.5970   30.6800 C.ar      1 WYE1109     0.0000 
      2 N1         48.4030   12.8030   29.0760 N.pl3     1 WYE1109     0.0000 
      3 O1         42.1990   13.9790   33.9640 O.2       1 WYE1109     0.0000 
      4 C2         40.5460   11.0180   30.6370 C.ar      1 WYE1109     0.0000 
      5 N2         46.2290   11.8000   29.3050 N.pl3     1 WYE1109     0.0000 
      6 O2         42.6960   12.0660   31.0330 O.3       1 WYE1109     0.0000 
      7 C3         38.8140   11.5640   32.2740 C.ar      1 WYE1109     0.0000 
      8 N3         47.1710   15.2780   32.3250 N.3       1 WYE1109     0.0000 
      9 O3         38.3810   10.0870   30.4130 O.3       1 WYE1109     0.0000 
     10 C4         49.1730   13.7700   29.6240 C.ar      1 WYE1109     0.0000 
     11 N4         47.1890   17.9710   33.2370 N.4       1 WYE1109     0.0000 
     12 O4         39.2670   13.0350   34.1080 O.3       1 WYE1109     0.0000 
     13 C5         45.1330   11.9670   30.1040 C.2       1 WYE1109     0.0000 
     14 C6         46.7030   13.4580   30.7290 C.ar      1 WYE1109     0.0000 
     15 C7         40.9770   12.5040   32.5060 C.ar      1 WYE1109     0.0000 
     16 C8         45.3890   12.9840   30.9970 C.2       1 WYE1109     0.0000 
     17 C9         47.5490   14.4490   31.2580 C.ar      1 WYE1109     0.0000 
     18 C10        41.3900   11.8310   31.3550 C.ar      1 WYE1109     0.0000 
     19 C11        39.2400   10.8850   31.1060 C.ar      1 WYE1109     0.0000 
     20 C12        39.6880   12.3900   32.9940 C.ar      1 WYE1109     0.0000 
     21 C13        47.1960   12.7000   29.6640 C.ar      1 WYE1109     0.0000 
     22 C14        42.1280   13.2650   32.9900 C.2       1 WYE1109     0.0000 
     23 C15        43.1820   12.9300   31.9990 C.2       1 WYE1109     0.0000 
     24 C16        44.4540   13.3800   31.9850 C.2       1 WYE1109     0.0000 
     25 C17        45.9760   16.1220   32.1590 C.3       1 WYE1109     0.0000 
     26 C18        48.1460   15.6930   33.3370 C.3       1 WYE1109     0.0000 
     27 C19        46.3340   17.5960   32.0550 C.3       1 WYE1109     0.0000 
     28 C20        48.4690   17.1770   33.2260 C.3       1 WYE1109     0.0000 
     29 C21        46.3230   10.8270   28.2430 C.3       1 WYE1109     0.0000 
     30 C22        47.4490   19.4510   33.2890 C.3       1 WYE1109     0.0000 
     31 H          49.4587   15.3048   31.0317 H         1 WYE1109     0.0000 
     32 H          48.6993   12.2303   28.3192 H         1 WYE1109     0.0000 
     33 H          40.8500   10.5335   29.8039 H         1 WYE1109     0.0000 
     34 H          37.8418   11.4442   32.5952 H         1 WYE1109     0.0000 
     35 H          50.1565   13.9239   29.2153 H         1 WYE1109     0.0000 
     36 H          46.6330   17.6908   34.1497 H         1 WYE1109     0.0000 
     37 H          44.3187   11.4635   30.0560 H         1 WYE1109     0.0000 
     38 H          44.7903   14.0478   32.7196 H         1 WYE1109     0.0000 
     39 H          45.2925   15.9893   33.0109 H         1 WYE1109     0.0000 
     40 H          45.4263   15.8326   31.2509 H         1 WYE1109     0.0000 
     41 H          49.0821   15.1269   33.2274 H         1 WYE1109     0.0000 
     42 H          47.7607   15.4983   34.3481 H         1 WYE1109     0.0000 
     43 H          46.8809   17.7675   31.1358 H         1 WYE1109     0.0000 
     44 H          45.4255   18.1859   32.0559 H         1 WYE1109     0.0000 
     45 H          49.0918   17.4702   34.0659 H         1 WYE1109     0.0000 
     46 H          49.0062   17.3567   32.2996 H         1 WYE1109     0.0000 
     47 H          47.2073   10.8690   27.7780 H         1 WYE1109     0.0000 
     48 H          46.2153    9.8932   28.5842 H         1 WYE1109     0.0000 
     49 H          45.6189   10.9677   27.5470 H         1 WYE1109     0.0000 
     50 H          48.0144   19.7014   34.0749 H         1 WYE1109     0.0000 
     51 H          47.9251   19.7734   32.4708 H         1 WYE1109     0.0000 
     52 H          46.6002   19.9749   33.3598 H         1 WYE1109     0.0000 
     53 H          37.6045    9.9478   31.0275 H         1 WYE1109     0.0000 
     54 H          40.0554   13.5708   34.4102 H         1 WYE1109     0.0000 
@<TRIPOS>BOND
     1   10    1 ar   
     2   17    1 ar   
     3   31    1 1    
     4   10    2 ar   
     5   21    2 ar   
     6   32    2 1    
     7   22    3 2    
     8   18    4 ar   
     9   19    4 ar   
    10   33    4 1    
    11   13    5 1    
    12   21    5 1    
    13   29    5 1    
    14   18    6 1    
    15   23    6 1    
    16   19    7 ar   
    17   20    7 ar   
    18   34    7 1    
    19   17    8 1    
    20   25    8 1    
    21   26    8 1    
    22   19    9 1    
    23   53    9 1    
    24   35   10 1    
    25   27   11 1    
    26   28   11 1    
    27   30   11 1    
    28   36   11 1    
    29   20   12 1    
    30   54   12 1    
    31   16   13 2    
    32   37   13 1    
    33   16   14 1    
    34   17   14 ar   
    35   21   14 ar   
    36   18   15 ar   
    37   20   15 ar   
    38   22   15 1    
    39   24   16 1    
    40   23   22 1    
    41   24   23 2    
    42   38   24 1    
    43   27   25 1    
    44   39   25 1    
    45   40   25 1    
    46   28   26 1    
    47   41   26 1    
    48   42   26 1    
    49   43   27 1    
    50   44   27 1    
    51   45   28 1    
    52   46   28 1    
    53   47   29 1    
    54   48   29 1    
    55   49   29 1    
    56   50   30 1    
    57   51   30 1    
    58   52   30 1    
@<TRIPOS>SUBSTRUCTURE
     1 WYE1109     1 GROUP   
@<TRIPOS>SET

