#    Name: 3UA3_1_CAVITY_N1_ALL.mol2
#    Modification time : Tue Mar 11 06:54:50 2014

@<TRIPOS>MOLECULE
3UA3_1_CAVITY_N1_ALL.mol2
   76     0     6     0     0
SMALL
NO_CHARGES


@<TRIPOS>ATOM
      1 OG         21.8903   26.4350   30.7891 O.2       1 SER1        0.0000 
      2 OG         21.3107   25.8316   29.5441 O.2       1 SER1        0.0000 
      3 CA         21.6179   24.4594   30.0662 C.3       5 GLY6        0.0000 
      4 CZ         20.7311   25.2282   28.2992 C.ar      4 PHE5        0.0000 
      5 CA         21.3455   22.4837   29.3433 C.3       5 GLY6        0.0000 
      6 CA         20.4586   23.2525   27.5763 C.3       5 GLY6        0.0000 
      7 CZ         20.7658   21.8803   28.0983 C.ar      4 PHE5        0.0000 
      8 CZ         19.5718   24.0214   25.8092 C.ar      4 PHE5        0.0000 
      9 O          18.3778   26.1625   23.5201 O.2       2 ALA2        0.0000 
     10 CZ         18.6850   24.7902   24.0422 C.ar      4 PHE5        0.0000 
     11 CA         19.3100   26.1099   35.7626 C.3       5 GLY6        0.0000 
     12 CA         18.4231   26.8787   33.9956 C.3       5 GLY6        0.0000 
     13 CA         18.7303   25.5065   34.5176 C.3       5 GLY6        0.0000 
     14 CA         19.0375   24.1342   35.0397 C.3       5 GLY6        0.0000 
     15 N          18.0332   25.1217   29.6068 N.2       2 ALA2        0.0000 
     16 N          18.3404   23.7495   30.1289 N.2       2 ALA2        0.0000 
     17 N          18.6476   22.3772   30.6510 N.2       2 ALA2        0.0000 
     18 N          17.1463   25.8906   27.8398 N.2       2 ALA2        0.0000 
     19 N          17.4535   24.5183   28.3619 N.2       2 ALA2        0.0000 
     20 N          17.7607   23.1461   28.8840 N.2       2 ALA2        0.0000 
     21 N          18.3751   20.4016   29.9281 N.2       2 ALA2        0.0000 
     22 N          16.5667   25.2872   26.5949 N.2       2 ALA2        0.0000 
     23 DU         16.8739   23.9149   27.1169 H         6 CUB7        0.0000 
     24 N          17.1811   22.5427   27.6390 N.2       2 ALA2        0.0000 
     25 N          17.4883   21.1704   28.1611 N.2       2 ALA2        0.0000 
     26 N          15.6799   26.0560   24.8278 N.2       2 ALA2        0.0000 
     27 N          15.9871   24.6838   25.3499 N.2       2 ALA2        0.0000 
     28 NZ         16.2943   23.3115   25.8720 N.2       3 LYS4        0.0000 
     29 OG         15.4074   24.0804   24.1049 O.2       1 SER1        0.0000 
     30 CA         21.1210   26.9852   32.6879 C.3       5 GLY6        0.0000 
     31 N          21.4282   25.6129   33.2100 N.2       2 ALA2        0.0000 
     32 NZ         20.5414   26.3818   31.4429 N.2       3 LYS4        0.0000 
     33 CA         20.8486   25.0095   31.9650 C.3       5 GLY6        0.0000 
     34 NZ         19.6546   27.1506   29.6759 N.2       3 LYS4        0.0000 
     35 DU         19.9618   25.7784   30.1980 H         6 CUB7        0.0000 
     36 CA         20.2690   24.4061   30.7200 C.3       5 GLY6        0.0000 
     37 O          19.0749   26.5472   28.4309 O.2       2 ALA2        0.0000 
     38 CZ         19.3821   25.1750   28.9530 C.ar      4 PHE5        0.0000 
     39 CA         19.6893   23.8027   29.4751 C.3       5 GLY6        0.0000 
     40 CA         19.9965   22.4305   29.9971 C.3       5 GLY6        0.0000 
     41 CA         18.4953   25.9438   27.1860 C.3       5 GLY6        0.0000 
     42 CZ         18.8025   24.5716   27.7080 C.ar      4 PHE5        0.0000 
     43 CZ         19.1097   23.1993   28.2301 C.ar      4 PHE5        0.0000 
     44 CZ         19.4169   21.8271   28.7522 C.ar      4 PHE5        0.0000 
     45 NZ         19.7241   20.4548   29.2743 N.2       3 LYS4        0.0000 
     46 CA         17.9157   25.3404   25.9410 C.3       5 GLY6        0.0000 
     47 CZ         18.2228   23.9682   26.4631 C.ar      4 PHE5        0.0000 
     48 CZ         18.5300   22.5959   26.9852 C.ar      4 PHE5        0.0000 
     49 CZ         18.8372   21.2237   27.5072 C.ar      4 PHE5        0.0000 
     50 CZ         19.1444   19.8514   28.0293 C.ar      4 PHE5        0.0000 
     51 N          19.4516   18.4792   28.5514 N.2       2 ALA2        0.0000 
     52 CA         17.0288   26.1093   24.1740 C.3       5 GLY6        0.0000 
     53 DU         17.3360   24.7370   24.6960 H         6 CUB7        0.0000 
     54 CZ         17.6432   23.3648   25.2181 C.ar      4 PHE5        0.0000 
     55 CZ         18.5648   19.2480   26.7843 C.ar      4 PHE5        0.0000 
     56 OG         16.7564   24.1336   23.4511 O.2       1 SER1        0.0000 
     57 OG         17.0636   22.7614   23.9732 O.2       1 SER1        0.0000 
     58 CA         17.8435   26.2753   32.7506 C.3       5 GLY6        0.0000 
     59 CA         17.2639   25.6719   31.5057 C.3       5 GLY6        0.0000 
     60 CA         16.9914   23.6963   30.7828 C.3       5 GLY6        0.0000 
     61 N          16.1046   24.4651   29.0157 N.2       2 ALA2        0.0000 
     62 N          15.2178   25.2340   27.2487 N.2       2 ALA2        0.0000 
     63 N          15.5250   23.8617   27.7708 N.2       2 ALA2        0.0000 
     64 CA         14.6381   24.6306   26.0037 C.3       5 GLY6        0.0000 
     65 CA         14.9453   23.2583   26.5258 C.3       5 GLY6        0.0000 
     66 CA         20.6589   26.1631   35.1088 C.3       5 GLY6        0.0000 
     67 NZ         19.7721   26.9320   33.3417 N.2       3 LYS4        0.0000 
     68 DU         20.0793   25.5597   33.8638 H         6 CUB7        0.0000 
     69 O          20.3865   24.1875   34.3859 O.2       2 ALA2        0.0000 
     70 CA         19.1924   26.3286   32.0968 C.3       5 GLY6        0.0000 
     71 CA         19.4996   24.9563   32.6188 C.3       5 GLY6        0.0000 
     72 CA         19.8068   23.5841   33.1409 C.3       5 GLY6        0.0000 
     73 CA         18.3056   27.0974   30.3297 C.3       5 GLY6        0.0000 
     74 CA         18.6128   25.7252   30.8518 C.3       5 GLY6        0.0000 
     75 CA         18.9200   24.3529   31.3739 C.3       5 GLY6        0.0000 
     76 CA         19.2272   22.9807   31.8960 C.3       5 GLY6        0.0000 
@<TRIPOS>BOND
@<TRIPOS>SUBSTRUCTURE
     1 SER1        1 GROUP   
     2 ALA2        9 GROUP   
     3 LYS4       28 GROUP   
     4 PHE5        4 GROUP   
     5 GLY6        3 GROUP   
     6 CUB7       23 GROUP   
@<TRIPOS>SET

