#    Name: 3ua3_SAH_1_INTS_M
#    Modification time : Mon Mar 24 22:04:31 2014

@<TRIPOS>MOLECULE
3ua3_SAH_1_INTS_M
   68     0     9     0     0
SMALL
NO_CHARGES


@<TRIPOS>ATOM
      1 O          15.2470   25.8080   28.1925 O.2       1 ALC1        0.0000 
      2 O          15.0200   24.7240   26.9730 O.2       7 ALL1        0.0000 
      3 O          15.4740   26.8920   29.4120 O.2       4 ALP1        0.0000 
      4 CA         13.9910   24.4000   26.1615 C.3       3 GLC5        0.0000 
      5 CA         16.0730   24.7420   25.9660 C.3       9 GLL5        0.0000 
      6 CA         11.9090   24.0580   26.3570 C.3       6 GLP5        0.0000 
      7 CA         19.4970   25.2675   26.2885 C.3       3 GLC5        0.0000 
      8 CA         17.4180   24.6220   26.6650 C.3       9 GLL5        0.0000 
      9 CA         21.5760   25.9130   25.9120 C.3       6 GLP5        0.0000 
     10 CA         18.7235   23.1800   25.5435 C.3       3 GLC5        0.0000 
     11 CA         20.0290   21.7380   24.4220 C.3       6 GLP5        0.0000 
     12 CA         21.1235   23.0920   27.9505 C.3       3 GLC5        0.0000 
     13 CA         19.0890   22.9530   28.1300 C.3       9 GLL5        0.0000 
     14 CA         23.1580   23.2310   27.7710 C.3       6 GLP5        0.0000 
     15 CA         20.3325   24.4330   27.0210 C.3       3 GLC5        0.0000 
     16 CA         20.7020   23.2490   30.8165 C.3       3 GLC5        0.0000 
     17 CA         18.8820   23.5860   29.8130 C.3       9 GLL5        0.0000 
     18 CA         22.5220   22.9120   31.8200 C.3       6 GLP5        0.0000 
     19 CA         17.6240   23.5500   31.5405 C.3       3 GLC5        0.0000 
     20 CA         16.3660   23.5140   33.2680 C.3       6 GLP5        0.0000 
     21 CA         17.5365   26.6020   30.6210 C.3       3 GLC5        0.0000 
     22 CA         18.9460   25.1090   29.8580 C.3       9 GLL5        0.0000 
     23 CA         16.1270   28.0950   31.3840 C.3       6 GLP5        0.0000 
     24 CA         21.7560   24.4335   28.6945 C.3       3 GLC5        0.0000 
     25 CA         20.3540   25.6360   29.6180 C.3       9 GLL5        0.0000 
     26 CA         20.9650   25.7745   27.7650 C.3       3 GLC5        0.0000 
     27 N          21.3620   27.0310   28.0285 N.am      2 SEC2        0.0000 
     28 N          20.3410   26.5590   28.5520 N.am      8 SEL2        0.0000 
     29 N          22.3830   27.5030   27.5050 N.am      5 SEP2        0.0000 
     30 O          19.8710   28.1470   28.8505 O.2       1 ALC1        0.0000 
     31 O          20.3410   26.5590   28.5520 O.2       7 ALL1        0.0000 
     32 O          19.4010   29.7350   29.1490 O.2       4 ALP1        0.0000 
     33 O          20.6235   28.7150   30.9470 O.2       1 ALC1        0.0000 
     34 O          21.3280   27.5940   30.6130 O.2       7 ALL1        0.0000 
     35 O          19.9190   29.8360   31.2810 O.2       4 ALP1        0.0000 
     36 CA         17.7755   27.3125   31.5080 C.3       3 GLC5        0.0000 
     37 CA         19.4240   26.5300   31.6320 C.3       9 GLL5        0.0000 
     38 O          19.3985   27.9335   38.4120 O.2       1 ALC1        0.0000 
     39 O          19.4220   26.8410   37.6290 O.2       7 ALL1        0.0000 
     40 O          19.3750   29.0260   39.1950 O.2       4 ALP1        0.0000 
     41 N          17.9965   29.7555   37.3630 N.am      2 SEC2        0.0000 
     42 N          18.7570   28.6810   36.3340 N.am      8 SEL2        0.0000 
     43 N          17.2360   30.8300   38.3920 N.am      5 SEP2        0.0000 
     44 CA         18.3115   30.7635   33.6835 C.3       3 GLC5        0.0000 
     45 CA         18.5440   29.2490   35.0940 C.3       9 GLL5        0.0000 
     46 CA         18.0790   32.2780   32.2730 C.3       6 GLP5        0.0000 
     47 CA         20.3465   29.5165   34.6410 C.3       3 GLC5        0.0000 
     48 CA         22.1490   29.7840   34.1880 C.3       6 GLP5        0.0000 
     49 CA         19.0295   30.4465   36.7370 C.3       3 GLC5        0.0000 
     50 CA         19.5150   31.6440   38.3800 C.3       6 GLP5        0.0000 
     51 CA         17.1045   28.5420   35.2580 C.3       3 GLC5        0.0000 
     52 CA         15.6650   27.8350   35.4220 C.3       6 GLP5        0.0000 
     53 CA         17.6740   27.6685   32.7120 C.3       3 GLC5        0.0000 
     54 CA         19.2210   27.2420   34.0400 C.3       9 GLL5        0.0000 
     55 CA         17.6172   26.5770   26.2048 C.3       3 GLC5        0.0000 
     56 CA         18.4890   28.4720   26.0940 C.3       6 GLP5        0.0000 
     57 CA         19.4487   22.2705   26.7508 C.3       3 GLC5        0.0000 
     58 CA         17.4220   23.5270   27.7250 C.3       9 GLL5        0.0000 
     59 CA         20.6420   21.3010   25.5740 C.3       6 GLP5        0.0000 
     60 CA         21.5347   24.4518   31.0393 C.3       3 GLC5        0.0000 
     61 CA         20.8553   26.4363   36.9790 C.3       3 GLC5        0.0000 
     62 CA         19.4460   26.6500   35.2750 C.3       9 GLL5        0.0000 
     63 CA         22.3820   25.8560   38.1040 C.3       6 GLP5        0.0000 
     64 CA         18.9692   25.4492   37.0925 C.3       3 GLC5        0.0000 
     65 CA         19.2110   27.3830   36.4330 C.3       9 GLL5        0.0000 
     66 CA         18.6100   23.8820   38.3310 C.3       6 GLP5        0.0000 
     67 CA         20.7119   28.4566   34.5675 C.3       3 GLC5        0.0000 
     68 CA         17.4699   27.4821   35.1845 C.3       3 GLC5        0.0000 
@<TRIPOS>BOND
@<TRIPOS>SUBSTRUCTURE
     1 ALC1        1 GROUP        1 X    ALC  0     ROOT ALC X 1
     2 SEC2       27 GROUP        1 X    SEC  0     **** SEC X 2
     3 GLC5        4 GROUP        1 X    GLC  0     **** GLC X 6
     4 ALP1        3 GROUP        1 Y    ALP  0     ROOT ALP Y 8
     5 SEP2       29 GROUP        1 Y    SEP  0     **** SEP Y 9
     6 GLP5        6 GROUP        1 Y    GLP  0     **** GLP Y 13
     7 ALL1        2 GROUP        1 Z    ALL  0     ROOT ALL Z 15
     8 SEL2       28 GROUP        1 Z    SEL  0     **** SEL Z 16
     9 GLL5        5 GROUP        1 Z    GLL  0     **** GLL Z 20
@<TRIPOS>SET

