#    Name: 3ua3_SAH_1_ligand
#    Modification time : Mon Mar 24 22:04:31 2014

@<TRIPOS>MOLECULE
3ua3_SAH_1_ligand
   46    48     1     0     0
SMALL
NO_CHARGES


@<TRIPOS>ATOM
      1 N          15.0200   24.7240   26.9730 N.4       1 SAH743      0.0000 
      2 CA         16.0730   24.7420   25.9660 C.3       1 SAH743      0.0000 
      3 CB         17.4180   24.6220   26.6650 C.3       1 SAH743      0.0000 
      4 CG         17.4220   23.5270   27.7250 C.3       1 SAH743      0.0000 
      5 SD         19.0890   22.9530   28.1300 S.3       1 SAH743      0.0000 
      6 C          15.9170   23.6190   24.9400 C.2       1 SAH743      0.0000 
      7 O          15.3480   22.5630   25.2210 O.co2     1 SAH743      0.0000 
      8 OXT        16.3650   23.7380   23.8010 O.co2     1 SAH743      0.0000 
      9 C5'        18.8820   23.5860   29.8130 C.3       1 SAH743      0.0000 
     10 C4'        18.9460   25.1090   29.8580 C.3       1 SAH743      0.0000 
     11 O4'        18.5250   25.5680   31.1250 O.3       1 SAH743      0.0000 
     12 C3'        20.3540   25.6360   29.6180 C.3       1 SAH743      0.0000 
     13 O3'        20.3410   26.5590   28.5520 O.3       1 SAH743      0.0000 
     14 C2'        20.7410   26.3470   30.8990 C.3       1 SAH743      0.0000 
     15 O2'        21.3280   27.5940   30.6130 O.3       1 SAH743      0.0000 
     16 C1'        19.4240   26.5300   31.6320 C.3       1 SAH743      0.0000 
     17 N9         19.5360   26.3160   33.0830 N.pl3     1 SAH743      0.0000 
     18 C8         19.9390   25.1710   33.7210 C.2       1 SAH743      0.0000 
     19 N7         19.8850   25.3860   35.0560 N.2       1 SAH743      0.0000 
     20 C5         19.4460   26.6500   35.2750 C.ar      1 SAH743      0.0000 
     21 C6         19.2110   27.3830   36.4330 C.ar      1 SAH743      0.0000 
     22 N6         19.4220   26.8410   37.6290 N.pl3     1 SAH743      0.0000 
     23 N1         18.7570   28.6810   36.3340 N.ar      1 SAH743      0.0000 
     24 C2         18.5440   29.2490   35.0940 C.ar      1 SAH743      0.0000 
     25 N3         18.7790   28.5180   33.9510 N.ar      1 SAH743      0.0000 
     26 C4         19.2210   27.2420   34.0400 C.ar      1 SAH743      0.0000 
     27 H          16.0653   25.6907   25.4340 H         1 SAH743      0.0000 
     28 H          17.6657   25.5794   27.1378 H         1 SAH743      0.0000 
     29 H          18.1930   24.4037   25.9213 H         1 SAH743      0.0000 
     30 H          16.9375   22.6225   27.4088 H         1 SAH743      0.0000 
     31 H          17.0524   23.8526   28.6791 H         1 SAH743      0.0000 
     32 H          19.6818   23.1081   30.3385 H         1 SAH743      0.0000 
     33 H          17.9288   23.1891   30.0924 H         1 SAH743      0.0000 
     34 H          18.3055   25.5010   29.0759 H         1 SAH743      0.0000 
     35 H          21.0034   24.8179   29.4688 H         1 SAH743      0.0000 
     36 H          21.3555   25.6992   31.4705 H         1 SAH743      0.0000 
     37 H          19.0600   27.5252   31.4329 H         1 SAH743      0.0000 
     38 H          20.2112   24.3599   33.2851 H         1 SAH743      0.0000 
     39 H          19.7314   27.4651   38.3466 H         1 SAH743      0.0000 
     40 H          19.2522   25.8583   37.7030 H         1 SAH743      0.0000 
     41 H          18.2081   30.2231   35.0252 H         1 SAH743      0.0000 
     42 H          14.1116   24.7996   26.5618 H         1 SAH743      0.0000 
     43 H          15.0308   23.8783   27.5065 H         1 SAH743      0.0000 
     44 H          15.1125   25.4803   27.6206 H         1 SAH743      0.0000 
     45 H          20.5686   27.4390   28.9689 H         1 SAH743      0.0000 
     46 H          20.6602   28.2712   30.9220 H         1 SAH743      0.0000 
@<TRIPOS>BOND
     1    2    1 1    
     2   42    1 1    
     3   43    1 1    
     4   44    1 1    
     5    3    2 1    
     6    6    2 1    
     7   27    2 1    
     8    4    3 1    
     9   28    3 1    
    10   29    3 1    
    11    5    4 1    
    12   30    4 1    
    13   31    4 1    
    14    9    5 1    
    15    7    6 ar   
    16    8    6 ar   
    17   10    9 1    
    18   32    9 1    
    19   33    9 1    
    20   11   10 1    
    21   12   10 1    
    22   34   10 1    
    23   16   11 1    
    24   13   12 1    
    25   14   12 1    
    26   35   12 1    
    27   45   13 1    
    28   15   14 1    
    29   16   14 1    
    30   36   14 1    
    31   46   15 1    
    32   17   16 1    
    33   37   16 1    
    34   18   17 1    
    35   26   17 1    
    36   19   18 2    
    37   38   18 1    
    38   20   19 1    
    39   21   20 ar   
    40   26   20 ar   
    41   22   21 1    
    42   23   21 ar   
    43   39   22 1    
    44   40   22 1    
    45   24   23 ar   
    46   25   24 ar   
    47   41   24 1    
    48   26   25 ar   
@<TRIPOS>SUBSTRUCTURE
     1 SAH743      1 GROUP   
@<TRIPOS>SET

