#    Name: 2zsh_GA3_1_INTS_M
#    Modification time : Tue Mar 25 11:02:13 2014

@<TRIPOS>MOLECULE
2zsh_GA3_1_INTS_M
   46     0     9     0     0
SMALL
NO_CHARGES


@<TRIPOS>ATOM
      1 N          53.6295   62.4755   36.4465 N.am      2 SEC2        0.0000 
      2 N          53.4960   61.4410   37.2850 N.am      8 SEL2        0.0000 
      3 N          53.7630   63.5100   35.6080 N.am      5 SEP2        0.0000 
      4 N          53.9095   61.8135   35.6040 N.am      2 SEC2        0.0000 
      5 N          54.0560   60.1170   35.6000 N.am      8 SEL2        0.0000 
      6 N          55.3665   60.5045   36.1540 N.am      2 SEC2        0.0000 
      7 N          56.6770   60.8920   36.7080 N.am      5 SEP2        0.0000 
      8 CA         48.2270   64.4025   33.5885 C.3       3 GLC5        0.0000 
      9 CA         48.6210   63.2290   35.3860 C.3       9 GLL5        0.0000 
     10 CA         47.8330   65.5760   31.7910 C.3       6 GLP5        0.0000 
     11 CA         47.6375   57.1635   36.9195 C.3       3 GLC5        0.0000 
     12 CA         48.2130   59.1550   36.9200 C.3       9 GLL5        0.0000 
     13 CA         47.0620   55.1720   36.9190 C.3       6 GLP5        0.0000 
     14 CA         47.3205   59.1670   38.8140 C.3       3 GLC5        0.0000 
     15 CA         46.4280   59.1790   40.7080 C.3       6 GLP5        0.0000 
     16 CA         49.4635   60.5890   40.0085 C.3       3 GLC5        0.0000 
     17 CA         49.9720   58.6450   39.8620 C.3       9 GLL5        0.0000 
     18 CA         48.9550   62.5330   40.1550 C.3       6 GLP5        0.0000 
     19 O          54.3545   58.5830   41.4930 O.2       1 ALC1        0.0000 
     20 O          53.0300   58.9550   41.1610 O.2       7 ALL1        0.0000 
     21 O          55.6790   58.2110   41.8250 O.2       4 ALP1        0.0000 
     22 CA         55.9460   59.3260   39.6635 C.3       3 GLC5        0.0000 
     23 CA         54.2910   58.1070   38.8750 C.3       9 GLL5        0.0000 
     24 CA         57.6010   60.5450   40.4520 C.3       6 GLP5        0.0000 
     25 CA         55.7960   58.8890   37.9740 C.3       3 GLC5        0.0000 
     26 CA         57.3010   59.6710   37.0730 C.3       6 GLP5        0.0000 
     27 CA         49.6690   64.3623   35.1792 C.3       3 GLC5        0.0000 
     28 CA         49.2150   62.0780   35.5790 C.3       9 GLL5        0.0000 
     29 CA         50.4200   66.0710   34.8760 C.3       6 GLP5        0.0000 
     30 CA         48.6728   62.8861   37.4874 C.3       3 GLC5        0.0000 
     31 CA         48.1380   63.2020   39.2460 C.3       6 GLP5        0.0000 
     32 CA         49.6857   59.2670   33.2122 C.3       3 GLC5        0.0000 
     33 CA         48.8880   60.7750   34.8670 C.3       9 GLL5        0.0000 
     34 CA         49.7760   58.0970   31.5400 C.3       6 GLP5        0.0000 
     35 CA         46.0027   59.9950   36.7490 C.3       3 GLC5        0.0000 
     36 CA         47.7780   59.9330   35.6460 C.3       9 GLL5        0.0000 
     37 CA         44.0100   60.4460   37.2150 C.3       6 GLP5        0.0000 
     38 CA         49.5392   60.7600   39.0078 C.3       3 GLC5        0.0000 
     39 CA         49.7380   59.2750   37.3190 C.3       9 GLL5        0.0000 
     40 CA         48.9827   57.9200   41.2105 C.3       3 GLC5        0.0000 
     41 CA         47.5430   57.3920   42.0820 C.3       6 GLP5        0.0000 
     42 CA         51.9372   57.8377   42.5943 C.3       3 GLC5        0.0000 
     43 CA         50.8730   58.2510   40.8160 C.3       9 GLL5        0.0000 
     44 CA         52.2640   57.6090   44.5520 C.3       6 GLP5        0.0000 
     45 CA         51.6287   56.0128   41.2628 C.3       3 GLC5        0.0000 
     46 CA         51.6470   53.9590   41.8890 C.3       6 GLP5        0.0000 
@<TRIPOS>BOND
@<TRIPOS>SUBSTRUCTURE
     1 ALC1       19 GROUP        1 X    ALC  0     ROOT ALC X 1
     2 SEC2        1 GROUP        1 X    SEC  0     **** SEC X 2
     3 GLC5        8 GROUP        1 X    GLC  0     **** GLC X 6
     4 ALP1       21 GROUP        1 Y    ALP  0     ROOT ALP Y 8
     5 SEP2        3 GROUP        1 Y    SEP  0     **** SEP Y 9
     6 GLP5       10 GROUP        1 Y    GLP  0     **** GLP Y 13
     7 ALL1       20 GROUP        1 Z    ALL  0     ROOT ALL Z 15
     8 SEL2        2 GROUP        1 Z    SEL  0     **** SEL Z 16
     9 GLL5        9 GROUP        1 Z    GLL  0     **** GLL Z 20
@<TRIPOS>SET

