#    Name: 2zsh_GA3_1_ligand
#    Modification time : Tue Mar 25 11:02:13 2014

@<TRIPOS>MOLECULE
2zsh_GA3_1_ligand
   44    48     1     0     0
SMALL
NO_CHARGES


@<TRIPOS>ATOM
      1 O71        53.4960   61.4410   37.2850 O.co2     1 GA3345      0.0000 
      2 C7         53.2740   60.5000   36.5840 C.2       1 GA3345      0.0000 
      3 O72        54.0560   60.1170   35.6000 O.co2     1 GA3345      0.0000 
      4 C6         52.0650   59.5740   36.7070 C.3       1 GA3345      0.0000 
      5 C5         51.9310   59.1350   38.2150 C.3       1 GA3345      0.0000 
      6 C8         50.7000   60.1870   36.4030 C.3       1 GA3345      0.0000 
      7 C15        50.3730   61.7450   36.5640 C.3       1 GA3345      0.0000 
      8 C16        49.2150   62.0780   35.5790 C.2       1 GA3345      0.0000 
      9 C17        48.6210   63.2290   35.3860 C.2       1 GA3345      0.0000 
     10 C13        48.8880   60.7750   34.8670 C.3       1 GA3345      0.0000 
     11 C14        50.3030   60.0990   34.9020 C.3       1 GA3345      0.0000 
     12 O13        48.3810   60.8060   33.5290 O.3       1 GA3345      0.0000 
     13 C12        47.7780   59.9330   35.6460 C.3       1 GA3345      0.0000 
     14 C11        48.2130   59.1550   36.9200 C.3       1 GA3345      0.0000 
     15 C9         49.7380   59.2750   37.3190 C.3       1 GA3345      0.0000 
     16 C10        50.5090   58.6990   38.4020 C.3       1 GA3345      0.0000 
     17 O92        50.6750   57.2230   37.9350 O.3       1 GA3345      0.0000 
     18 C1         49.9720   58.6450   39.8620 C.2       1 GA3345      0.0000 
     19 C2         50.8730   58.2510   40.8160 C.2       1 GA3345      0.0000 
     20 C3         52.3480   57.8820   40.4570 C.3       1 GA3345      0.0000 
     21 O31        53.0300   58.9550   41.1610 O.3       1 GA3345      0.0000 
     22 C4         52.7280   57.9820   38.9580 C.3       1 GA3345      0.0000 
     23 C18        54.2910   58.1070   38.8750 C.3       1 GA3345      0.0000 
     24 C19        51.9820   56.7980   38.2570 C.2       1 GA3345      0.0000 
     25 O91        52.3790   55.7140   38.0130 O.2       1 GA3345      0.0000 
     26 H          52.1964   58.6816   36.1481 H         1 GA3345      0.0000 
     27 H          52.0144   60.0460   38.8536 H         1 GA3345      0.0000 
     28 H          51.2432   62.2964   36.3018 H         1 GA3345      0.0000 
     29 H          50.0597   61.9174   37.5650 H         1 GA3345      0.0000 
     30 H          50.2123   59.0923   34.6171 H         1 GA3345      0.0000 
     31 H          50.9715   60.6663   34.3240 H         1 GA3345      0.0000 
     32 H          47.3368   59.2170   34.9203 H         1 GA3345      0.0000 
     33 H          46.9595   60.6343   35.9147 H         1 GA3345      0.0000 
     34 H          47.9821   58.0852   36.7818 H         1 GA3345      0.0000 
     35 H          47.6104   59.5045   37.7754 H         1 GA3345      0.0000 
     36 H          49.4753   60.4654   38.0987 H         1 GA3345      0.0000 
     37 H          49.0364   58.8938   39.9973 H         1 GA3345      0.0000 
     38 H          50.6535   58.1708   41.8097 H         1 GA3345      0.0000 
     39 H          52.5860   56.9619   40.8685 H         1 GA3345      0.0000 
     40 H          54.7494   57.3619   39.3595 H         1 GA3345      0.0000 
     41 H          54.6156   58.0853   37.9294 H         1 GA3345      0.0000 
     42 H          54.6170   58.9625   39.2772 H         1 GA3345      0.0000 
     43 H          47.4531   61.1693   33.6123 H         1 GA3345      0.0000 
     44 H          53.9464   58.6007   41.3472 H         1 GA3345      0.0000 
@<TRIPOS>BOND
     1    2    1 ar   
     2    3    2 ar   
     3    4    2 1    
     4    5    4 1    
     5    6    4 1    
     6   26    4 1    
     7   16    5 1    
     8   22    5 1    
     9   27    5 1    
    10    7    6 1    
    11   11    6 1    
    12   15    6 1    
    13    8    7 1    
    14   28    7 1    
    15   29    7 1    
    16    9    8 2    
    17   10    8 1    
    18   11   10 1    
    19   12   10 1    
    20   13   10 1    
    21   30   11 1    
    22   31   11 1    
    23   43   12 1    
    24   14   13 1    
    25   32   13 1    
    26   33   13 1    
    27   15   14 1    
    28   34   14 1    
    29   35   14 1    
    30   16   15 1    
    31   36   15 1    
    32   17   16 1    
    33   18   16 1    
    34   24   17 1    
    35   19   18 2    
    36   37   18 1    
    37   20   19 1    
    38   38   19 1    
    39   21   20 1    
    40   22   20 1    
    41   39   20 1    
    42   44   21 1    
    43   23   22 1    
    44   24   22 1    
    45   40   23 1    
    46   41   23 1    
    47   42   23 1    
    48   25   24 2    
@<TRIPOS>SUBSTRUCTURE
     1 GA3345      1 GROUP   
@<TRIPOS>SET

