#    Name: 1ea0_FMN_1_INTS_M
#    Modification time : Mon Mar 24 23:19:43 2014

@<TRIPOS>MOLECULE
1ea0_FMN_1_INTS_M
   68     0     9     0     0
SMALL
NO_CHARGES


@<TRIPOS>ATOM
      1 N          38.1365  138.6210  121.1335 N.am      2 SEC2        0.0000 
      2 N          37.7150  137.8720  120.1820 N.am      8 SEL2        0.0000 
      3 N          38.5580  139.3700  122.0850 N.am      5 SEP2        0.0000 
      4 O          36.9325  139.8070  120.4095 O.2       1 ALC1        0.0000 
      5 O          35.8140  138.8280  120.3280 O.2       7 ALL1        0.0000 
      6 O          38.0510  140.7860  120.4910 O.2       4 ALP1        0.0000 
      7 N          34.3935  140.9680  120.5750 N.am      2 SEC2        0.0000 
      8 N          33.7880  139.7950  120.4410 N.am      8 SEL2        0.0000 
      9 N          34.9990  142.1410  120.7090 N.am      5 SEP2        0.0000 
     10 CA         29.1550  137.7940  120.9990 C.3       3 GLC5        0.0000 
     11 CA         30.5740  136.3160  121.6700 C.3       9 GLL5        0.0000 
     12 CA         27.7360  139.2720  120.3280 C.3       6 GLP5        0.0000 
     13 CA         30.9455  135.8430  123.6150 C.3       3 GLC5        0.0000 
     14 CA         29.9640  135.1320  122.0030 C.3       9 GLL5        0.0000 
     15 CA         31.9270  136.5540  125.2270 C.3       6 GLP5        0.0000 
     16 CA         27.4875  133.3115  122.8680 C.3       3 GLC5        0.0000 
     17 CA         28.5160  135.0200  122.2280 C.3       9 GLL5        0.0000 
     18 CA         26.4590  131.6030  123.5080 C.3       6 GLP5        0.0000 
     19 CA         27.7825  134.4780  124.2690 C.3       3 GLC5        0.0000 
     20 CA         27.0490  133.9360  126.3100 C.3       6 GLP5        0.0000 
     21 CA         30.8390  134.6325  124.0355 C.3       3 GLC5        0.0000 
     22 CA         30.6820  133.9820  122.0620 C.3       9 GLL5        0.0000 
     23 CA         30.9960  135.2830  126.0090 C.3       6 GLP5        0.0000 
     24 CA         28.2310  132.1605  122.9765 C.3       3 GLC5        0.0000 
     25 CA         30.0030  132.7180  122.4450 C.3       9 GLL5        0.0000 
     26 CA         33.5095  135.3055  124.2690 C.3       3 GLC5        0.0000 
     27 CA         35.0920  134.0570  123.3110 C.3       9 GLL5        0.0000 
     28 N          37.4255  135.5405  123.2405 N.am      2 SEC2        0.0000 
     29 N          35.7610  135.2650  123.4970 N.am      8 SEL2        0.0000 
     30 N          39.0900  135.8160  122.9840 N.am      5 SEP2        0.0000 
     31 O          35.1235  136.3180  123.4865 O.2       1 ALC1        0.0000 
     32 O          35.7610  135.2650  123.4970 O.2       7 ALL1        0.0000 
     33 O          34.4860  137.3710  123.4760 O.2       4 ALP1        0.0000 
     34 O          37.9635  132.3270  123.8675 O.2       1 ALC1        0.0000 
     35 O          37.0880  132.7710  122.8330 O.2       7 ALL1        0.0000 
     36 O          38.8390  131.8830  124.9020 O.2       4 ALP1        0.0000 
     37 CA         35.2605  132.2930  126.2040 C.3       3 GLC5        0.0000 
     38 CA         35.0330  130.8080  124.8390 C.3       9 GLL5        0.0000 
     39 CA         35.4880  133.7780  127.5690 C.3       6 GLP5        0.0000 
     40 CA         36.9705  130.3960  125.6075 C.3       3 GLC5        0.0000 
     41 CA         38.9080  129.9840  126.3760 C.3       6 GLP5        0.0000 
     42 N          32.5255  129.4340  123.1865 N.am      2 SEC2        0.0000 
     43 N          32.4930  129.4680  124.9320 N.am      8 SEL2        0.0000 
     44 N          32.5580  129.4000  121.4410 N.am      5 SEP2        0.0000 
     45 N          31.5890  130.1370  126.2235 N.am      2 SEC2        0.0000 
     46 N          30.6850  130.8060  127.5150 N.am      5 SEP2        0.0000 
     47 N          31.1140  129.3820  125.1665 N.am      2 SEC2        0.0000 
     48 N          29.7350  129.2960  125.4010 N.am      5 SEP2        0.0000 
     49 N          33.5160  130.2960  127.9420 N.am      2 SEC2        0.0000 
     50 N          33.4820  129.1800  126.9530 N.am      8 SEL2        0.0000 
     51 N          33.5500  131.4120  128.9310 N.am      5 SEP2        0.0000 
     52 N          32.0835  129.9930  127.2340 N.am      2 SEC2        0.0000 
     53 CA         31.6122  137.4780  122.7255 C.3       3 GLC5        0.0000 
     54 CA         31.9730  138.6310  123.9230 C.3       6 GLP5        0.0000 
     55 CA         29.7495  133.9570  120.4093 C.3       3 GLC5        0.0000 
     56 CA         30.2590  132.8380  118.7030 C.3       6 GLP5        0.0000 
     57 CA         28.1900  134.9700  120.3282 C.3       3 GLC5        0.0000 
     58 CA         27.1400  134.8640  118.5410 C.3       6 GLP5        0.0000 
     59 CA         30.3008  133.0940  120.4783 C.3       3 GLC5        0.0000 
     60 CA         32.1395  135.5765  123.4303 C.3       3 GLC5        0.0000 
     61 CA         32.0370  134.0060  121.7990 C.3       9 GLL5        0.0000 
     62 CA         31.2284  131.8165  121.5226 C.3       3 GLC5        0.0000 
     63 CA         31.2670  129.9550  121.0190 C.3       6 GLP5        0.0000 
     64 CA         31.3055  133.7185  120.1683 C.3       3 GLC5        0.0000 
     65 CA         37.3735  134.1735  122.6445 C.3       3 GLC5        0.0000 
     66 CA         39.2040  134.8770  121.7810 C.3       6 GLP5        0.0000 
     67 CA         35.5607  133.6852  125.1000 C.3       3 GLC5        0.0000 
     68 CA         35.7870  134.8080  126.6430 C.3       6 GLP5        0.0000 
@<TRIPOS>BOND
@<TRIPOS>SUBSTRUCTURE
     1 ALC1        4 GROUP        1 X    ALC  0     ROOT ALC X 1
     2 SEC2        1 GROUP        1 X    SEC  0     **** SEC X 2
     3 GLC5       10 GROUP        1 X    GLC  0     **** GLC X 6
     4 ALP1        6 GROUP        1 Y    ALP  0     ROOT ALP Y 8
     5 SEP2        3 GROUP        1 Y    SEP  0     **** SEP Y 9
     6 GLP5       12 GROUP        1 Y    GLP  0     **** GLP Y 13
     7 ALL1        5 GROUP        1 Z    ALL  0     ROOT ALL Z 15
     8 SEL2        2 GROUP        1 Z    SEL  0     **** SEL Z 16
     9 GLL5       11 GROUP        1 Z    GLL  0     **** GLL Z 20
@<TRIPOS>SET

