#    Name: 1ea0_FMN_1_ligand
#    Modification time : Mon Mar 24 23:19:43 2014

@<TRIPOS>MOLECULE
1ea0_FMN_1_ligand
   50    52     1     0     0
SMALL
NO_CHARGES


@<TRIPOS>ATOM
      1 N1         36.0230  136.4110  120.6560 N.2       1 FMN2474     0.0000 
      2 C2         36.5410  137.6700  120.3840 C.2       1 FMN2474     0.0000 
      3 O2         37.7150  137.8720  120.1820 O.2       1 FMN2474     0.0000 
      4 N3         35.8140  138.8280  120.3280 N.am      1 FMN2474     0.0000 
      5 C4         34.4610  138.7600  120.5120 C.2       1 FMN2474     0.0000 
      6 O4         33.7880  139.7950  120.4410 O.2       1 FMN2474     0.0000 
      7 C4A        33.9000  137.5160  120.7720 C.2       1 FMN2474     0.0000 
      8 N5         32.5540  137.4710  120.9810 N.2       1 FMN2474     0.0000 
      9 C5A        31.9290  136.3340  121.3860 C.ar      1 FMN2474     0.0000 
     10 C6         30.5740  136.3160  121.6700 C.ar      1 FMN2474     0.0000 
     11 C7         29.9640  135.1320  122.0030 C.ar      1 FMN2474     0.0000 
     12 C7M        28.5160  135.0200  122.2280 C.3       1 FMN2474     0.0000 
     13 C8         30.6820  133.9820  122.0620 C.ar      1 FMN2474     0.0000 
     14 C8M        30.0030  132.7180  122.4450 C.3       1 FMN2474     0.0000 
     15 C9         32.0370  134.0060  121.7990 C.ar      1 FMN2474     0.0000 
     16 C9A        32.6670  135.1920  121.4680 C.ar      1 FMN2474     0.0000 
     17 N10        34.0220  135.2180  121.2910 N.pl3     1 FMN2474     0.0000 
     18 C10        34.6650  136.3690  120.9080 C.2       1 FMN2474     0.0000 
     19 C1'        34.7630  134.0310  121.8270 C.3       1 FMN2474     0.0000 
     20 C2'        35.0920  134.0570  123.3110 C.3       1 FMN2474     0.0000 
     21 O2'        35.7610  135.2650  123.4970 O.3       1 FMN2474     0.0000 
     22 C3'        35.9940  132.8830  123.7050 C.3       1 FMN2474     0.0000 
     23 O3'        37.0880  132.7710  122.8330 O.3       1 FMN2474     0.0000 
     24 C4'        35.1260  131.6550  123.6060 C.3       1 FMN2474     0.0000 
     25 O4'        33.9390  132.3220  123.8030 O.3       1 FMN2474     0.0000 
     26 C5'        35.0330  130.8080  124.8390 C.3       1 FMN2474     0.0000 
     27 O5'        34.5190  129.5620  124.4740 O.3       1 FMN2474     0.0000 
     28 P          33.6770  128.7120  125.5030 P.3       1 FMN2474     0.0000 
     29 O1P        32.4930  129.4680  124.9320 O.co2     1 FMN2474     0.0000 
     30 O2P        33.3960  127.2920  125.2360 O.co2     1 FMN2474     0.0000 
     31 O3P        33.4820  129.1800  126.9530 O.co2     1 FMN2474     0.0000 
     32 H          36.2749  139.7276  120.1517 H         1 FMN2474     0.0000 
     33 H          30.0303  137.1903  121.6302 H         1 FMN2474     0.0000 
     34 H          32.5865  133.1307  121.8496 H         1 FMN2474     0.0000 
     35 H          35.7160  133.9062  121.2584 H         1 FMN2474     0.0000 
     36 H          34.1758  133.1053  121.6139 H         1 FMN2474     0.0000 
     37 H          34.1819  134.0093  123.8595 H         1 FMN2474     0.0000 
     38 H          36.2757  133.0149  124.7271 H         1 FMN2474     0.0000 
     39 H          35.1803  131.1713  122.7589 H         1 FMN2474     0.0000 
     40 H          34.3912  131.3269  125.5612 H         1 FMN2474     0.0000 
     41 H          36.0358  130.7319  125.2765 H         1 FMN2474     0.0000 
     42 H          28.2474  134.0851  122.4601 H         1 FMN2474     0.0000 
     43 H          28.2100  135.6074  122.9772 H         1 FMN2474     0.0000 
     44 H          27.9928  135.2825  121.4173 H         1 FMN2474     0.0000 
     45 H          30.6351  131.9431  122.4484 H         1 FMN2474     0.0000 
     46 H          29.6028  132.7738  123.3597 H         1 FMN2474     0.0000 
     47 H          29.2617  132.4887  121.8142 H         1 FMN2474     0.0000 
     48 H          35.2035  135.9454  123.0212 H         1 FMN2474     0.0000 
     49 H          37.8399  132.4389  123.4026 H         1 FMN2474     0.0000 
     50 H          33.3094  131.6305  124.1571 H         1 FMN2474     0.0000 
@<TRIPOS>BOND
     1    2    1 1    
     2   18    1 2    
     3    3    2 2    
     4    4    2 am   
     5    5    4 am   
     6   32    4 1    
     7    6    5 2    
     8    7    5 1    
     9    8    7 2    
    10   18    7 1    
    11    9    8 1    
    12   10    9 ar   
    13   16    9 ar   
    14   11   10 ar   
    15   33   10 1    
    16   12   11 1    
    17   13   11 ar   
    18   42   12 1    
    19   43   12 1    
    20   44   12 1    
    21   14   13 1    
    22   15   13 ar   
    23   45   14 1    
    24   46   14 1    
    25   47   14 1    
    26   16   15 ar   
    27   34   15 1    
    28   17   16 1    
    29   18   17 1    
    30   19   17 1    
    31   20   19 1    
    32   35   19 1    
    33   36   19 1    
    34   21   20 1    
    35   22   20 1    
    36   37   20 1    
    37   48   21 1    
    38   23   22 1    
    39   24   22 1    
    40   38   22 1    
    41   49   23 1    
    42   25   24 1    
    43   26   24 1    
    44   39   24 1    
    45   50   25 1    
    46   27   26 1    
    47   40   26 1    
    48   41   26 1    
    49   28   27 1    
    50   29   28 ar   
    51   30   28 ar   
    52   31   28 ar   
@<TRIPOS>SUBSTRUCTURE
     1 FMN2474     1 GROUP   
@<TRIPOS>SET

