#    Name: 2a5y_ATP_1_INTS_M
#    Modification time : Mon Mar 24 18:33:43 2014

@<TRIPOS>MOLECULE
2a5y_ATP_1_INTS_M
   79     0    15     0     0
SMALL
NO_CHARGES


@<TRIPOS>ATOM
      1 NZ         95.7670   45.1630   81.8330 N.4       3 LYC4        0.0000 
      2 NZ         94.8930   45.9180   81.8410 N.4      13 LYL4        0.0000 
      3 NZ         96.6410   44.4080   81.8250 N.4       8 LYP4        0.0000 
      4 N          95.6135   47.3755   81.6300 N.am      2 SEC2        0.0000 
      5 N          94.8930   45.9180   81.8410 N.am     12 SEL2        0.0000 
      6 N          96.3340   48.8330   81.4190 N.am      7 SEP2        0.0000 
      7 N          95.7670   45.1630   81.8330 N.am      2 SEC2        0.0000 
      8 N          96.6410   44.4080   81.8250 N.am      7 SEP2        0.0000 
      9 Zn         92.5330   44.8385   79.5080 Zn        4 ZIC7        0.0000 
     10 Zn         92.8240   45.0950   80.5890 Zn       14 ZIL7        0.0000 
     11 Zn         92.2420   44.5820   78.4270 Zn        9 ZIP7        0.0000 
     12 NZ         92.2370   47.6265   83.2505 N.4       3 LYC4        0.0000 
     13 NZ         92.7160   47.3400   82.0170 N.4      13 LYL4        0.0000 
     14 NZ         92.3990   47.3340   85.4920 N.4       8 LYP4        0.0000 
     15 N          93.0660   46.9240   83.6380 N.am      2 SEC2        0.0000 
     16 N          92.7160   47.3400   82.0170 N.am     12 SEL2        0.0000 
     17 N          93.4160   46.5080   85.2590 N.am      7 SEP2        0.0000 
     18 N          92.2370   47.6265   83.2505 N.am      2 SEC2        0.0000 
     19 N          91.7580   47.9130   84.4840 N.am      7 SEP2        0.0000 
     20 N          92.7615   48.6195   81.7455 N.am      2 SEC2        0.0000 
     21 N          92.8070   49.8990   81.4740 N.am      7 SEP2        0.0000 
     22 Zn         93.4040   44.8205   78.4140 Zn        4 ZIC7        0.0000 
     23 Zn         94.5660   45.0590   78.4010 Zn       14 ZIL7        0.0000 
     24 N          95.1315   43.9500   77.4745 N.am      2 SEC2        0.0000 
     25 N          94.5660   45.0590   78.4010 N.am     12 SEL2        0.0000 
     26 N          95.6970   42.8410   76.5480 N.am      7 SEP2        0.0000 
     27 NZ         96.5475   45.1695   80.8660 N.4       3 LYC4        0.0000 
     28 NZ         96.4540   45.9310   79.9070 N.4      13 LYL4        0.0000 
     29 N          96.3940   47.3820   80.6630 N.am      2 SEC2        0.0000 
     30 N          96.4540   45.9310   79.9070 N.am     12 SEL2        0.0000 
     31 N          97.6365   46.4210   78.9530 N.am      2 SEC2        0.0000 
     32 N          98.8190   46.9110   77.9990 N.am      7 SEP2        0.0000 
     33 N          97.2215   45.1070   78.7615 N.am      2 SEC2        0.0000 
     34 N          97.9890   44.2830   77.6160 N.am      7 SEP2        0.0000 
     35 N          96.5475   45.1695   80.8660 N.am      2 SEC2        0.0000 
     36 N          95.2225   47.9455   80.6225 N.am      2 SEC2        0.0000 
     37 N          94.1110   47.0580   79.8260 N.am     12 SEL2        0.0000 
     38 N          95.7390   44.5980   75.0845 N.am      2 SEC2        0.0000 
     39 N          95.8470   45.4230   76.3380 N.am     12 SEL2        0.0000 
     40 N          95.6310   43.7730   73.8310 N.am      7 SEP2        0.0000 
     41 CA         95.2740   47.6475   73.4855 C.3       5 GLC5        0.0000 
     42 CA         94.9110   48.7820   74.6830 C.3      15 GLL5        0.0000 
     43 CA         95.6370   46.5130   72.2880 C.3      10 GLP5        0.0000 
     44 CA         95.6000   51.2600   77.0955 C.3       5 GLC5        0.0000 
     45 CA         94.9290   49.9540   75.6080 C.3      15 GLL5        0.0000 
     46 CA         96.2710   52.5660   78.5830 C.3      10 GLP5        0.0000 
     47 CA         95.6265   52.1775   76.1235 C.3       5 GLC5        0.0000 
     48 CA         94.3030   51.1420   74.8560 C.3      15 GLL5        0.0000 
     49 CA         96.9500   53.2130   77.3910 C.3      10 GLP5        0.0000 
     50 CA         92.8835   51.7690   75.6680 C.3       5 GLC5        0.0000 
     51 CA         91.4640   52.3960   76.4800 C.3      10 GLP5        0.0000 
     52 CA         93.6280   51.6860   72.2505 C.3       5 GLC5        0.0000 
     53 CA         95.2060   51.0630   73.6130 C.3      15 GLL5        0.0000 
     54 CA         92.0500   52.3090   70.8880 C.3      10 GLP5        0.0000 
     55 CA         98.5550   51.0465   74.9870 C.3       5 GLC5        0.0000 
     56 CA         96.6150   51.0560   74.2840 C.3      15 GLL5        0.0000 
     57 CA        100.4950   51.0370   75.6900 C.3      10 GLP5        0.0000 
     58 CA         96.7825   52.1345   75.8375 C.3       5 GLC5        0.0000 
     59 CA         96.6690   53.2435   73.7675 C.3       5 GLC5        0.0000 
     60 CA         96.7230   55.4310   73.2510 C.3      10 GLP5        0.0000 
     61 CA        100.8475   49.6995   69.2260 C.3       5 GLC5        0.0000 
     62 CA         99.1330   49.2060   70.5240 C.3      15 GLL5        0.0000 
     63 CA        102.5620   50.1930   67.9280 C.3      10 GLP5        0.0000 
     64 O         100.6360   47.8595   68.8925 O.2       1 ALC1        0.0000 
     65 O         100.0510   48.2450   70.1700 O.2      11 ALL1        0.0000 
     66 O         101.2210   47.4740   67.6150 O.2       6 ALP1        0.0000 
     67 CA         96.5440   49.9005   69.6710 C.3       5 GLC5        0.0000 
     68 CA         97.7110   51.0430   69.9760 C.3      15 GLL5        0.0000 
     69 CA         95.3770   48.7580   69.3660 C.3      10 GLP5        0.0000 
     70 CA         97.1090   53.0485   70.2510 C.3       5 GLC5        0.0000 
     71 CA         96.5070   55.0540   70.5260 C.3      10 GLP5        0.0000 
     72 CA         96.7085   48.4100   72.2185 C.3       5 GLC5        0.0000 
     73 CA         97.7800   50.3070   72.1490 C.3      15 GLL5        0.0000 
     74 CA         93.5890   49.8895   76.5108 C.3       5 GLC5        0.0000 
     75 CA         92.2580   50.4110   77.8760 C.3      10 GLP5        0.0000 
     76 CA         98.2927   47.4237   71.1885 C.3       5 GLC5        0.0000 
     77 CA         97.6570   45.5910   71.1890 C.3      10 GLP5        0.0000 
     78 CA         96.8656   49.2699   70.5172 C.3       5 GLC5        0.0000 
     79 CA         98.7240   49.3070   71.8520 C.3      15 GLL5        0.0000 
@<TRIPOS>BOND
@<TRIPOS>SUBSTRUCTURE
     1 ALC1       64 GROUP        1 X    ALC  0     ROOT ALC X 1
     2 SEC2        4 GROUP        1 X    SEC  0     **** SEC X 2
     3 LYC4        1 GROUP        1 X    LYC  0     **** LYC X 4
     4 ZIC7        9 GROUP        1 X    ZIC  0     **** ZIC X 5
     5 GLC5       41 GROUP        1 X    GLC  0     **** GLC X 6
     6 ALP1       66 GROUP        1 Y    ALP  0     ROOT ALP Y 8
     7 SEP2        6 GROUP        1 Y    SEP  0     **** SEP Y 9
     8 LYP4        3 GROUP        1 Y    LYP  0     **** LYP Y 11
     9 ZIP7       11 GROUP        1 Y    ZIP  0     **** ZIP Y 12
    10 GLP5       43 GROUP        1 Y    GLP  0     **** GLP Y 13
    11 ALL1       65 GROUP        1 Z    ALL  0     ROOT ALL Z 15
    12 SEL2        5 GROUP        1 Z    SEL  0     **** SEL Z 16
    13 LYL4        2 GROUP        1 Z    LYL  0     **** LYL Z 18
    14 ZIL7       10 GROUP        1 Z    ZIL  0     **** ZIL Z 19
    15 GLL5       42 GROUP        1 Z    GLL  0     **** GLL Z 20
@<TRIPOS>SET

