#    Name: 2a5y_ATP_1_ligand
#    Modification time : Mon Mar 24 18:33:43 2014

@<TRIPOS>MOLECULE
2a5y_ATP_1_ligand
   43    45     1     0     0
SMALL
NO_CHARGES


@<TRIPOS>ATOM
      1 PG         93.5640   46.3110   81.1840 P.3       1 ATP551      0.0000 
      2 O1G        94.8930   45.9180   81.8410 O.co2     1 ATP551      0.0000 
      3 O2G        92.8240   45.0950   80.5890 O.co2     1 ATP551      0.0000 
      4 O3G        92.7160   47.3400   82.0170 O.co2     1 ATP551      0.0000 
      5 PB         95.3030   46.2970   79.0000 P.3       1 ATP551      0.0000 
      6 O1B        94.5660   45.0590   78.4010 O.co2     1 ATP551      0.0000 
      7 O2B        96.4540   45.9310   79.9070 O.co2     1 ATP551      0.0000 
      8 O3B        94.1110   47.0580   79.8260 O.3       1 ATP551      0.0000 
      9 PA         95.0840   46.7620   76.3810 P.3       1 ATP551      0.0000 
     10 O1A        95.8470   45.4230   76.3380 O.co2     1 ATP551      0.0000 
     11 O2A        93.5530   46.9140   76.5410 O.co2     1 ATP551      0.0000 
     12 O3A        95.6810   47.2760   77.7360 O.3       1 ATP551      0.0000 
     13 O5'        95.5250   47.5800   75.1040 O.3       1 ATP551      0.0000 
     14 C5'        94.9110   48.7820   74.6830 C.3       1 ATP551      0.0000 
     15 C4'        94.9290   49.9540   75.6080 C.3       1 ATP551      0.0000 
     16 O4'        96.3250   50.3920   75.6480 O.3       1 ATP551      0.0000 
     17 C3'        94.3030   51.1420   74.8560 C.3       1 ATP551      0.0000 
     18 O3'        94.6390   52.4340   75.5290 O.3       1 ATP551      0.0000 
     19 C2'        95.2060   51.0630   73.6130 C.3       1 ATP551      0.0000 
     20 O2'        95.2090   52.1670   72.7410 O.3       1 ATP551      0.0000 
     21 C1'        96.6150   51.0560   74.2840 C.3       1 ATP551      0.0000 
     22 N9         97.5290   50.2070   73.5260 N.pl3     1 ATP551      0.0000 
     23 C8         98.3370   49.1220   73.9890 C.2       1 ATP551      0.0000 
     24 N7         99.0830   48.5360   73.0070 N.2       1 ATP551      0.0000 
     25 C5         98.7240   49.3070   71.8520 C.ar      1 ATP551      0.0000 
     26 C6         99.1330   49.2060   70.5240 C.ar      1 ATP551      0.0000 
     27 N6        100.0510   48.2450   70.1700 N.pl3     1 ATP551      0.0000 
     28 N1         98.6230   50.0910   69.5810 N.ar      1 ATP551      0.0000 
     29 C2         97.7110   51.0430   69.9760 C.ar      1 ATP551      0.0000 
     30 N3         97.2210   51.2470   71.2560 N.ar      1 ATP551      0.0000 
     31 C4         97.7800   50.3070   72.1490 C.ar      1 ATP551      0.0000 
     32 H          93.8235   48.5920   74.4012 H         1 ATP551      0.0000 
     33 H          95.3571   49.1273   73.6930 H         1 ATP551      0.0000 
     34 H          94.5190   49.8116   76.4906 H         1 ATP551      0.0000 
     35 H          93.3601   50.9841   74.6198 H         1 ATP551      0.0000 
     36 H          95.0994   50.1201   73.1612 H         1 ATP551      0.0000 
     37 H          96.9311   52.0225   74.4288 H         1 ATP551      0.0000 
     38 H          98.3325   48.8489   74.9328 H         1 ATP551      0.0000 
     39 H          99.9913   47.9038   69.2319 H         1 ATP551      0.0000 
     40 H         100.6981   47.9713   70.8816 H         1 ATP551      0.0000 
     41 H          97.3345   51.7040   69.2083 H         1 ATP551      0.0000 
     42 H          94.9489   53.0361   74.7932 H         1 ATP551      0.0000 
     43 H          95.9299   51.9699   72.0766 H         1 ATP551      0.0000 
@<TRIPOS>BOND
     1    2    1 ar   
     2    3    1 ar   
     3    4    1 ar   
     4    8    1 1    
     5    6    5 ar   
     6    7    5 ar   
     7    8    5 1    
     8   12    5 1    
     9   10    9 ar   
    10   11    9 ar   
    11   12    9 1    
    12   13    9 1    
    13   14   13 1    
    14   15   14 1    
    15   32   14 1    
    16   33   14 1    
    17   16   15 1    
    18   17   15 1    
    19   34   15 1    
    20   21   16 1    
    21   18   17 1    
    22   19   17 1    
    23   35   17 1    
    24   42   18 1    
    25   20   19 1    
    26   21   19 1    
    27   36   19 1    
    28   43   20 1    
    29   22   21 1    
    30   37   21 1    
    31   23   22 1    
    32   31   22 1    
    33   24   23 2    
    34   38   23 1    
    35   25   24 1    
    36   26   25 ar   
    37   31   25 ar   
    38   27   26 1    
    39   28   26 ar   
    40   39   27 1    
    41   40   27 1    
    42   29   28 ar   
    43   30   29 ar   
    44   41   29 1    
    45   31   30 ar   
@<TRIPOS>SUBSTRUCTURE
     1 ATP551      1 GROUP   
@<TRIPOS>SET

