#    Name: 4af0_IMP_4_INTS_M
#    Modification time : Tue Mar 25 05:31:57 2014

@<TRIPOS>MOLECULE
4af0_IMP_4_INTS_M
   59     0     9     0     0
SMALL
NO_CHARGES


@<TRIPOS>ATOM
      1 N          57.6250   63.0395   53.3720 N.am      2 SEC2        0.0000 
      2 N          56.3590   63.6280   52.8860 N.am      8 SEL2        0.0000 
      3 N          58.8910   62.4510   53.8580 N.am      5 SEP2        0.0000 
      4 N          56.5775   64.0660   51.5755 N.am      2 SEC2        0.0000 
      5 N          56.7960   64.5040   50.2650 N.am      5 SEP2        0.0000 
      6 N          52.5780   62.9000   53.6470 N.am      2 SEC2        0.0000 
      7 N          53.9040   63.2480   53.2700 N.am      8 SEL2        0.0000 
      8 N          51.2520   62.5520   54.0240 N.am      5 SEP2        0.0000 
      9 N          53.4610   63.2565   54.7895 N.am      2 SEC2        0.0000 
     10 N          53.0180   63.2650   56.3090 N.am      5 SEP2        0.0000 
     11 N          56.5085   62.7850   55.6685 N.am      2 SEC2        0.0000 
     12 N          55.4720   62.4500   54.8970 N.am      8 SEL2        0.0000 
     13 N          57.5450   63.1200   56.4400 N.am      5 SEP2        0.0000 
     14 N          54.2450   62.8575   55.6030 N.am      2 SEC2        0.0000 
     15 N          54.9995   61.5015   55.6190 N.am      2 SEC2        0.0000 
     16 N          54.5270   60.5530   56.3410 N.am      5 SEP2        0.0000 
     17 CA         53.7370   58.9725   54.0735 C.3       3 GLC5        0.0000 
     18 CA         54.7080   60.2000   52.7560 C.3       9 GLL5        0.0000 
     19 CA         52.7660   57.7450   55.3910 C.3       6 GLP5        0.0000 
     20 CA         53.1125   60.9620   53.9725 C.3       3 GLC5        0.0000 
     21 CA         51.5170   61.7240   55.1890 C.3       6 GLP5        0.0000 
     22 CA         51.9335   58.5205   52.3675 C.3       3 GLC5        0.0000 
     23 CA         53.9200   58.0620   51.5580 C.3       9 GLL5        0.0000 
     24 CA         49.9470   58.9790   53.1770 C.3       6 GLP5        0.0000 
     25 CA         53.3430   57.9035   53.4745 C.3       3 GLC5        0.0000 
     26 N          51.7905   58.1795   51.9065 N.am      2 SEC2        0.0000 
     27 N          52.7200   58.4100   50.9630 N.am      8 SEL2        0.0000 
     28 N          50.8610   57.9490   52.8500 N.am      5 SEP2        0.0000 
     29 N          52.1520   57.0495   50.3250 N.am      2 SEC2        0.0000 
     30 N          51.5840   55.6890   49.6870 N.am      5 SEP2        0.0000 
     31 O          52.7165   59.1805   50.0200 O.2       1 ALC1        0.0000 
     32 O          52.7200   58.4100   50.9630 O.2       7 ALL1        0.0000 
     33 O          52.7130   59.9510   49.0770 O.2       4 ALP1        0.0000 
     34 O          53.7420   58.6275   49.2590 O.2       1 ALC1        0.0000 
     35 O          54.7710   57.3040   49.4410 O.2       7 ALL1        0.0000 
     36 O          53.8730   57.7095   48.6640 O.2       1 ALC1        0.0000 
     37 O          52.9750   58.1150   47.8870 O.2       4 ALP1        0.0000 
     38 CA         56.8660   57.6665   53.4035 C.3       3 GLC5        0.0000 
     39 CA         55.9860   57.1670   51.4070 C.3       9 GLL5        0.0000 
     40 CA         57.7460   58.1660   55.4000 C.3       6 GLP5        0.0000 
     41 N          56.3605   54.1900   55.4305 N.am      2 SEC2        0.0000 
     42 N          56.4590   55.0020   54.2800 N.am      8 SEL2        0.0000 
     43 N          56.2620   53.3780   56.5810 N.am      5 SEP2        0.0000 
     44 CA         57.5765   55.1795   55.6530 C.3       3 GLC5        0.0000 
     45 CA         57.7110   55.0830   53.7920 C.3       9 GLL5        0.0000 
     46 CA         57.4420   55.2760   57.5140 C.3       6 GLP5        0.0000 
     47 N          58.6080   52.6855   55.5830 N.am      2 SEC2        0.0000 
     48 N          59.1940   53.9100   55.2150 N.am      8 SEL2        0.0000 
     49 N          58.0220   51.4610   55.9510 N.am      5 SEP2        0.0000 
     50 O          61.4680   54.5385   53.6335 O.2       1 ALC1        0.0000 
     51 O          60.1890   54.9350   53.4630 O.2       7 ALL1        0.0000 
     52 O          62.7470   54.1420   53.8040 O.2       4 ALP1        0.0000 
     53 CA         56.7523   60.4128   52.0117 C.3       3 GLC5        0.0000 
     54 CA         54.9130   59.1970   51.6510 C.3       9 GLL5        0.0000 
     55 CA         58.6940   61.1270   51.8200 C.3       6 GLP5        0.0000 
     56 CA         55.2662   61.1363   50.7463 C.3       3 GLC5        0.0000 
     57 CA         55.7220   62.5740   49.2890 C.3       6 GLP5        0.0000 
     58 CA         57.7103   56.8320   54.3163 C.3       3 GLC5        0.0000 
     59 CA         57.6380   55.9130   52.6730 C.3       9 GLL5        0.0000 
@<TRIPOS>BOND
@<TRIPOS>SUBSTRUCTURE
     1 ALC1       31 GROUP        1 X    ALC  0     ROOT ALC X 1
     2 SEC2        1 GROUP        1 X    SEC  0     **** SEC X 2
     3 GLC5       17 GROUP        1 X    GLC  0     **** GLC X 6
     4 ALP1       33 GROUP        1 Y    ALP  0     ROOT ALP Y 8
     5 SEP2        3 GROUP        1 Y    SEP  0     **** SEP Y 9
     6 GLP5       19 GROUP        1 Y    GLP  0     **** GLP Y 13
     7 ALL1       32 GROUP        1 Z    ALL  0     ROOT ALL Z 15
     8 SEL2        2 GROUP        1 Z    SEL  0     **** SEL Z 16
     9 GLL5       18 GROUP        1 Z    GLL  0     **** GLL Z 20
@<TRIPOS>SET

