#    Name: 4af0_IMP_4_ligand
#    Modification time : Tue Mar 25 05:31:57 2014

@<TRIPOS>MOLECULE
4af0_IMP_4_ligand
   34    36     1     0     0
SMALL
NO_CHARGES


@<TRIPOS>ATOM
      1 P          55.2710   62.6810   53.4260 P.3       1 IMP1527     0.0000 
      2 O1P        56.3590   63.6280   52.8860 O.co2     1 IMP1527     0.0000 
      3 O2P        53.9040   63.2480   53.2700 O.co2     1 IMP1527     0.0000 
      4 O3P        55.4720   62.4500   54.8970 O.co2     1 IMP1527     0.0000 
      5 O5'        55.4230   61.3700   52.5570 O.3       1 IMP1527     0.0000 
      6 C5'        54.7080   60.2000   52.7560 C.3       1 IMP1527     0.0000 
      7 C4'        54.9130   59.1970   51.6510 C.3       1 IMP1527     0.0000 
      8 O4'        56.1540   58.5910   51.7390 O.3       1 IMP1527     0.0000 
      9 C3'        53.9200   58.0620   51.5580 C.3       1 IMP1527     0.0000 
     10 O3'        52.7200   58.4100   50.9630 O.3       1 IMP1527     0.0000 
     11 C2'        54.6350   57.0330   50.8210 C.3       1 IMP1527     0.0000 
     12 O2'        54.7710   57.3040   49.4410 O.3       1 IMP1527     0.0000 
     13 C1'        55.9860   57.1670   51.4070 C.3       1 IMP1527     0.0000 
     14 N9         56.3830   56.2930   52.5000 N.pl3     1 IMP1527     0.0000 
     15 C8         55.6490   55.6980   53.4720 C.2       1 IMP1527     0.0000 
     16 N7         56.4590   55.0020   54.2800 N.2       1 IMP1527     0.0000 
     17 C5         57.7110   55.0830   53.7920 C.2       1 IMP1527     0.0000 
     18 C6         59.0460   54.5980   54.2330 C.2       1 IMP1527     0.0000 
     19 O6         59.1940   53.9100   55.2150 O.2       1 IMP1527     0.0000 
     20 N1         60.1890   54.9350   53.4630 N.am      1 IMP1527     0.0000 
     21 C2         60.1190   55.7890   52.3300 C.2       1 IMP1527     0.0000 
     22 N3         58.8410   56.2770   51.9570 N.2       1 IMP1527     0.0000 
     23 C4         57.6380   55.9130   52.6730 C.2       1 IMP1527     0.0000 
     24 H          53.6103   60.3876   52.8328 H         1 IMP1527     0.0000 
     25 H          54.9843   59.6978   53.7139 H         1 IMP1527     0.0000 
     26 H          54.8541   59.7421   50.6790 H         1 IMP1527     0.0000 
     27 H          53.7855   57.6936   52.5867 H         1 IMP1527     0.0000 
     28 H          54.2680   56.0792   51.0442 H         1 IMP1527     0.0000 
     29 H          56.7148   56.9953   50.5398 H         1 IMP1527     0.0000 
     30 H          54.6826   55.7711   53.5609 H         1 IMP1527     0.0000 
     31 H          61.1087   54.5444   53.7364 H         1 IMP1527     0.0000 
     32 H          60.9410   56.0361   51.8155 H         1 IMP1527     0.0000 
     33 H          52.8654   59.3336   50.6083 H         1 IMP1527     0.0000 
     34 H          53.8739   57.6397   49.1537 H         1 IMP1527     0.0000 
@<TRIPOS>BOND
     1    2    1 ar   
     2    3    1 ar   
     3    4    1 ar   
     4    5    1 1    
     5    6    5 1    
     6    7    6 1    
     7   24    6 1    
     8   25    6 1    
     9    8    7 1    
    10    9    7 1    
    11   26    7 1    
    12   13    8 1    
    13   10    9 1    
    14   11    9 1    
    15   27    9 1    
    16   33   10 1    
    17   12   11 1    
    18   13   11 1    
    19   28   11 1    
    20   34   12 1    
    21   14   13 1    
    22   29   13 1    
    23   15   14 1    
    24   23   14 1    
    25   16   15 2    
    26   30   15 1    
    27   17   16 1    
    28   18   17 1    
    29   23   17 2    
    30   19   18 2    
    31   20   18 am   
    32   21   20 1    
    33   31   20 1    
    34   22   21 2    
    35   32   21 1    
    36   23   22 1    
@<TRIPOS>SUBSTRUCTURE
     1 IMP1527     1 GROUP   
@<TRIPOS>SET

