#    Name: 3EXO_1_CAVITY_N1_6.mol2
#    Modification time : Mon Mar 10 14:49:42 2014

@<TRIPOS>MOLECULE
3EXO_1_CAVITY_N1_6.mol2
  130     0     6     0     0
SMALL
NO_CHARGES


@<TRIPOS>ATOM
      1 N          33.6941   44.9409   -4.4329 N.2       2 ALA2        0.0000 
      2 N          34.9941   44.6473   -2.2027 N.2       2 ALA2        0.0000 
      3 CA         33.8456   45.5877   -2.4183 C.3       5 GLY6        0.0000 
      4 N          34.2403   43.5635   -2.9148 N.2       2 ALA2        0.0000 
      5 CA         33.0918   44.5039   -3.1304 C.3       5 GLY6        0.0000 
      6 N          33.4865   42.4797   -3.6270 N.2       2 ALA2        0.0000 
      7 N          35.5403   43.2699   -0.6846 N.2       2 ALA2        0.0000 
      8 CA         34.3918   44.2104   -0.9002 C.3       5 GLY6        0.0000 
      9 CA         33.2433   45.1508   -1.1158 C.3       5 GLY6        0.0000 
     10 DU         32.0948   46.0913   -1.3314 H         6 CUB7        0.0000 
     11 CZ         35.9350   41.2456   -1.1812 C.ar      4 PHE5        0.0000 
     12 N          34.7865   42.1861   -1.3968 N.2       2 ALA2        0.0000 
     13 DU         33.6380   43.1266   -1.6124 H         6 CUB7        0.0000 
     14 N          32.4895   44.0670   -1.8280 N.2       2 ALA2        0.0000 
     15 N          31.3410   45.0075   -2.0436 N.2       2 ALA2        0.0000 
     16 CZ         35.1812   40.1618   -1.8933 C.ar      4 PHE5        0.0000 
     17 N          34.0327   41.1023   -2.1089 N.2       2 ALA2        0.0000 
     18 N          32.8842   42.0428   -2.3245 N.2       2 ALA2        0.0000 
     19 CA         33.2789   40.0185   -2.8211 C.3       5 GLY6        0.0000 
     20 CA         32.1304   40.9590   -3.0367 C.3       5 GLY6        0.0000 
     21 N          33.0001   47.8220    1.3953 N.2       2 ALA2        0.0000 
     22 N          31.8516   48.7624    1.1797 N.2       2 ALA2        0.0000 
     23 CZ         35.6918   43.9168    1.3300 C.ar      4 PHE5        0.0000 
     24 CA         33.3948   45.7977    0.8988 C.3       5 GLY6        0.0000 
     25 N          32.2463   46.7382    0.6832 N.2       2 ALA2        0.0000 
     26 CZ         36.0865   41.8925    0.8334 C.ar      4 PHE5        0.0000 
     27 CZ         34.9380   42.8330    0.6178 C.ar      4 PHE5        0.0000 
     28 CA         33.7895   43.7734    0.4022 C.3       5 GLY6        0.0000 
     29 CA         32.6410   44.7139    0.1866 C.3       5 GLY6        0.0000 
     30 DU         31.4925   45.6544   -0.0290 H         6 CUB7        0.0000 
     31 DU         30.3440   46.5948   -0.2446 H         6 CUB7        0.0000 
     32 DU         29.1955   47.5353   -0.4602 H         6 CUB7        0.0000 
     33 CZ         35.3327   40.8087    0.1212 C.ar      4 PHE5        0.0000 
     34 DU         34.1842   41.7492   -0.0944 H         6 CUB7        0.0000 
     35 DU         33.0357   42.6896   -0.3100 H         6 CUB7        0.0000 
     36 N          31.8872   43.6301   -0.5256 N.2       2 ALA2        0.0000 
     37 N          30.7387   44.5706   -0.7412 N.2       2 ALA2        0.0000 
     38 N          29.5902   45.5110   -0.9568 N.2       2 ALA2        0.0000 
     39 N          28.4417   46.4515   -1.1724 N.2       2 ALA2        0.0000 
     40 CZ         34.5789   39.7249   -0.5909 C.ar      4 PHE5        0.0000 
     41 CZ         33.4304   40.6654   -0.8065 C.ar      4 PHE5        0.0000 
     42 N          32.2819   41.6058   -1.0221 N.2       2 ALA2        0.0000 
     43 N          31.1334   42.5463   -1.2377 N.2       2 ALA2        0.0000 
     44 CZ         32.6766   39.5816   -1.5187 C.ar      4 PHE5        0.0000 
     45 CA         31.5281   40.5220   -1.7343 C.3       5 GLY6        0.0000 
     46 CA         34.6948   45.5041    3.1290 C.3       5 GLY6        0.0000 
     47 N          33.5463   46.4446    2.9134 N.2       2 ALA2        0.0000 
     48 CZ         35.0895   43.4798    2.6324 C.ar      4 PHE5        0.0000 
     49 CA         33.9410   44.4203    2.4168 C.3       5 GLY6        0.0000 
     50 N          32.7925   45.3608    2.2012 N.2       2 ALA2        0.0000 
     51 N          31.6440   46.3012    1.9856 N.2       2 ALA2        0.0000 
     52 N          30.4955   47.2417    1.7700 N.2       2 ALA2        0.0000 
     53 OG         29.3470   48.1822    1.5544 O.2       1 SER1        0.0000 
     54 CA         35.4842   41.4556    2.1358 C.3       5 GLY6        0.0000 
     55 CA         34.3357   42.3960    1.9202 C.3       5 GLY6        0.0000 
     56 N          33.1872   43.3365    1.7046 N.2       2 ALA2        0.0000 
     57 DU         32.0387   44.2770    1.4890 H         6 CUB7        0.0000 
     58 DU         30.8902   45.2174    1.2734 H         6 CUB7        0.0000 
     59 OG         29.7417   46.1579    1.0578 O.2       1 SER1        0.0000 
     60 DU         28.5932   47.0984    0.8422 H         6 CUB7        0.0000 
     61 CZ         35.8789   39.4313    1.6393 C.ar      4 PHE5        0.0000 
     62 CA         34.7304   40.3718    1.4237 C.3       5 GLY6        0.0000 
     63 DU         33.5819   41.3122    1.2081 H         6 CUB7        0.0000 
     64 N          32.4334   42.2527    0.9925 N.2       2 ALA2        0.0000 
     65 DU         31.2849   43.1932    0.7769 H         6 CUB7        0.0000 
     66 N          30.1364   44.1336    0.5613 N.2       2 ALA2        0.0000 
     67 N          28.9879   45.0741    0.3457 N.2       2 ALA2        0.0000 
     68 DU         27.8394   46.0146    0.1301 H         6 CUB7        0.0000 
     69 CZ         33.9766   39.2880    0.7115 C.ar      4 PHE5        0.0000 
     70 CZ         32.8281   40.2284    0.4959 C.ar      4 PHE5        0.0000 
     71 DU         31.6796   41.1689    0.2803 H         6 CUB7        0.0000 
     72 N          30.5311   42.1094    0.0647 N.2       2 ALA2        0.0000 
     73 N          29.3826   43.0498   -0.1509 N.2       2 ALA2        0.0000 
     74 N          28.2342   43.9903   -0.3665 N.2       2 ALA2        0.0000 
     75 N          27.0857   44.9307   -0.5821 N.2       2 ALA2        0.0000 
     76 CZ         30.9258   40.0851   -0.4318 C.ar      4 PHE5        0.0000 
     77 N          29.7774   41.0256   -0.6474 N.2       2 ALA2        0.0000 
     78 N          28.6289   41.9660   -0.8630 N.2       2 ALA2        0.0000 
     79 N          27.4804   42.9065   -1.0786 N.2       2 ALA2        0.0000 
     80 CA         30.1721   39.0013   -1.1440 C.3       5 GLY6        0.0000 
     81 N          29.0236   39.9418   -1.3596 N.2       2 ALA2        0.0000 
     82 O          34.0926   45.0672    4.4314 O.2       2 ALA2        0.0000 
     83 N          32.9441   46.0076    4.2158 N.2       2 ALA2        0.0000 
     84 CA         34.4873   43.0429    3.9348 C.3       5 GLY6        0.0000 
     85 N          33.3388   43.9834    3.7192 N.2       2 ALA2        0.0000 
     86 OG         32.1903   44.9238    3.5036 O.2       1 SER1        0.0000 
     87 N          33.7335   41.9591    3.2227 N.2       2 ALA2        0.0000 
     88 N          31.4365   43.8400    2.7915 N.2       2 ALA2        0.0000 
     89 OG         30.2880   44.7805    2.5759 O.2       1 SER1        0.0000 
     90 OG         29.1395   45.7210    2.3603 O.2       1 SER1        0.0000 
     91 CA         27.9910   46.6614    2.1447 C.3       5 GLY6        0.0000 
     92 CA         34.1282   39.9349    2.7261 C.3       5 GLY6        0.0000 
     93 N          32.9797   40.8753    2.5105 N.2       2 ALA2        0.0000 
     94 N          30.6827   42.7562    2.0793 N.2       2 ALA2        0.0000 
     95 N          29.5342   43.6967    1.8637 N.2       2 ALA2        0.0000 
     96 O          28.3857   44.6372    1.6481 O.2       2 ALA2        0.0000 
     97 DU         27.2372   45.5776    1.4325 H         6 CUB7        0.0000 
     98 CZ         33.3744   38.8511    2.0140 C.ar      4 PHE5        0.0000 
     99 N          32.2259   39.7915    1.7984 N.2       2 ALA2        0.0000 
    100 N          31.0774   40.7320    1.5828 N.2       2 ALA2        0.0000 
    101 N          29.9289   41.6724    1.3672 N.2       2 ALA2        0.0000 
    102 DU         28.7804   42.6129    1.1516 H         6 CUB7        0.0000 
    103 CA         27.6319   43.5534    0.9360 C.3       5 GLY6        0.0000 
    104 CZ         31.4721   38.7077    1.0862 C.ar      4 PHE5        0.0000 
    105 DU         30.3236   39.6482    0.8706 H         6 CUB7        0.0000 
    106 DU         29.1751   40.5886    0.6550 H         6 CUB7        0.0000 
    107 DU         28.0266   41.5291    0.4394 H         6 CUB7        0.0000 
    108 CZ         30.7183   37.6239    0.3741 C.ar      4 PHE5        0.0000 
    109 CZ         29.5698   38.5644    0.1585 C.ar      4 PHE5        0.0000 
    110 DU         28.4213   39.5048   -0.0571 H         6 CUB7        0.0000 
    111 CZ         29.9645   36.5401   -0.3381 C.ar      4 PHE5        0.0000 
    112 O          26.6349   45.1407    2.7350 O.2       2 ALA2        0.0000 
    113 N          31.6236   39.3546    3.1008 N.2       2 ALA2        0.0000 
    114 N          29.3266   41.2355    2.6696 N.2       2 ALA2        0.0000 
    115 OG         28.1781   42.1760    2.4540 O.2       1 SER1        0.0000 
    116 NZ         32.0183   37.3303    2.6043 N.2       3 LYS4        0.0000 
    117 NZ         30.8698   38.2708    2.3887 N.2       3 LYS4        0.0000 
    118 OG         29.7213   39.2112    2.1731 O.2       1 SER1        0.0000 
    119 OG         28.5728   40.1517    1.9575 O.2       1 SER1        0.0000 
    120 CZ         31.2645   36.2465    1.8921 C.ar      4 PHE5        0.0000 
    121 CZ         30.1160   37.1870    1.6765 C.ar      4 PHE5        0.0000 
    122 OG         28.9675   38.1274    1.4609 O.2       1 SER1        0.0000 
    123 OG         27.8190   39.0679    1.2453 O.2       1 SER1        0.0000 
    124 CA         31.6592   34.2223    1.3956 C.3       5 GLY6        0.0000 
    125 N          30.5107   35.1627    1.1800 N.2       2 ALA2        0.0000 
    126 DU         29.3622   36.1032    0.9644 H         6 CUB7        0.0000 
    127 NZ         30.2675   37.8339    3.6911 N.2       3 LYS4        0.0000 
    128 N          30.6622   35.8096    3.1946 N.2       2 ALA2        0.0000 
    129 NZ         29.5137   36.7501    2.9790 N.2       3 LYS4        0.0000 
    130 NZ         28.3652   37.6905    2.7634 N.2       3 LYS4        0.0000 
@<TRIPOS>BOND
@<TRIPOS>SUBSTRUCTURE
     1 SER1       53 GROUP   
     2 ALA2        1 GROUP   
     3 LYS4      116 GROUP   
     4 PHE5       11 GROUP   
     5 GLY6        3 GROUP   
     6 CUB7       10 GROUP   
@<TRIPOS>SET

