#    Name: 3exo_5MS_1_INTS_M
#    Modification time : Tue Mar 25 02:46:00 2014

@<TRIPOS>MOLECULE
3exo_5MS_1_INTS_M
   36     0     6     0     0
SMALL
NO_CHARGES


@<TRIPOS>ATOM
      1 CA         35.1125   44.7530    0.9010 C.3       2 GLC5        0.0000 
      2 CA         34.4110   42.8130    1.1740 C.3       6 GLL5        0.0000 
      3 CA         35.8140   46.6930    0.6280 C.3       4 GLP5        0.0000 
      4 O          36.5450   43.1505   -1.4765 O.2       1 ALC1        0.0000 
      5 O          35.2390   43.1900   -1.0100 O.2       5 ALL1        0.0000 
      6 O          37.8510   43.1110   -1.9430 O.2       3 ALP1        0.0000 
      7 CA         36.5700   43.2090   -3.3125 C.3       2 GLC5        0.0000 
      8 CA         35.2410   44.7520   -2.7700 C.3       6 GLL5        0.0000 
      9 CA         37.8990   41.6660   -3.8550 C.3       4 GLP5        0.0000 
     10 CA         31.4590   44.6980   -3.7020 C.3       2 GLC5        0.0000 
     11 CA         32.7360   45.4720   -2.1030 C.3       6 GLL5        0.0000 
     12 CA         30.1820   43.9240   -5.3010 C.3       4 GLP5        0.0000 
     13 CA         34.2750   46.0825   -0.7375 C.3       2 GLC5        0.0000 
     14 CA         34.9135   40.3900    3.7935 C.3       2 GLC5        0.0000 
     15 CA         33.3500   39.5810    2.9430 C.3       6 GLL5        0.0000 
     16 CA         36.4770   41.1990    4.6440 C.3       4 GLP5        0.0000 
     17 CA         33.5970   38.0575    1.3255 C.3       2 GLC5        0.0000 
     18 CA         33.8440   36.5340   -0.2920 C.3       4 GLP5        0.0000 
     19 CA         32.5120   40.0510    4.7580 C.3       2 GLC5        0.0000 
     20 CA         31.6740   40.5210    6.5730 C.3       4 GLP5        0.0000 
     21 CA         34.9620   38.7070    3.0485 C.3       2 GLC5        0.0000 
     22 CA         33.8520   40.5790    1.9270 C.3       6 GLL5        0.0000 
     23 CA         36.3230   37.3340    3.6620 C.3       4 GLP5        0.0000 
     24 CA         35.3152   41.6201    3.1286 C.3       2 GLC5        0.0000 
     25 CA         35.8631   45.8205   -1.6109 C.3       2 GLC5        0.0000 
     26 CA         34.5800   44.1400   -1.6950 C.3       6 GLL5        0.0000 
     27 CA         36.9810   46.5450   -0.3560 C.3       4 GLP5        0.0000 
     28 CA         35.1075   45.1670   -6.4775 C.3       2 GLC5        0.0000 
     29 CA         35.1800   46.4710   -4.6810 C.3       6 GLL5        0.0000 
     30 CA         35.4480   43.5770   -7.7800 C.3       4 GLP5        0.0000 
     31 CA         35.5703   46.1855   -7.8965 C.3       2 GLC5        0.0000 
     32 CA         34.8770   47.7220   -6.7780 C.3       6 GLL5        0.0000 
     33 CA         35.5710   44.5910   -8.9390 C.3       4 GLP5        0.0000 
     34 CA         36.8243   45.1195   -6.2630 C.3       2 GLC5        0.0000 
     35 CA         37.1080   47.2750   -5.9660 C.3       6 GLL5        0.0000 
     36 CA         36.8100   43.3000   -7.1120 C.3       4 GLP5        0.0000 
@<TRIPOS>BOND
@<TRIPOS>SUBSTRUCTURE
     1 ALC1        4 GROUP        1 X    ALC  0     ROOT ALC X 1
     2 GLC5        1 GROUP        1 X    GLC  0     **** GLC X 6
     3 ALP1        6 GROUP        1 Y    ALP  0     ROOT ALP Y 8
     4 GLP5        3 GROUP        1 Y    GLP  0     **** GLP Y 13
     5 ALL1        5 GROUP        1 Z    ALL  0     ROOT ALL Z 15
     6 GLL5        2 GROUP        1 Z    GLL  0     **** GLL Z 20
@<TRIPOS>SET

