#    Name: 3exo_5MS_1_ligand
#    Modification time : Tue Mar 25 02:46:00 2014

@<TRIPOS>MOLECULE
3exo_5MS_1_ligand
   43    45     1     0     0
SMALL
NO_CHARGES


@<TRIPOS>ATOM
      1 C          33.8520   40.5790    1.9270 C.ar      1 5MS453      0.0000 
      2 C1         34.2310   40.0940    0.6790 C.ar      1 5MS453      0.0000 
      3 C2         34.6980   40.9550   -0.3120 C.ar      1 5MS453      0.0000 
      4 C3         34.7990   42.3260   -0.0820 C.ar      1 5MS453      0.0000 
      5 C4         34.4110   42.8130    1.1740 C.ar      1 5MS453      0.0000 
      6 C5         33.9400   41.9600    2.1780 C.ar      1 5MS453      0.0000 
      7 N          35.2390   43.1900   -1.0100 N.pl3     1 5MS453      0.0000 
      8 C6         34.5800   44.1400   -1.6950 C.ar      1 5MS453      0.0000 
      9 C7         35.2410   44.7520   -2.7700 C.ar      1 5MS453      0.0000 
     10 C8         34.5800   45.7460   -3.4990 C.ar      1 5MS453      0.0000 
     11 N9         33.3090   46.1020   -3.1600 N.ar      1 5MS453      0.0000 
     12 C10        32.7360   45.4720   -2.1030 C.ar      1 5MS453      0.0000 
     13 N11        33.3130   44.5040   -1.3570 N.ar      1 5MS453      0.0000 
     14 C12        35.1800   46.4710   -4.6810 C.ar      1 5MS453      0.0000 
     15 C13        34.3540   47.0430   -5.6690 C.ar      1 5MS453      0.0000 
     16 C14        34.8770   47.7220   -6.7780 C.ar      1 5MS453      0.0000 
     17 C15        36.2620   47.8380   -6.9300 C.ar      1 5MS453      0.0000 
     18 C16        37.1080   47.2750   -5.9660 C.ar      1 5MS453      0.0000 
     19 C17        36.5690   46.6030   -4.8620 C.ar      1 5MS453      0.0000 
     20 C18        33.3500   39.5810    2.9430 C.3       1 5MS453      0.0000 
     21 N19        33.5600   42.4250    3.3950 N.pl3     1 5MS453      0.0000 
     22 S          33.5050   44.0500    3.9350 S.o2      1 5MS453      0.0000 
     23 C20        32.2160   44.7370    3.0520 C.3       1 5MS453      0.0000 
     24 O          32.9520   43.9950    5.5330 O.2       1 5MS453      0.0000 
     25 O21        34.9330   44.8860    3.5520 O.2       1 5MS453      0.0000 
     26 H          34.1655   39.0807    0.4835 H         1 5MS453      0.0000 
     27 H          34.9738   40.5713   -1.2319 H         1 5MS453      0.0000 
     28 H          34.4751   43.8302    1.3623 H         1 5MS453      0.0000 
     29 H          36.3248   43.1068   -1.2517 H         1 5MS453      0.0000 
     30 H          36.1902   44.4749   -3.0153 H         1 5MS453      0.0000 
     31 H          31.7339   45.7713   -1.8374 H         1 5MS453      0.0000 
     32 H          33.3235   46.9569   -5.5692 H         1 5MS453      0.0000 
     33 H          34.2465   48.1306   -7.4727 H         1 5MS453      0.0000 
     34 H          36.6540   48.3279   -7.7351 H         1 5MS453      0.0000 
     35 H          38.1260   47.3553   -6.0692 H         1 5MS453      0.0000 
     36 H          37.2081   46.1908   -4.1578 H         1 5MS453      0.0000 
     37 H          33.2381   41.8135    4.1911 H         1 5MS453      0.0000 
     38 H          34.0395   38.8886    3.1555 H         1 5MS453      0.0000 
     39 H          33.1019   40.0220    3.8056 H         1 5MS453      0.0000 
     40 H          32.5382   39.0961    2.6176 H         1 5MS453      0.0000 
     41 H          32.0802   45.7006    3.2821 H         1 5MS453      0.0000 
     42 H          32.3751   44.6908    2.0658 H         1 5MS453      0.0000 
     43 H          31.3512   44.2681    3.2316 H         1 5MS453      0.0000 
@<TRIPOS>BOND
     1    2    1 ar   
     2    6    1 ar   
     3   20    1 1    
     4    3    2 ar   
     5   26    2 1    
     6    4    3 ar   
     7   27    3 1    
     8    5    4 ar   
     9    7    4 1    
    10    6    5 ar   
    11   28    5 1    
    12   21    6 1    
    13    8    7 1    
    14   29    7 1    
    15    9    8 ar   
    16   13    8 ar   
    17   10    9 ar   
    18   30    9 1    
    19   11   10 ar   
    20   14   10 1    
    21   12   11 ar   
    22   13   12 ar   
    23   31   12 1    
    24   15   14 ar   
    25   19   14 ar   
    26   16   15 ar   
    27   32   15 1    
    28   17   16 ar   
    29   33   16 1    
    30   18   17 ar   
    31   34   17 1    
    32   19   18 ar   
    33   35   18 1    
    34   36   19 1    
    35   38   20 1    
    36   39   20 1    
    37   40   20 1    
    38   22   21 1    
    39   37   21 1    
    40   23   22 1    
    41   24   22 2    
    42   25   22 2    
    43   41   23 1    
    44   42   23 1    
    45   43   23 1    
@<TRIPOS>SUBSTRUCTURE
     1 5MS453      1 GROUP   
@<TRIPOS>SET

