#    Name: 1xe5_5FE_2_INTS_M
#    Modification time : Tue Mar 25 09:48:35 2014

@<TRIPOS>MOLECULE
1xe5_5FE_2_INTS_M
  120     0     9     0     0
SMALL
NO_CHARGES


@<TRIPOS>ATOM
      1 CA         61.9775   32.1460   23.8765 C.3       3 GLC5        0.0000 
      2 CA         61.1580   32.6050   22.1310 C.3       9 GLL5        0.0000 
      3 CA         62.7970   31.6870   25.6220 C.3       6 GLP5        0.0000 
      4 CA         59.4835   35.9390   20.6445 C.3       3 GLC5        0.0000 
      5 CA         59.5930   34.1060   20.8670 C.3       9 GLL5        0.0000 
      6 CA         59.3740   37.7720   20.4220 C.3       6 GLP5        0.0000 
      7 CA         60.2640   35.1210   19.1235 C.3       3 GLC5        0.0000 
      8 CA         60.9350   36.1360   17.3800 C.3       6 GLP5        0.0000 
      9 CA         62.9145   32.7705   18.4490 C.3       3 GLC5        0.0000 
     10 CA         61.6840   33.2390   19.7610 C.3       9 GLL5        0.0000 
     11 CA         64.1450   32.3020   17.1370 C.3       6 GLP5        0.0000 
     12 CA         61.8740   34.2145   18.3555 C.3       3 GLC5        0.0000 
     13 CA         62.0640   35.1900   16.9500 C.3       6 GLP5        0.0000 
     14 O          59.6405   33.8635   24.1355 O.2       1 ALC1        0.0000 
     15 O          59.2420   32.4270   23.8110 O.2       7 ALL1        0.0000 
     16 O          60.0390   35.3000   24.4600 O.2       4 ALP1        0.0000 
     17 CA         57.0725   30.0710   23.2735 C.3       3 GLC5        0.0000 
     18 CA         57.9970   31.7990   24.1890 C.3       9 GLL5        0.0000 
     19 CA         56.1480   28.3430   22.3580 C.3       6 GLP5        0.0000 
     20 N          57.1540   35.1470   24.0955 N.am      2 SEC2        0.0000 
     21 N          56.8850   33.8030   23.5260 N.am      8 SEL2        0.0000 
     22 N          57.4230   36.4910   24.6650 N.am      5 SEP2        0.0000 
     23 CA         59.5240   29.5660   27.0005 C.3       3 GLC5        0.0000 
     24 CA         59.0920   31.6300   26.4160 C.3       9 GLL5        0.0000 
     25 CA         59.9560   27.5020   27.5850 C.3       6 GLP5        0.0000 
     26 CA         56.5270   29.4460   24.2070 C.3       3 GLC5        0.0000 
     27 CA         56.9060   30.5490   26.0560 C.3       9 GLL5        0.0000 
     28 CA         56.5480   28.4660   26.1725 C.3       3 GLC5        0.0000 
     29 CA         56.1900   26.3830   26.2890 C.3       6 GLP5        0.0000 
     30 O          56.2695   30.6460   22.3485 O.2       1 ALC1        0.0000 
     31 O          55.7940   31.8380   22.9740 O.2       7 ALL1        0.0000 
     32 O          56.7450   29.4540   21.7230 O.2       4 ALP1        0.0000 
     33 CA         55.3860   30.3945   22.3835 C.3       3 GLC5        0.0000 
     34 CA         54.6240   32.4460   22.4090 C.3       9 GLL5        0.0000 
     35 CA         54.8135   34.3140   23.4285 C.3       3 GLC5        0.0000 
     36 CA         55.0030   36.1820   24.4480 C.3       6 GLP5        0.0000 
     37 N          53.7705   29.1410   21.7035 N.am      2 SEC2        0.0000 
     38 N          53.2710   30.4800   22.5220 N.am      8 SEL2        0.0000 
     39 N          54.2700   27.8020   20.8850 N.am      5 SEP2        0.0000 
     40 CA         54.8910   31.6320   19.2210 C.3       3 GLC5        0.0000 
     41 CA         55.8830   33.2650   20.3900 C.3       9 GLL5        0.0000 
     42 CA         53.8990   29.9990   18.0520 C.3       6 GLP5        0.0000 
     43 CA         55.5495   35.0500   21.2050 C.3       3 GLC5        0.0000 
     44 CA         55.2160   36.8350   22.0200 C.3       6 GLP5        0.0000 
     45 CA         54.2980   34.9785   21.1835 C.3       3 GLC5        0.0000 
     46 CA         53.3800   33.1220   20.3470 C.3       9 GLL5        0.0000 
     47 CA         53.4810   33.4470   18.1905 C.3       3 GLC5        0.0000 
     48 CA         53.5820   33.7720   16.0340 C.3       6 GLP5        0.0000 
     49 CA         52.6235   34.5535   19.5245 C.3       3 GLC5        0.0000 
     50 CA         51.8670   35.9850   18.7020 C.3       6 GLP5        0.0000 
     51 O          53.5080   33.0555   25.0735 O.2       1 ALC1        0.0000 
     52 O          52.7530   32.0870   24.0610 O.2       7 ALL1        0.0000 
     53 O          54.2630   34.0240   26.0860 O.2       4 ALP1        0.0000 
     54 CA         54.1180   28.5020   26.1110 C.3       3 GLC5        0.0000 
     55 CA         53.3790   30.2880   25.9670 C.3       9 GLL5        0.0000 
     56 CA         54.8570   26.7160   26.2550 C.3       6 GLP5        0.0000 
     57 N          50.7370   29.0565   21.2860 N.am      2 SEC2        0.0000 
     58 N          49.9410   29.9800   22.1280 N.am      8 SEL2        0.0000 
     59 N          51.5330   28.1330   20.4440 N.am      5 SEP2        0.0000 
     60 CA         52.7575   32.5440   28.7235 C.3       3 GLC5        0.0000 
     61 CA         52.3830   32.0050   26.8010 C.3       9 GLL5        0.0000 
     62 CA         53.1320   33.0830   30.6460 C.3       6 GLP5        0.0000 
     63 CA         50.8620   32.7995   28.1570 C.3       3 GLC5        0.0000 
     64 CA         49.3410   33.5940   29.5130 C.3       6 GLP5        0.0000 
     65 CA         52.7385   33.6790   27.2275 C.3       3 GLC5        0.0000 
     66 CA         53.0940   35.3530   27.6540 C.3       6 GLP5        0.0000 
     67 N          50.7320   34.4145   24.2985 N.am      2 SEC2        0.0000 
     68 N          50.6470   33.3650   25.0900 N.am      8 SEL2        0.0000 
     69 N          50.8170   35.4640   23.5070 N.am      5 SEP2        0.0000 
     70 O          50.2440   33.8415   26.1855 O.2       1 ALC1        0.0000 
     71 O          50.6470   33.3650   25.0900 O.2       7 ALL1        0.0000 
     72 O          49.8410   34.3180   27.2810 O.2       4 ALP1        0.0000 
     73 O          49.9540   32.8105   26.3100 O.2       1 ALC1        0.0000 
     74 O          49.2610   32.2560   27.5300 O.2       4 ALP1        0.0000 
     75 O          47.2370   31.9000   23.5040 O.2       1 ALC1        0.0000 
     76 O          47.9180   30.6420   23.0920 O.2       7 ALL1        0.0000 
     77 O          46.5560   33.1580   23.9160 O.2       4 ALP1        0.0000 
     78 N          46.2800   31.2590   19.7935 N.am      2 SEC2        0.0000 
     79 N          47.0780   30.5010   20.4370 N.am      8 SEL2        0.0000 
     80 N          45.4820   32.0170   19.1500 N.am      5 SEP2        0.0000 
     81 CA         45.5490   27.9215   24.3975 C.3       3 GLC5        0.0000 
     82 CA         45.7580   29.4820   23.1850 C.3       9 GLL5        0.0000 
     83 CA         45.3400   26.3610   25.6100 C.3       6 GLP5        0.0000 
     84 CA         44.1400   30.5015   22.4980 C.3       3 GLC5        0.0000 
     85 CA         42.5220   31.5210   21.8110 C.3       6 GLP5        0.0000 
     86 O          47.3375   27.1305   21.5145 O.2       1 ALC1        0.0000 
     87 O          47.0230   28.1770   20.4570 O.2       7 ALL1        0.0000 
     88 O          47.6520   26.0840   22.5720 O.2       4 ALP1        0.0000 
     89 CA         50.2795   29.2420   18.4435 C.3       3 GLC5        0.0000 
     90 CA         49.1230   28.0410   18.4790 C.3       9 GLL5        0.0000 
     91 CA         51.4360   30.4430   18.4080 C.3       6 GLP5        0.0000 
     92 CA         47.9580   24.8040   20.1030 C.3       3 GLC5        0.0000 
     93 CA         48.3620   26.2000   19.2240 C.3       9 GLL5        0.0000 
     94 CA         47.5540   23.4080   20.9820 C.3       6 GLP5        0.0000 
     95 CA         42.4845   31.0210   20.1285 C.3       3 GLC5        0.0000 
     96 CA         42.4470   30.5210   18.4460 C.3       9 GLL5        0.0000 
     97 CA         41.0100   32.1585   18.2215 C.3       3 GLC5        0.0000 
     98 CA         39.5730   33.7960   17.9970 C.3       6 GLP5        0.0000 
     99 CA         43.2910   32.2435   18.6635 C.3       3 GLC5        0.0000 
    100 CA         44.1350   33.9660   18.8810 C.3       6 GLP5        0.0000 
    101 CA         63.1235   32.7254   20.9224 C.3       3 GLC5        0.0000 
    102 CA         64.9700   32.4420   21.2410 C.3       6 GLP5        0.0000 
    103 CA         60.0590   31.3360   26.9013 C.3       3 GLC5        0.0000 
    104 CA         61.6850   30.9880   27.7510 C.3       6 GLP5        0.0000 
    105 CA         53.3627   31.3100   19.8098 C.3       3 GLC5        0.0000 
    106 CA         54.6630   32.4960   20.8880 C.3       9 GLL5        0.0000 
    107 CA         52.7040   29.8110   19.0020 C.3       6 GLP5        0.0000 
    108 CA         50.6435   29.2688   25.7410 C.3       3 GLC5        0.0000 
    109 CA         51.3350   30.1350   26.6350 C.3       9 GLL5        0.0000 
    110 CA         49.5070   28.0120   25.1260 C.3       6 GLP5        0.0000 
    111 CA         52.0607   29.2272   27.9118 C.3       3 GLC5        0.0000 
    112 CA         52.0530   28.0860   29.4950 C.3       6 GLP5        0.0000 
    113 CA         50.3040   29.8360   24.8837 C.3       3 GLC5        0.0000 
    114 CA         51.7510   31.2680   24.6820 C.3       9 GLL5        0.0000 
    115 CA         46.4483   30.1930   24.7490 C.3       3 GLC5        0.0000 
    116 CA         47.1710   29.4960   22.6130 C.3       9 GLL5        0.0000 
    117 CA         46.4320   30.8970   26.5990 C.3       6 GLP5        0.0000 
    118 CA         47.9857   28.7505   24.0125 C.3       3 GLC5        0.0000 
    119 CA         49.4131   26.8816   20.4964 C.3       3 GLC5        0.0000 
    120 CA         50.3480   26.8390   22.1390 C.3       6 GLP5        0.0000 
@<TRIPOS>BOND
@<TRIPOS>SUBSTRUCTURE
     1 ALC1       14 GROUP        1 X    ALC  0     ROOT ALC X 1
     2 SEC2       20 GROUP        1 X    SEC  0     **** SEC X 2
     3 GLC5        1 GROUP        1 X    GLC  0     **** GLC X 6
     4 ALP1       16 GROUP        1 Y    ALP  0     ROOT ALP Y 8
     5 SEP2       22 GROUP        1 Y    SEP  0     **** SEP Y 9
     6 GLP5        3 GROUP        1 Y    GLP  0     **** GLP Y 13
     7 ALL1       15 GROUP        1 Z    ALL  0     ROOT ALL Z 15
     8 SEL2       21 GROUP        1 Z    SEL  0     **** SEL Z 16
     9 GLL5        2 GROUP        1 Z    GLL  0     **** GLL Z 20
@<TRIPOS>SET

