#    Name: 1xe5_5FE_2_ligand
#    Modification time : Tue Mar 25 09:48:35 2014

@<TRIPOS>MOLECULE
1xe5_5FE_2_ligand
   96    95     1     0     0
SMALL
NO_CHARGES


@<TRIPOS>ATOM
      1 C22        61.1580   32.6050   22.1310 C.3       1 5FE500      0.0000 
      2 C23        60.5820   32.9520   20.7620 C.3       1 5FE500      0.0000 
      3 C39        59.5930   34.1060   20.8670 C.3       1 5FE500      0.0000 
      4 C24        61.6840   33.2390   19.7610 C.3       1 5FE500      0.0000 
      5 C21        60.1550   31.7840   22.9090 C.2       1 5FE500      0.0000 
      6 O21        59.9080   30.6670   22.4990 O.2       1 5FE500      0.0000 
      7 N20        59.2420   32.4270   23.8110 N.am      1 5FE500      0.0000 
      8 C19        57.9970   31.7990   24.1890 C.3       1 5FE500      0.0000 
      9 C18        56.8910   32.5820   23.5130 C.2       1 5FE500      0.0000 
     10 O18        56.8850   33.8030   23.5260 O.2       1 5FE500      0.0000 
     11 C36        57.7740   31.7380   25.6870 C.3       1 5FE500      0.0000 
     12 C37        59.0920   31.6300   26.4160 C.3       1 5FE500      0.0000 
     13 C38        56.9060   30.5490   26.0560 C.3       1 5FE500      0.0000 
     14 N17        55.7940   31.8380   22.9740 N.am      1 5FE500      0.0000 
     15 C16        54.6240   32.4460   22.4090 C.3       1 5FE500      0.0000 
     16 C15        53.4790   31.6100   22.9310 C.2       1 5FE500      0.0000 
     17 O15        53.2710   30.4800   22.5220 O.2       1 5FE500      0.0000 
     18 C33        54.6630   32.4960   20.8880 C.3       1 5FE500      0.0000 
     19 C34        55.8830   33.2650   20.3900 C.3       1 5FE500      0.0000 
     20 C35        53.3800   33.1220   20.3470 C.3       1 5FE500      0.0000 
     21 N14        52.7530   32.0870   24.0610 N.am      1 5FE500      0.0000 
     22 C9         49.3210   30.8120   22.7900 C.2       1 5FE500      0.0000 
     23 F1         53.3790   30.2880   25.9670 F         1 5FE500      0.0000 
     24 C10        49.9710   32.1350   23.1540 C.3       1 5FE500      0.0000 
     25 F2         51.3350   30.1350   26.6350 F         1 5FE500      0.0000 
     26 O9         49.9410   29.9800   22.1280 O.2       1 5FE500      0.0000 
     27 C11        50.4510   32.0520   24.6010 C.3       1 5FE500      0.0000 
     28 F3         52.3830   32.0050   26.8010 F         1 5FE500      0.0000 
     29 O11        50.6470   33.3650   25.0900 O.3       1 5FE500      0.0000 
     30 C12        51.7510   31.2680   24.6820 C.3       1 5FE500      0.0000 
     31 C13        52.2250   30.9160   26.0770 C.3       1 5FE500      0.0000 
     32 N8         47.9180   30.6420   23.0920 N.am      1 5FE500      0.0000 
     33 C7         47.1710   29.4960   22.6130 C.3       1 5FE500      0.0000 
     34 C6         47.1440   29.4660   21.0880 C.2       1 5FE500      0.0000 
     35 O6         47.0780   30.5010   20.4370 O.2       1 5FE500      0.0000 
     36 C29        45.7580   29.4820   23.1850 C.3       1 5FE500      0.0000 
     37 N5         47.0230   28.1770   20.4570 N.am      1 5FE500      0.0000 
     38 C1         43.5950   28.8020   18.5240 C.2       1 5FE500      0.0000 
     39 F4         47.8380   26.8940   17.2500 F         1 5FE500      0.0000 
     40 O1         42.5740   29.3830   18.9670 O.3       1 5FE500      0.0000 
     41 C2         44.3010   27.8530   19.4650 C.3       1 5FE500      0.0000 
     42 F5         49.1230   28.0410   18.4790 F         1 5FE500      0.0000 
     43 O2         44.0380   28.9770   17.3630 O.2       1 5FE500      0.0000 
     44 C3         45.5240   27.1690   18.8490 C.3       1 5FE500      0.0000 
     45 F6         48.3620   26.2000   19.2240 F         1 5FE500      0.0000 
     46 O3         45.6240   25.9040   19.4840 O.3       1 5FE500      0.0000 
     47 C4         46.8210   27.9660   19.0410 C.3       1 5FE500      0.0000 
     48 C25        48.0660   27.2560   18.4880 C.3       1 5FE500      0.0000 
     49 CA         42.4470   30.5210   18.4460 C.3       1 5FE500      0.0000 
     50 H          61.3769   33.5221   22.6689 H         1 5FE500      0.0000 
     51 H          62.0734   32.0367   21.9993 H         1 5FE500      0.0000 
     52 H          60.0255   32.0689   20.4077 H         1 5FE500      0.0000 
     53 H          59.4728   33.3441   24.1942 H         1 5FE500      0.0000 
     54 H          57.9579   30.7838   23.7881 H         1 5FE500      0.0000 
     55 H          57.2739   32.6412   26.0063 H         1 5FE500      0.0000 
     56 H          55.8464   30.7991   22.9922 H         1 5FE500      0.0000 
     57 H          54.5020   33.4480   22.7996 H         1 5FE500      0.0000 
     58 H          54.7243   31.4763   20.5126 H         1 5FE500      0.0000 
     59 H          52.9434   33.0156   24.4341 H         1 5FE500      0.0000 
     60 H          49.2497   32.9327   23.0613 H         1 5FE500      0.0000 
     61 H          50.8155   32.3160   22.5065 H         1 5FE500      0.0000 
     62 H          49.6996   31.5273   25.1704 H         1 5FE500      0.0000 
     63 H          51.6359   30.3542   24.1053 H         1 5FE500      0.0000 
     64 H          47.4395   31.3456   23.6567 H         1 5FE500      0.0000 
     65 H          47.6662   28.5708   22.9458 H         1 5FE500      0.0000 
     66 H          47.0856   27.3289   21.0668 H         1 5FE500      0.0000 
     67 H          43.5937   27.0752   19.7989 H         1 5FE500      0.0000 
     68 H          44.6217   28.4024   20.3661 H         1 5FE500      0.0000 
     69 H          45.3396   27.0501   17.7919 H         1 5FE500      0.0000 
     70 H          46.7193   28.9167   18.5396 H         1 5FE500      0.0000 
     71 H          60.0243   34.9331   21.2274 H         1 5FE500      0.0000 
     72 H          59.2027   34.3428   19.9773 H         1 5FE500      0.0000 
     73 H          58.8287   33.8861   21.4732 H         1 5FE500      0.0000 
     74 H          62.2541   34.0093   20.0469 H         1 5FE500      0.0000 
     75 H          62.2912   32.4534   19.6417 H         1 5FE500      0.0000 
     76 H          61.3166   33.4652   18.8589 H         1 5FE500      0.0000 
     77 H          59.5968   30.8084   26.1510 H         1 5FE500      0.0000 
     78 H          59.6857   32.4123   26.2277 H         1 5FE500      0.0000 
     79 H          58.9659   31.5896   27.4072 H         1 5FE500      0.0000 
     80 H          57.3218   29.6841   25.7748 H         1 5FE500      0.0000 
     81 H          56.7523   30.4933   27.0426 H         1 5FE500      0.0000 
     82 H          56.0066   30.5967   25.6215 H         1 5FE500      0.0000 
     83 H          56.7373   32.8448   20.6961 H         1 5FE500      0.0000 
     84 H          55.9162   33.3024   19.3913 H         1 5FE500      0.0000 
     85 H          55.8865   34.2093   20.7189 H         1 5FE500      0.0000 
     86 H          53.2545   34.0571   20.6785 H         1 5FE500      0.0000 
     87 H          53.3793   33.1627   19.3478 H         1 5FE500      0.0000 
     88 H          52.5699   32.6031   20.6198 H         1 5FE500      0.0000 
     89 H          45.7622   29.4382   24.1840 H         1 5FE500      0.0000 
     90 H          45.2458   30.3021   22.9297 H         1 5FE500      0.0000 
     91 H          45.2333   28.6955   22.8593 H         1 5FE500      0.0000 
     92 H          43.2327   31.1082   18.6403 H         1 5FE500      0.0000 
     93 H          42.3608   30.4665   17.4512 H         1 5FE500      0.0000 
     94 H          41.6350   30.9961   18.7850 H         1 5FE500      0.0000 
     95 H          50.1560   33.3927   25.9607 H         1 5FE500      0.0000 
     96 H          45.0527   25.9789   20.3013 H         1 5FE500      0.0000 
@<TRIPOS>BOND
     1    2    1 1    
     2    5    1 1    
     3   50    1 1    
     4   51    1 1    
     5    3    2 1    
     6    4    2 1    
     7   52    2 1    
     8   71    3 1    
     9   72    3 1    
    10   73    3 1    
    11   74    4 1    
    12   75    4 1    
    13   76    4 1    
    14    6    5 2    
    15    7    5 am   
    16    8    7 1    
    17   53    7 1    
    18    9    8 1    
    19   11    8 1    
    20   54    8 1    
    21   10    9 2    
    22   14    9 am   
    23   12   11 1    
    24   13   11 1    
    25   55   11 1    
    26   77   12 1    
    27   78   12 1    
    28   79   12 1    
    29   80   13 1    
    30   81   13 1    
    31   82   13 1    
    32   15   14 1    
    33   56   14 1    
    34   16   15 1    
    35   18   15 1    
    36   57   15 1    
    37   17   16 2    
    38   21   16 am   
    39   19   18 1    
    40   20   18 1    
    41   58   18 1    
    42   83   19 1    
    43   84   19 1    
    44   85   19 1    
    45   86   20 1    
    46   87   20 1    
    47   88   20 1    
    48   30   21 1    
    49   59   21 1    
    50   24   22 1    
    51   26   22 2    
    52   32   22 am   
    53   31   23 1    
    54   27   24 1    
    55   60   24 1    
    56   61   24 1    
    57   31   25 1    
    58   29   27 1    
    59   30   27 1    
    60   62   27 1    
    61   31   28 1    
    62   95   29 1    
    63   31   30 1    
    64   63   30 1    
    65   33   32 1    
    66   64   32 1    
    67   34   33 1    
    68   36   33 1    
    69   65   33 1    
    70   35   34 2    
    71   37   34 am   
    72   89   36 1    
    73   90   36 1    
    74   91   36 1    
    75   47   37 1    
    76   66   37 1    
    77   40   38 1    
    78   41   38 1    
    79   43   38 2    
    80   48   39 1    
    81   49   40 1    
    82   44   41 1    
    83   67   41 1    
    84   68   41 1    
    85   48   42 1    
    86   46   44 1    
    87   47   44 1    
    88   69   44 1    
    89   48   45 1    
    90   96   46 1    
    91   48   47 1    
    92   70   47 1    
    93   92   49 1    
    94   93   49 1    
    95   94   49 1    
@<TRIPOS>SUBSTRUCTURE
     1 5FE500      1 GROUP   
@<TRIPOS>SET

