#    Name: 2fto_TMP_1_INTS_M
#    Modification time : Tue Mar 25 13:07:18 2014

@<TRIPOS>MOLECULE
2fto_TMP_1_INTS_M
   55     0    12     0     0
SMALL
NO_CHARGES


@<TRIPOS>ATOM
      1 NZ         39.8370  -15.3710   47.3725 N.4       3 LYC4        0.0000 
      2 NZ         40.7280  -14.3570   47.1160 N.4      11 LYL4        0.0000 
      3 NZ         39.0290  -17.5410   46.9670 N.4       7 LYP4        0.0000 
      4 N          39.8370  -15.3710   47.3725 N.am      2 SEC2        0.0000 
      5 N          40.7280  -14.3570   47.1160 N.am     10 SEL2        0.0000 
      6 N          38.9460  -16.3850   47.6290 N.am      6 SEP2        0.0000 
      7 NZ         41.3160  -11.7190   45.0285 N.4       3 LYC4        0.0000 
      8 NZ         41.8650  -13.0010   45.2890 N.4      11 LYL4        0.0000 
      9 NZ         39.8970  -10.3850   43.7530 N.4       7 LYP4        0.0000 
     10 N          41.3160  -11.7190   45.0285 N.am      2 SEC2        0.0000 
     11 N          41.8650  -13.0010   45.2890 N.am     10 SEL2        0.0000 
     12 N          40.7670  -10.4370   44.7680 N.am      6 SEP2        0.0000 
     13 N          42.9700  -12.6195   44.7730 N.am      2 SEC2        0.0000 
     14 N          44.0750  -12.2380   44.2570 N.am      6 SEP2        0.0000 
     15 NZ         39.3585  -12.4800   44.2905 N.4       3 LYC4        0.0000 
     16 NZ         39.4930  -13.4870   45.1750 N.4      11 LYL4        0.0000 
     17 N          39.3585  -12.4800   44.2905 N.am      2 SEC2        0.0000 
     18 N          39.4930  -13.4870   45.1750 N.am     10 SEL2        0.0000 
     19 N          39.2240  -11.4730   43.4060 N.am      6 SEP2        0.0000 
     20 N          40.1300  -11.9620   44.9715 N.am      2 SEC2        0.0000 
     21 N          40.4965  -16.4935   45.3795 N.am      2 SEC2        0.0000 
     22 N          41.1580  -15.3360   44.8540 N.am     10 SEL2        0.0000 
     23 N          39.8350  -17.6510   45.9050 N.am      6 SEP2        0.0000 
     24 CA         39.6595  -16.1430   42.2840 C.3       4 GLC5        0.0000 
     25 CA         41.4110  -15.4010   43.4530 C.3      12 GLL5        0.0000 
     26 CA         37.9080  -16.8850   41.1150 C.3       8 GLP5        0.0000 
     27 N          44.9890  -17.0660   44.9360 N.am      2 SEC2        0.0000 
     28 N          45.0530  -16.2170   43.8900 N.am     10 SEL2        0.0000 
     29 N          44.9250  -17.9150   45.9820 N.am      6 SEP2        0.0000 
     30 O          46.1170  -15.6410   44.3790 O.2       1 ALC1        0.0000 
     31 O          45.0530  -16.2170   43.8900 O.2       9 ALL1        0.0000 
     32 O          47.1810  -15.0650   44.8680 O.2       5 ALP1        0.0000 
     33 CA         45.9000  -13.6150   41.6430 C.3       4 GLC5        0.0000 
     34 CA         44.2670  -14.7580   42.1210 C.3      12 GLL5        0.0000 
     35 CA         47.5330  -12.4720   41.1650 C.3       8 GLP5        0.0000 
     36 N          46.6920  -14.8470   40.2930 N.am      2 SEC2        0.0000 
     37 N          45.6200  -14.8020   39.3270 N.am     10 SEL2        0.0000 
     38 N          47.7640  -14.8920   41.2590 N.am      6 SEP2        0.0000 
     39 O          44.9265  -14.1710   36.7055 O.2       1 ALC1        0.0000 
     40 O          44.0380  -14.5580   37.7540 O.2       9 ALL1        0.0000 
     41 O          45.8150  -13.7840   35.6570 O.2       5 ALP1        0.0000 
     42 N          43.3180  -13.8085   35.1635 N.am      2 SEC2        0.0000 
     43 N          42.4260  -14.3210   36.1990 N.am     10 SEL2        0.0000 
     44 N          44.2100  -13.2960   34.1280 N.am      6 SEP2        0.0000 
     45 CA         38.7420  -16.2480   37.3300 C.3       4 GLC5        0.0000 
     46 CA         40.3530  -15.4550   37.7330 C.3      12 GLL5        0.0000 
     47 CA         37.1310  -17.0410   36.9270 C.3       8 GLP5        0.0000 
     48 CA         39.1305  -16.1700   39.4240 C.3       4 GLC5        0.0000 
     49 CA         43.9535  -13.0322   43.2272 C.3       4 GLC5        0.0000 
     50 CA         43.7930  -11.0010   43.6520 C.3       8 GLP5        0.0000 
     51 CA         45.7347  -16.3165   41.4710 C.3       4 GLC5        0.0000 
     52 CA         47.3930  -17.2890   41.2800 C.3       8 GLP5        0.0000 
     53 CA         41.3169  -14.1455   38.7350 C.3       4 GLC5        0.0000 
     54 CA         41.7600  -15.3070   38.2330 C.3      12 GLL5        0.0000 
     55 CA         41.0190  -12.7610   38.7280 C.3       8 GLP5        0.0000 
@<TRIPOS>BOND
@<TRIPOS>SUBSTRUCTURE
     1 ALC1       30 GROUP        1 X    ALC  0     ROOT ALC X 1
     2 SEC2        4 GROUP        1 X    SEC  0     **** SEC X 2
     3 LYC4        1 GROUP        1 X    LYC  0     **** LYC X 4
     4 GLC5       24 GROUP        1 X    GLC  0     **** GLC X 6
     5 ALP1       32 GROUP        1 Y    ALP  0     ROOT ALP Y 8
     6 SEP2        6 GROUP        1 Y    SEP  0     **** SEP Y 9
     7 LYP4        3 GROUP        1 Y    LYP  0     **** LYP Y 11
     8 GLP5       26 GROUP        1 Y    GLP  0     **** GLP Y 13
     9 ALL1       31 GROUP        1 Z    ALL  0     ROOT ALL Z 15
    10 SEL2        5 GROUP        1 Z    SEL  0     **** SEL Z 16
    11 LYL4        2 GROUP        1 Z    LYL  0     **** LYL Z 18
    12 GLL5       25 GROUP        1 Z    GLL  0     **** GLL Z 20
@<TRIPOS>SET

