#    Name: 2fto_TMP_1_ligand
#    Modification time : Tue Mar 25 13:07:18 2014

@<TRIPOS>MOLECULE
2fto_TMP_1_ligand
   34    35     1     0     0
SMALL
NO_CHARGES


@<TRIPOS>ATOM
      1 P          40.8030  -13.9880   45.6580 P.3       1 TMP265      0.0000 
      2 O1P        40.7280  -14.3570   47.1160 O.co2     1 TMP265      0.0000 
      3 O2P        41.8650  -13.0010   45.2890 O.co2     1 TMP265      0.0000 
      4 O3P        39.4930  -13.4870   45.1750 O.co2     1 TMP265      0.0000 
      5 O5'        41.1580  -15.3360   44.8540 O.3       1 TMP265      0.0000 
      6 C5'        41.4110  -15.4010   43.4530 C.3       1 TMP265      0.0000 
      7 C4'        42.7000  -16.2020   43.2120 C.3       1 TMP265      0.0000 
      8 O4'        42.7600  -16.5720   41.8250 O.3       1 TMP265      0.0000 
      9 C3'        43.9610  -15.3690   43.4840 C.3       1 TMP265      0.0000 
     10 O3'        45.0530  -16.2170   43.8900 O.3       1 TMP265      0.0000 
     11 C2'        44.2670  -14.7580   42.1210 C.3       1 TMP265      0.0000 
     12 C1'        43.8860  -15.9300   41.2030 C.3       1 TMP265      0.0000 
     13 N1         43.4740  -15.4990   39.8770 N.am      1 TMP265      0.0000 
     14 C2         44.4260  -14.9520   38.9790 C.2       1 TMP265      0.0000 
     15 O2         45.6200  -14.8020   39.3270 O.2       1 TMP265      0.0000 
     16 N3         44.0380  -14.5580   37.7540 N.am      1 TMP265      0.0000 
     17 C4         42.7740  -14.7060   37.3370 C.2       1 TMP265      0.0000 
     18 O4         42.4260  -14.3210   36.1990 O.2       1 TMP265      0.0000 
     19 C5         41.7600  -15.3070   38.2330 C.2       1 TMP265      0.0000 
     20 C5M        40.3530  -15.4550   37.7330 C.3       1 TMP265      0.0000 
     21 C6         42.1730  -15.6790   39.5010 C.2       1 TMP265      0.0000 
     22 H          41.5520  -14.4097   43.0148 H         1 TMP265      0.0000 
     23 H          40.6046  -15.9037   42.9131 H         1 TMP265      0.0000 
     24 H          42.7106  -17.0594   43.8391 H         1 TMP265      0.0000 
     25 H          43.7297  -14.6075   44.1580 H         1 TMP265      0.0000 
     26 H          45.2913  -14.5613   42.0351 H         1 TMP265      0.0000 
     27 H          43.6323  -13.9462   41.9384 H         1 TMP265      0.0000 
     28 H          44.7138  -16.6031   41.1572 H         1 TMP265      0.0000 
     29 H          44.7482  -14.1217   37.1066 H         1 TMP265      0.0000 
     30 H          41.4901  -16.0926   40.1577 H         1 TMP265      0.0000 
     31 H          40.3079  -16.0284   36.9150 H         1 TMP265      0.0000 
     32 H          39.7576  -15.8745   38.4182 H         1 TMP265      0.0000 
     33 H          39.9488  -14.5720   37.4946 H         1 TMP265      0.0000 
     34 H          45.7912  -15.5886   44.1350 H         1 TMP265      0.0000 
@<TRIPOS>BOND
     1    2    1 ar   
     2    3    1 ar   
     3    4    1 ar   
     4    5    1 1    
     5    6    5 1    
     6    7    6 1    
     7   22    6 1    
     8   23    6 1    
     9    8    7 1    
    10    9    7 1    
    11   24    7 1    
    12   12    8 1    
    13   10    9 1    
    14   11    9 1    
    15   25    9 1    
    16   34   10 1    
    17   12   11 1    
    18   26   11 1    
    19   27   11 1    
    20   13   12 1    
    21   28   12 1    
    22   14   13 am   
    23   21   13 1    
    24   15   14 2    
    25   16   14 1    
    26   17   16 am   
    27   29   16 1    
    28   18   17 2    
    29   19   17 1    
    30   20   19 1    
    31   21   19 2    
    32   31   20 1    
    33   32   20 1    
    34   33   20 1    
    35   30   21 1    
@<TRIPOS>SUBSTRUCTURE
     1 TMP265      1 GROUP   
@<TRIPOS>SET

