#    Name: 3ig7_EFP_1_INTS_M
#    Modification time : Tue Mar 25 16:28:39 2014

@<TRIPOS>MOLECULE
3ig7_EFP_1_INTS_M
   55     0     9     0     0
SMALL
NO_CHARGES


@<TRIPOS>ATOM
      1 CA         -2.3705   32.6505    7.8210 C.3       3 GLC5        0.0000 
      2 CA         -1.4630   31.0240    8.4320 C.3       9 GLL5        0.0000 
      3 CA         -3.2780   34.2770    7.2100 C.3       6 GLP5        0.0000 
      4 CA          3.4290   31.5735    6.6275 C.3       3 GLC5        0.0000 
      5 CA          1.8520   30.1660    7.3230 C.3       9 GLL5        0.0000 
      6 CA          5.0060   32.9810    5.9320 C.3       6 GLP5        0.0000 
      7 O           3.9940   30.0115    6.4600 O.2       1 ALC1        0.0000 
      8 O           3.0190   29.4310    7.2010 O.2       7 ALL1        0.0000 
      9 O           4.9690   30.5920    5.7190 O.2       4 ALP1        0.0000 
     10 CA          5.3835   27.4475    9.5595 C.3       3 GLC5        0.0000 
     11 CA          4.7450   27.7230    7.4290 C.3       9 GLL5        0.0000 
     12 CA          6.0220   27.1720   11.6900 C.3       6 GLP5        0.0000 
     13 CA          6.3015   28.7480    4.9215 C.3       3 GLC5        0.0000 
     14 CA          5.0960   27.0780    5.0820 C.3       9 GLL5        0.0000 
     15 CA          7.5070   30.4180    4.7610 C.3       6 GLP5        0.0000 
     16 N           2.6955   32.2450    6.1860 N.am      2 SEC2        0.0000 
     17 N           1.7530   31.4700    6.8750 N.am      8 SEL2        0.0000 
     18 N           3.6380   33.0200    5.4970 N.am      5 SEP2        0.0000 
     19 CA         -0.8080   31.4375   11.5675 C.3       3 GLC5        0.0000 
     20 CA         -1.4680   30.7480    9.9510 C.3       9 GLL5        0.0000 
     21 CA         -0.1480   32.1270   13.1840 C.3       6 GLP5        0.0000 
     22 CA         -4.5570   25.2170   12.1885 C.3       3 GLC5        0.0000 
     23 CA         -4.0620   27.2620   12.0070 C.3       9 GLL5        0.0000 
     24 CA         -5.0520   23.1720   12.3700 C.3       6 GLP5        0.0000 
     25 CA         -4.1830   26.5785    9.9645 C.3       3 GLC5        0.0000 
     26 CA         -4.3040   25.8950    7.9220 C.3       6 GLP5        0.0000 
     27 CA         -5.7300   27.3305   11.6310 C.3       3 GLC5        0.0000 
     28 CA         -7.3980   27.3990   11.2550 C.3       6 GLP5        0.0000 
     29 N          -5.6020   28.9060   12.2915 N.am      2 SEC2        0.0000 
     30 N          -4.2600   29.6800   12.0900 N.am      8 SEL2        0.0000 
     31 N          -6.9440   28.1320   12.4930 N.am      5 SEP2        0.0000 
     32 CA         -2.6960   28.3530    7.1345 C.3       3 GLC5        0.0000 
     33 CA         -2.4350   29.8440    8.2320 C.3       9 GLL5        0.0000 
     34 CA         -2.9570   26.8620    6.0370 C.3       6 GLP5        0.0000 
     35 CA         -1.8480   30.6000    6.5680 C.3       3 GLC5        0.0000 
     36 CA         -1.7470   30.7660    4.8040 C.3       6 GLP5        0.0000 
     37 CA          0.4383   31.5280    9.6928 C.3       3 GLC5        0.0000 
     38 CA          2.3420   32.1700   10.1940 C.3       6 GLP5        0.0000 
     39 CA         -0.2383   30.3803    6.2363 C.3       3 GLC5        0.0000 
     40 CA          0.6890   29.8230    8.0140 C.3       9 GLL5        0.0000 
     41 CA          1.8062   31.0823    8.9313 C.3       3 GLC5        0.0000 
     42 CA          6.5982   27.8732    7.4108 C.3       3 GLC5        0.0000 
     43 CA          4.7800   26.6560    6.3800 C.3       9 GLL5        0.0000 
     44 CA          8.4340   28.5570    7.9170 C.3       6 GLP5        0.0000 
     45 CA          3.3527   26.0823    4.9802 C.3       3 GLC5        0.0000 
     46 CA          1.5970   25.5350    5.4060 C.3       6 GLP5        0.0000 
     47 CA          3.1475   25.0757    5.1583 C.3       3 GLC5        0.0000 
     48 CA          4.8450   24.8300    4.2640 C.3       9 GLL5        0.0000 
     49 CA          5.3963   23.7580    7.4850 C.3       3 GLC5        0.0000 
     50 CA          4.5510   24.4030    5.5570 C.3       9 GLL5        0.0000 
     51 CA          6.2700   22.6570    8.8750 C.3       6 GLP5        0.0000 
     52 CA          3.1126   25.8936    6.0874 C.3       3 GLC5        0.0000 
     53 CA          4.4940   25.3150    6.6330 C.3       9 GLL5        0.0000 
     54 CA         -3.6610   31.4770    8.6500 C.3       3 GLC5        0.0000 
     55 CA         -5.0230   32.8310    8.2650 C.3       6 GLP5        0.0000 
@<TRIPOS>BOND
@<TRIPOS>SUBSTRUCTURE
     1 ALC1        7 GROUP        1 X    ALC  0     ROOT ALC X 1
     2 SEC2       16 GROUP        1 X    SEC  0     **** SEC X 2
     3 GLC5        1 GROUP        1 X    GLC  0     **** GLC X 6
     4 ALP1        9 GROUP        1 Y    ALP  0     ROOT ALP Y 8
     5 SEP2       18 GROUP        1 Y    SEP  0     **** SEP Y 9
     6 GLP5        3 GROUP        1 Y    GLP  0     **** GLP Y 13
     7 ALL1        8 GROUP        1 Z    ALL  0     ROOT ALL Z 15
     8 SEL2       17 GROUP        1 Z    SEL  0     **** SEL Z 16
     9 GLL5        2 GROUP        1 Z    GLL  0     **** GLL Z 20
@<TRIPOS>SET

