#    Name: 3ig7_EFP_1_ligand
#    Modification time : Tue Mar 25 16:28:39 2014

@<TRIPOS>MOLECULE
3ig7_EFP_1_ligand
   47    49     1     0     0
SMALL
NO_CHARGES


@<TRIPOS>ATOM
      1 C1         -1.4630   31.0240    8.4320 C.3       1 EFP999      0.0000 
      2 N3         -0.1160   30.9430    7.9000 N.pl3     1 EFP999      0.0000 
      3 C4          0.6890   29.8230    8.0140 C.2       1 EFP999      0.0000 
      4 C6          1.8520   30.1660    7.3230 C.2       1 EFP999      0.0000 
      5 N7          3.0190   29.4310    7.2010 N.am      1 EFP999      0.0000 
      6 C9          3.3100   28.1670    7.6870 C.2       1 EFP999      0.0000 
      7 C10         4.7450   27.7230    7.4290 C.3       1 EFP999      0.0000 
      8 C13         4.7800   26.6560    6.3800 C.ar      1 EFP999      0.0000 
      9 C14         5.0960   27.0780    5.0820 C.ar      1 EFP999      0.0000 
     10 C16         5.1210   26.1810    4.0270 C.ar      1 EFP999      0.0000 
     11 C18         4.8450   24.8300    4.2640 C.ar      1 EFP999      0.0000 
     12 O19         4.8660   23.9010    3.2590 O.3       1 EFP999      0.0000 
     13 C20         6.1550   23.6860    2.6690 C.3       1 EFP999      0.0000 
     14 C24         4.5510   24.4030    5.5570 C.ar      1 EFP999      0.0000 
     15 C26         4.4940   25.3150    6.6330 C.ar      1 EFP999      0.0000 
     16 O28         2.5770   27.3580    8.2740 O.2       1 EFP999      0.0000 
     17 N29         1.7530   31.4700    6.8750 N.2       1 EFP999      0.0000 
     18 C30         0.5540   31.9080    7.2260 C.2       1 EFP999      0.0000 
     19 C32        -1.4680   30.7480    9.9510 C.3       1 EFP999      0.0000 
     20 C35        -2.8580   30.0560    9.7250 C.3       1 EFP999      0.0000 
     21 N37        -2.9220   28.7610   10.4620 N.am      1 EFP999      0.0000 
     22 C39        -3.7890   28.6780   11.5390 C.2       1 EFP999      0.0000 
     23 C40        -4.0620   27.2620   12.0070 C.3       1 EFP999      0.0000 
     24 O44        -4.2600   29.6800   12.0900 O.2       1 EFP999      0.0000 
     25 C45        -2.4350   29.8440    8.2320 C.3       1 EFP999      0.0000 
     26 H          -1.9945   31.9034    8.3033 H         1 EFP999      0.0000 
     27 H           0.5057   29.0287    8.4459 H         1 EFP999      0.0000 
     28 H           3.8253   29.9170    6.6418 H         1 EFP999      0.0000 
     29 H           5.1706   27.3453    8.3596 H         1 EFP999      0.0000 
     30 H           5.3285   28.5852    7.1036 H         1 EFP999      0.0000 
     31 H           5.3128   28.0757    4.9163 H         1 EFP999      0.0000 
     32 H           5.3393   26.4981    3.0776 H         1 EFP999      0.0000 
     33 H           4.3702   23.4027    5.7400 H         1 EFP999      0.0000 
     34 H           4.2507   24.9953    7.5624 H         1 EFP999      0.0000 
     35 H           0.1885   32.7976    7.0343 H         1 EFP999      0.0000 
     36 H          -1.6080   31.5984   10.4508 H         1 EFP999      0.0000 
     37 H          -0.7920   30.0504   10.1722 H         1 EFP999      0.0000 
     38 H          -3.5678   30.7123    9.7839 H         1 EFP999      0.0000 
     39 H          -2.3424   28.0124   10.1522 H         1 EFP999      0.0000 
     40 H          -1.9245   28.9905    8.1574 H         1 EFP999      0.0000 
     41 H          -3.1882   30.1193    7.6391 H         1 EFP999      0.0000 
     42 H           6.5214   24.5227    2.2620 H         1 EFP999      0.0000 
     43 H           6.8237   23.3704    3.3423 H         1 EFP999      0.0000 
     44 H           6.1216   22.9978    1.9443 H         1 EFP999      0.0000 
     45 H          -3.2244   26.7984   12.2959 H         1 EFP999      0.0000 
     46 H          -4.6909   27.2425   12.7843 H         1 EFP999      0.0000 
     47 H          -4.4714   26.7046   11.2847 H         1 EFP999      0.0000 
@<TRIPOS>BOND
     1    2    1 1    
     2   19    1 1    
     3   25    1 1    
     4   26    1 1    
     5    3    2 1    
     6   18    2 1    
     7    4    3 2    
     8   27    3 1    
     9    5    4 1    
    10   17    4 1    
    11    6    5 am   
    12   28    5 1    
    13    7    6 1    
    14   16    6 2    
    15    8    7 1    
    16   29    7 1    
    17   30    7 1    
    18    9    8 ar   
    19   15    8 ar   
    20   10    9 ar   
    21   31    9 1    
    22   11   10 ar   
    23   32   10 1    
    24   12   11 1    
    25   14   11 ar   
    26   13   12 1    
    27   42   13 1    
    28   43   13 1    
    29   44   13 1    
    30   15   14 ar   
    31   33   14 1    
    32   34   15 1    
    33   18   17 2    
    34   35   18 1    
    35   20   19 1    
    36   36   19 1    
    37   37   19 1    
    38   21   20 1    
    39   25   20 1    
    40   38   20 1    
    41   22   21 am   
    42   39   21 1    
    43   23   22 1    
    44   24   22 2    
    45   45   23 1    
    46   46   23 1    
    47   47   23 1    
    48   40   25 1    
    49   41   25 1    
@<TRIPOS>SUBSTRUCTURE
     1 EFP999      1 GROUP   
@<TRIPOS>SET

