#    Name: 4j33_FAD_2_INTS_M
#    Modification time : Tue Mar 25 05:18:47 2014

@<TRIPOS>MOLECULE
4j33_FAD_2_INTS_M
  117     0     9     0     0
SMALL
NO_CHARGES


@<TRIPOS>ATOM
      1 CA         44.7275   24.5520  -29.7725 C.3       3 GLC5        0.0000 
      2 CA         45.6580   24.7210  -31.4480 C.3       9 GLL5        0.0000 
      3 CA         43.7970   24.3830  -28.0970 C.3       6 GLP5        0.0000 
      4 CA         48.4900   24.5485  -31.7350 C.3       3 GLC5        0.0000 
      5 CA         46.7680   23.9960  -32.2050 C.3       9 GLL5        0.0000 
      6 CA         50.2120   25.1010  -31.2650 C.3       6 GLP5        0.0000 
      7 O          48.0830   23.4730  -34.5900 O.2       1 ALC1        0.0000 
      8 O          46.7970   23.4310  -34.5230 O.2       7 ALL1        0.0000 
      9 O          49.3690   23.5150  -34.6570 O.2       4 ALP1        0.0000 
     10 O          48.4150   21.1590  -34.4480 O.2       1 ALC1        0.0000 
     11 O          47.2290   20.9710  -34.0000 O.2       7 ALL1        0.0000 
     12 O          49.6010   21.3470  -34.8960 O.2       4 ALP1        0.0000 
     13 O          48.2990   22.2430  -34.3285 O.2       1 ALC1        0.0000 
     14 CA         49.0730   23.5750  -31.6145 C.3       3 GLC5        0.0000 
     15 CA         47.9340   22.0490  -31.9640 C.3       9 GLL5        0.0000 
     16 CA         47.7470   23.0595  -30.0475 C.3       3 GLC5        0.0000 
     17 CA         47.5600   24.0700  -28.1310 C.3       6 GLP5        0.0000 
     18 CA         51.4340   20.6900  -28.5755 C.3       3 GLC5        0.0000 
     19 CA         50.4290   18.9150  -29.2260 C.3       9 GLL5        0.0000 
     20 CA         52.4390   22.4650  -27.9250 C.3       6 GLP5        0.0000 
     21 CA         51.1230   16.9735  -29.6715 C.3       3 GLC5        0.0000 
     22 CA         51.8170   15.0320  -30.1170 C.3       6 GLP5        0.0000 
     23 CA         52.2280   18.9820  -28.0765 C.3       3 GLC5        0.0000 
     24 CA         54.0270   19.0490  -26.9270 C.3       6 GLP5        0.0000 
     25 CA         50.0540   18.5455  -27.0385 C.3       3 GLC5        0.0000 
     26 CA         49.6790   18.1760  -24.8510 C.3       6 GLP5        0.0000 
     27 O          51.4870   17.2250  -27.4535 O.2       1 ALC1        0.0000 
     28 O          50.3570   18.0600  -28.1950 O.2       7 ALL1        0.0000 
     29 O          52.6170   16.3900  -26.7120 O.2       4 ALP1        0.0000 
     30 N          52.8085   18.4185  -29.3810 N.am      2 SEC2        0.0000 
     31 N          51.6440   19.1890  -29.8150 N.am      8 SEL2        0.0000 
     32 N          53.9730   17.6480  -28.9470 N.am      5 SEP2        0.0000 
     33 CA         52.1010   21.2865  -29.3840 C.3       3 GLC5        0.0000 
     34 CA         51.7630   20.1080  -30.8430 C.3       9 GLL5        0.0000 
     35 CA         52.0790   20.9580  -32.4615 C.3       3 GLC5        0.0000 
     36 CA         52.3950   21.8080  -34.0800 C.3       6 GLP5        0.0000 
     37 CA         51.3625   18.6275  -32.2385 C.3       3 GLC5        0.0000 
     38 CA         50.9620   17.1470  -33.6340 C.3       6 GLP5        0.0000 
     39 CA         52.7080   18.3330  -30.9655 C.3       3 GLC5        0.0000 
     40 CA         53.6530   16.5580  -31.0880 C.3       6 GLP5        0.0000 
     41 N          51.1245   20.1385  -32.7160 N.am      2 SEC2        0.0000 
     42 N          50.6450   20.7780  -31.2780 N.am      8 SEL2        0.0000 
     43 N          51.6040   19.4990  -34.1540 N.am      5 SEP2        0.0000 
     44 N          37.1910   33.1820  -31.6110 N.am      2 SEC2        0.0000 
     45 N          36.0020   32.9900  -32.5040 N.am      8 SEL2        0.0000 
     46 N          38.3800   33.3740  -30.7180 N.am      5 SEP2        0.0000 
     47 N          37.6530   35.6905  -31.5440 N.am      2 SEC2        0.0000 
     48 N          36.4870   35.1820  -32.1940 N.am      8 SEL2        0.0000 
     49 N          38.8190   36.1990  -30.8940 N.am      5 SEP2        0.0000 
     50 O          35.0560   36.0745  -34.4230 O.2       1 ALC1        0.0000 
     51 O          34.9450   34.6980  -33.7850 O.2       7 ALL1        0.0000 
     52 O          35.1670   37.4510  -35.0610 O.2       4 ALP1        0.0000 
     53 N          33.7500   35.0515  -36.3060 N.am      2 SEC2        0.0000 
     54 N          33.3810   34.1210  -35.3290 N.am      8 SEL2        0.0000 
     55 N          34.1190   35.9820  -37.2830 N.am      5 SEP2        0.0000 
     56 CA         32.2125   25.1160  -35.7430 C.3       3 GLC5        0.0000 
     57 CA         32.2900   26.8460  -35.6250 C.3       9 GLL5        0.0000 
     58 CA         32.1350   23.3860  -35.8610 C.3       6 GLP5        0.0000 
     59 CA         30.4645   27.1475  -35.1695 C.3       3 GLC5        0.0000 
     60 CA         28.6390   27.4490  -34.7140 C.3       6 GLP5        0.0000 
     61 CA         32.8565   24.5855  -34.0940 C.3       3 GLC5        0.0000 
     62 CA         34.1950   25.9790  -33.5520 C.3       9 GLL5        0.0000 
     63 CA         31.5180   23.1920  -34.6360 C.3       6 GLP5        0.0000 
     64 CA         33.4555   24.4630  -32.1325 C.3       3 GLC5        0.0000 
     65 CA         32.7160   22.9470  -30.7130 C.3       6 GLP5        0.0000 
     66 CA         32.8860   26.2580  -32.0910 C.3       3 GLC5        0.0000 
     67 CA         31.5770   26.5370  -30.6300 C.3       6 GLP5        0.0000 
     68 CA         36.8150   31.4450  -30.2635 C.3       3 GLC5        0.0000 
     69 CA         36.4210   30.2650  -31.7990 C.3       9 GLL5        0.0000 
     70 CA         37.2090   32.6250  -28.7280 C.3       6 GLP5        0.0000 
     71 CA         37.5980   31.2855  -34.2990 C.3       3 GLC5        0.0000 
     72 CA         37.8010   30.1590  -32.4950 C.3       9 GLL5        0.0000 
     73 CA         37.3950   32.4120  -36.1030 C.3       6 GLP5        0.0000 
     74 CA         38.6085   32.0425  -32.7055 C.3       3 GLC5        0.0000 
     75 CA         39.4160   33.9260  -32.9160 C.3       6 GLP5        0.0000 
     76 N          38.4880   29.1645  -34.9015 N.am      2 SEC2        0.0000 
     77 N          37.7290   29.2870  -33.6030 N.am      8 SEL2        0.0000 
     78 N          39.2470   29.0420  -36.2000 N.am      5 SEP2        0.0000 
     79 N          37.3375   29.2625  -34.9810 N.am      2 SEC2        0.0000 
     80 N          36.9460   29.2380  -36.3590 N.am      5 SEP2        0.0000 
     81 CA         38.0290   31.1005  -30.1370 C.3       3 GLC5        0.0000 
     82 CA         38.8490   29.5760  -31.5460 C.3       9 GLL5        0.0000 
     83 O          39.1600   29.4995  -29.1705 O.2       1 ALC1        0.0000 
     84 O          38.6940   30.1730  -30.2830 O.2       7 ALL1        0.0000 
     85 O          39.6260   28.8260  -28.0580 O.2       4 ALP1        0.0000 
     86 N          39.8735   29.1940  -34.7610 N.am      2 SEC2        0.0000 
     87 N          40.5000   29.3460  -33.3220 N.am      8 SEL2        0.0000 
     88 CA         42.6990   30.7175  -30.4940 C.3       3 GLC5        0.0000 
     89 CA         41.1980   29.1580  -31.0050 C.3       9 GLL5        0.0000 
     90 CA         44.2000   32.2770  -29.9830 C.3       6 GLP5        0.0000 
     91 CA         41.1480   28.0915  -29.2225 C.3       3 GLC5        0.0000 
     92 CA         41.0980   27.0250  -27.4400 C.3       6 GLP5        0.0000 
     93 N          45.4145   30.2430  -31.8990 N.am      2 SEC2        0.0000 
     94 N          44.9520   28.8560  -31.4230 N.am      8 SEL2        0.0000 
     95 N          45.8770   31.6300  -32.3750 N.am      5 SEP2        0.0000 
     96 N          43.0220   28.9060  -27.9400 N.am      2 SEC2        0.0000 
     97 N          43.6810   28.8510  -29.2700 N.am      8 SEL2        0.0000 
     98 N          42.3630   28.9610  -26.6100 N.am      5 SEP2        0.0000 
     99 N          44.4680   28.2495  -28.2990 N.am      2 SEC2        0.0000 
    100 N          45.2550   27.6480  -27.3280 N.am      5 SEP2        0.0000 
    101 CA         46.8865   24.2142  -29.9787 C.3       3 GLC5        0.0000 
    102 CA         47.3455   19.9198  -32.6655 C.3       3 GLC5        0.0000 
    103 CA         47.3360   17.9710  -32.9100 C.3       6 GLP5        0.0000 
    104 CA         48.9630   21.5095  -28.9495 C.3       3 GLC5        0.0000 
    105 CA         49.4460   20.5180  -30.7090 C.3       9 GLL5        0.0000 
    106 CA         48.5500   22.9610  -27.7050 C.3       6 GLP5        0.0000 
    107 CA         33.3980   27.9341  -37.0619 C.3       3 GLC5        0.0000 
    108 CA         33.1290   27.8450  -34.8600 C.3       9 GLL5        0.0000 
    109 CA         34.1200   28.1880  -38.8030 C.3       6 GLP5        0.0000 
    110 CA         31.9275   27.7201  -33.3414 C.3       3 GLC5        0.0000 
    111 CA         31.1790   27.7600  -31.3620 C.3       6 GLP5        0.0000 
    112 CA         35.4370   25.7420  -34.8642 C.3       3 GLC5        0.0000 
    113 CA         34.0330   27.4350  -33.8790 C.3       9 GLL5        0.0000 
    114 CA         36.7600   24.7770  -36.0130 C.3       6 GLP5        0.0000 
    115 CA         32.8003   27.8325  -32.4477 C.3       3 GLC5        0.0000 
    116 CA         39.5577   31.8235  -31.5853 C.3       3 GLC5        0.0000 
    117 CA         39.5540   33.9390  -31.3950 C.3       6 GLP5        0.0000 
@<TRIPOS>BOND
@<TRIPOS>SUBSTRUCTURE
     1 ALC1        7 GROUP        1 X    ALC  0     ROOT ALC X 1
     2 SEC2       30 GROUP        1 X    SEC  0     **** SEC X 2
     3 GLC5        1 GROUP        1 X    GLC  0     **** GLC X 6
     4 ALP1        9 GROUP        1 Y    ALP  0     ROOT ALP Y 8
     5 SEP2       32 GROUP        1 Y    SEP  0     **** SEP Y 9
     6 GLP5        3 GROUP        1 Y    GLP  0     **** GLP Y 13
     7 ALL1        8 GROUP        1 Z    ALL  0     ROOT ALL Z 15
     8 SEL2       31 GROUP        1 Z    SEL  0     **** SEL Z 16
     9 GLL5        2 GROUP        1 Z    GLL  0     **** GLL Z 20
@<TRIPOS>SET

