#    Name: 4j33_FAD_2_ligand
#    Modification time : Tue Mar 25 05:18:47 2014

@<TRIPOS>MOLECULE
4j33_FAD_2_ligand
   84    89     1     0     0
SMALL
NO_CHARGES


@<TRIPOS>ATOM
      1 PA         43.4000   25.9000  -32.0000 P.3       1 FAD401      0.0000 
      2 O1A        42.7560   26.5160  -33.2070 O.co2     1 FAD401      0.0000 
      3 O2A        42.7290   24.6680  -31.4670 O.co2     1 FAD401      0.0000 
      4 O5B        44.9470   25.5580  -32.3370 O.3       1 FAD401      0.0000 
      5 C5B        45.6580   24.7210  -31.4480 C.3       1 FAD401      0.0000 
      6 C4B        46.7680   23.9960  -32.2050 C.3       1 FAD401      0.0000 
      7 O4B        47.5190   23.2150  -31.2920 O.3       1 FAD401      0.0000 
      8 C3B        46.2440   23.0470  -33.2830 C.3       1 FAD401      0.0000 
      9 O3B        46.7970   23.4310  -34.5230 O.3       1 FAD401      0.0000 
     10 C2B        46.7760   21.6880  -32.8780 C.3       1 FAD401      0.0000 
     11 O2B        47.2290   20.9710  -34.0000 O.3       1 FAD401      0.0000 
     12 C1B        47.9340   22.0490  -31.9640 C.3       1 FAD401      0.0000 
     13 N9A        48.2090   21.0270  -30.9580 N.pl3     1 FAD401      0.0000 
     14 C8A        47.3160   20.4410  -30.1020 C.2       1 FAD401      0.0000 
     15 N7A        47.9950   19.5660  -29.3250 N.2       1 FAD401      0.0000 
     16 C5A        49.3060   19.5980  -29.6790 C.ar      1 FAD401      0.0000 
     17 C6A        50.4290   18.9150  -29.2260 C.ar      1 FAD401      0.0000 
     18 N6A        50.3570   18.0600  -28.1950 N.pl3     1 FAD401      0.0000 
     19 N1A        51.6440   19.1890  -29.8150 N.ar      1 FAD401      0.0000 
     20 C2A        51.7630   20.1080  -30.8430 C.ar      1 FAD401      0.0000 
     21 N3A        50.6450   20.7780  -31.2780 N.ar      1 FAD401      0.0000 
     22 C4A        49.4460   20.5180  -30.7090 C.ar      1 FAD401      0.0000 
     23 N1         36.0020   32.9900  -32.5040 N.2       1 FAD401      0.0000 
     24 C2         35.8430   34.3190  -32.8070 C.2       1 FAD401      0.0000 
     25 O2         36.4870   35.1820  -32.1940 O.2       1 FAD401      0.0000 
     26 N3         34.9450   34.6980  -33.7850 N.am      1 FAD401      0.0000 
     27 C4         34.1930   33.7550  -34.4610 C.2       1 FAD401      0.0000 
     28 O4         33.3810   34.1210  -35.3290 O.2       1 FAD401      0.0000 
     29 C4X        34.3560   32.4100  -34.1450 C.2       1 FAD401      0.0000 
     30 N5         33.6150   31.4550  -34.8030 N.2       1 FAD401      0.0000 
     31 C5X        33.7780   30.1230  -34.4950 C.ar      1 FAD401      0.0000 
     32 C6         32.9950   29.1840  -35.1730 C.ar      1 FAD401      0.0000 
     33 C7         33.1290   27.8450  -34.8600 C.ar      1 FAD401      0.0000 
     34 C7M        32.2900   26.8460  -35.6250 C.3       1 FAD401      0.0000 
     35 C8         34.0330   27.4350  -33.8790 C.ar      1 FAD401      0.0000 
     36 C8M        34.1950   25.9790  -33.5520 C.3       1 FAD401      0.0000 
     37 C9         34.8100   28.3750  -33.1880 C.ar      1 FAD401      0.0000 
     38 C9A        34.6760   29.7230  -33.5080 C.ar      1 FAD401      0.0000 
     39 N10        35.4380   30.6830  -32.8540 N.pl3     1 FAD401      0.0000 
     40 C10        35.2690   32.0230  -33.1680 C.2       1 FAD401      0.0000 
     41 C1'        36.4210   30.2650  -31.7990 C.3       1 FAD401      0.0000 
     42 C2'        37.8010   30.1590  -32.4950 C.3       1 FAD401      0.0000 
     43 O2'        37.7290   29.2870  -33.6030 O.3       1 FAD401      0.0000 
     44 C3'        38.8490   29.5760  -31.5460 C.3       1 FAD401      0.0000 
     45 O3'        38.6940   30.1730  -30.2830 O.3       1 FAD401      0.0000 
     46 C4'        40.2740   29.8400  -32.0050 C.3       1 FAD401      0.0000 
     47 O4'        40.5000   29.3460  -33.3220 O.3       1 FAD401      0.0000 
     48 C5'        41.1980   29.1580  -31.0050 C.3       1 FAD401      0.0000 
     49 O5'        42.4960   29.2240  -31.5230 O.3       1 FAD401      0.0000 
     50 P          43.6770   28.4910  -30.7310 P.3       1 FAD401      0.0000 
     51 O1P        44.9520   28.8560  -31.4230 O.co2     1 FAD401      0.0000 
     52 O2P        43.6810   28.8510  -29.2700 O.co2     1 FAD401      0.0000 
     53 O3P        43.3880   26.9190  -30.7660 O.3       1 FAD401      0.0000 
     54 H          45.0135   23.9573  -30.9941 H         1 FAD401      0.0000 
     55 H          46.1279   25.2870  -30.6335 H         1 FAD401      0.0000 
     56 H          47.3995   24.7316  -32.6830 H         1 FAD401      0.0000 
     57 H          45.2002   23.0421  -33.2520 H         1 FAD401      0.0000 
     58 H          46.0396   21.1960  -32.3046 H         1 FAD401      0.0000 
     59 H          48.7940   22.2435  -32.5649 H         1 FAD401      0.0000 
     60 H          46.3760   20.6247  -30.0666 H         1 FAD401      0.0000 
     61 H          51.2100   17.6037  -27.9413 H         1 FAD401      0.0000 
     62 H          49.4569   17.9554  -27.7722 H         1 FAD401      0.0000 
     63 H          52.6789   20.2840  -31.2731 H         1 FAD401      0.0000 
     64 H          34.8325   35.7028  -34.0161 H         1 FAD401      0.0000 
     65 H          32.3340   29.4917  -35.8899 H         1 FAD401      0.0000 
     66 H          35.4601   28.0724  -32.4651 H         1 FAD401      0.0000 
     67 H          36.1622   29.3034  -31.4015 H         1 FAD401      0.0000 
     68 H          36.4825   31.0052  -31.0256 H         1 FAD401      0.0000 
     69 H          38.1165   31.1420  -32.7798 H         1 FAD401      0.0000 
     70 H          38.7012   28.5080  -31.4887 H         1 FAD401      0.0000 
     71 H          40.4506   30.9051  -31.9369 H         1 FAD401      0.0000 
     72 H          40.8478   28.1327  -30.8775 H         1 FAD401      0.0000 
     73 H          41.0982   29.6811  -30.0529 H         1 FAD401      0.0000 
     74 H          32.4811   26.8746  -36.6061 H         1 FAD401      0.0000 
     75 H          32.4592   25.9086  -35.3206 H         1 FAD401      0.0000 
     76 H          31.3116   27.0188  -35.5118 H         1 FAD401      0.0000 
     77 H          34.4902   25.4502  -34.3478 H         1 FAD401      0.0000 
     78 H          34.8758   25.8331  -32.8342 H         1 FAD401      0.0000 
     79 H          33.3393   25.5729  -33.2313 H         1 FAD401      0.0000 
     80 H          47.6807   23.8406  -34.2964 H         1 FAD401      0.0000 
     81 H          48.1647   21.2902  -34.1505 H         1 FAD401      0.0000 
     82 H          37.7559   28.3675  -33.2107 H         1 FAD401      0.0000 
     83 H          39.1258   29.5383  -29.6421 H         1 FAD401      0.0000 
     84 H          39.5874   29.1913  -33.7004 H         1 FAD401      0.0000 
@<TRIPOS>BOND
     1    2    1 ar   
     2    3    1 ar   
     3    4    1 1    
     4   53    1 1    
     5    5    4 1    
     6    6    5 1    
     7   54    5 1    
     8   55    5 1    
     9    7    6 1    
    10    8    6 1    
    11   56    6 1    
    12   12    7 1    
    13    9    8 1    
    14   10    8 1    
    15   57    8 1    
    16   80    9 1    
    17   11   10 1    
    18   12   10 1    
    19   58   10 1    
    20   81   11 1    
    21   13   12 1    
    22   59   12 1    
    23   14   13 1    
    24   22   13 1    
    25   15   14 2    
    26   60   14 1    
    27   16   15 1    
    28   17   16 ar   
    29   22   16 ar   
    30   18   17 1    
    31   19   17 ar   
    32   61   18 1    
    33   62   18 1    
    34   20   19 ar   
    35   21   20 ar   
    36   63   20 1    
    37   22   21 ar   
    38   24   23 1    
    39   40   23 2    
    40   25   24 2    
    41   26   24 am   
    42   27   26 am   
    43   64   26 1    
    44   28   27 2    
    45   29   27 1    
    46   30   29 2    
    47   40   29 1    
    48   31   30 1    
    49   32   31 ar   
    50   38   31 ar   
    51   33   32 ar   
    52   65   32 1    
    53   34   33 1    
    54   35   33 ar   
    55   74   34 1    
    56   75   34 1    
    57   76   34 1    
    58   36   35 1    
    59   37   35 ar   
    60   77   36 1    
    61   78   36 1    
    62   79   36 1    
    63   38   37 ar   
    64   66   37 1    
    65   39   38 1    
    66   40   39 1    
    67   41   39 1    
    68   42   41 1    
    69   67   41 1    
    70   68   41 1    
    71   43   42 1    
    72   44   42 1    
    73   69   42 1    
    74   82   43 1    
    75   45   44 1    
    76   46   44 1    
    77   70   44 1    
    78   83   45 1    
    79   47   46 1    
    80   48   46 1    
    81   71   46 1    
    82   84   47 1    
    83   49   48 1    
    84   72   48 1    
    85   73   48 1    
    86   50   49 1    
    87   51   50 ar   
    88   52   50 ar   
    89   53   50 1    
@<TRIPOS>SUBSTRUCTURE
     1 FAD401      1 GROUP   
@<TRIPOS>SET

