#    Name: 1pkg_ADP_1_INTS_M
#    Modification time : Mon Mar 24 21:50:30 2014

@<TRIPOS>MOLECULE
1pkg_ADP_1_INTS_M
   74     0    15     0     0
SMALL
NO_CHARGES


@<TRIPOS>ATOM
      1 NZ         22.5460   25.9065   23.9570 N.4       3 LYC4        0.0000 
      2 NZ         23.3170   27.7270   23.7830 N.4      13 LYL4        0.0000 
      3 NZ         21.7750   24.0860   24.1310 N.4       8 LYP4        0.0000 
      4 N          22.3205   27.5895   22.7680 N.am      2 SEC2        0.0000 
      5 N          23.3170   27.7270   23.7830 N.am     12 SEL2        0.0000 
      6 N          21.3240   27.4520   21.7530 N.am      7 SEP2        0.0000 
      7 N          23.4250   28.8440   24.5100 N.am      2 SEC2        0.0000 
      8 N          23.5330   29.9610   25.2370 N.am      7 SEP2        0.0000 
      9 N          23.6430   28.0655   22.2065 N.am      2 SEC2        0.0000 
     10 N          23.9690   28.4040   20.6300 N.am      7 SEP2        0.0000 
     11 NZ         22.9610   24.7850   23.6535 N.4       3 LYC4        0.0000 
     12 NZ         24.1470   25.4840   23.1760 N.4      13 LYL4        0.0000 
     13 N          22.9610   24.7850   23.6535 N.am      2 SEC2        0.0000 
     14 N          24.1470   25.4840   23.1760 N.am     12 SEL2        0.0000 
     15 N          21.7750   24.0860   24.1310 N.am      7 SEP2        0.0000 
     16 Zn         26.0850   26.7750   25.6725 Zn        4 ZIC7        0.0000 
     17 Zn         25.4970   26.9290   24.8270 Zn       14 ZIL7        0.0000 
     18 Zn         26.6730   26.6210   26.5180 Zn        9 ZIP7        0.0000 
     19 NZ         22.4980   23.8910   25.2595 N.4       3 LYC4        0.0000 
     20 NZ         23.2210   23.6960   26.3880 N.4      13 LYL4        0.0000 
     21 N          22.4980   23.8910   25.2595 N.am      2 SEC2        0.0000 
     22 N          23.2210   23.6960   26.3880 N.am     12 SEL2        0.0000 
     23 Zn         26.0210   25.8365   26.5360 Zn        4 ZIC7        0.0000 
     24 Zn         25.3690   25.0520   26.5540 Zn       14 ZIL7        0.0000 
     25 CA         22.5830   29.0710   27.3180 C.3       5 GLC5        0.0000 
     26 CA         23.3320   27.1850   27.9910 C.3      15 GLL5        0.0000 
     27 CA         21.8340   30.9570   26.6450 C.3      10 GLP5        0.0000 
     28 CA         21.4115   26.3280   27.8875 C.3       5 GLC5        0.0000 
     29 CA         19.4910   25.4710   27.7840 C.3      10 GLP5        0.0000 
     30 CA         22.3735   29.0040   29.9185 C.3       5 GLC5        0.0000 
     31 CA         23.4210   27.4740   29.4670 C.3      15 GLL5        0.0000 
     32 CA         21.3260   30.5340   30.3700 C.3      10 GLP5        0.0000 
     33 O          26.8940   26.5400   30.1520 O.2       1 ALC1        0.0000 
     34 O          25.7730   27.1300   30.1410 O.2      11 ALL1        0.0000 
     35 O          28.0150   25.9500   30.1630 O.2       6 ALP1        0.0000 
     36 O          25.0325   28.1505   33.0325 O.2       1 ALC1        0.0000 
     37 O          24.1290   27.6740   32.2880 O.2      11 ALL1        0.0000 
     38 O          25.9360   28.6270   33.7770 O.2       6 ALP1        0.0000 
     39 CA         20.5355   27.1775   32.1655 C.3       5 GLC5        0.0000 
     40 CA         22.4030   26.4260   31.2900 C.3      15 GLL5        0.0000 
     41 CA         18.6680   27.9290   33.0410 C.3      10 GLP5        0.0000 
     42 CA         21.8645   28.4800   30.8300 C.3       5 GLC5        0.0000 
     43 CA         20.5790   26.3475   30.0600 C.3       5 GLC5        0.0000 
     44 CA         18.7550   26.2690   28.8300 C.3      10 GLP5        0.0000 
     45 CA         19.6900   20.5310   31.8015 C.3       5 GLC5        0.0000 
     46 CA         20.3720   22.1890   32.6250 C.3      15 GLL5        0.0000 
     47 CA         19.0080   18.8730   30.9780 C.3      10 GLP5        0.0000 
     48 O          19.5345   19.8735   33.2285 O.2       1 ALC1        0.0000 
     49 O          20.1600   20.9370   32.2340 O.2      11 ALL1        0.0000 
     50 O          18.9090   18.8100   34.2230 O.2       6 ALP1        0.0000 
     51 N          20.0260   21.6825   35.2530 N.am      2 SEC2        0.0000 
     52 N          20.1930   22.5240   33.9580 N.am     12 SEL2        0.0000 
     53 N          19.8590   20.8410   36.5480 N.am      7 SEP2        0.0000 
     54 CA         18.9370   24.8895   34.1045 C.3       5 GLC5        0.0000 
     55 CA         20.6130   23.7600   34.4110 C.3      15 GLL5        0.0000 
     56 CA         17.2610   26.0190   33.7980 C.3      10 GLP5        0.0000 
     57 CA         18.8260   23.0800   33.2540 C.3       5 GLC5        0.0000 
     58 CA         17.0390   22.4000   32.0970 C.3      10 GLP5        0.0000 
     59 CA         21.4585   22.3570   35.5510 C.3       5 GLC5        0.0000 
     60 CA         22.3040   20.9540   36.6910 C.3      10 GLP5        0.0000 
     61 CA         21.9860   22.4685   33.4835 C.3       5 GLC5        0.0000 
     62 CA         23.3590   21.1770   32.5560 C.3      10 GLP5        0.0000 
     63 CA         22.9990   23.8340   32.5680 C.3       5 GLC5        0.0000 
     64 CA         21.3550   24.3520   32.2470 C.3      15 GLL5        0.0000 
     65 CA         24.6430   23.3160   32.8890 C.3      10 GLP5        0.0000 
     66 CA         25.8385   26.7093   32.0745 C.3       5 GLC5        0.0000 
     67 CA         23.8900   26.4910   31.5580 C.3      15 GLL5        0.0000 
     68 CA         27.5010   26.8690   33.2870 C.3      10 GLP5        0.0000 
     69 CA         23.9663   24.9019   31.9825 C.3       5 GLC5        0.0000 
     70 CA         19.6582   24.5305   30.9313 C.3       5 GLC5        0.0000 
     71 CA         18.1620   25.3270   29.8610 C.3      10 GLP5        0.0000 
     72 CA         18.8510   22.5262   32.1438 C.3       5 GLC5        0.0000 
     73 CA         20.9540   23.1160   31.7560 C.3      15 GLL5        0.0000 
     74 CA         22.0110   21.9147   32.3732 C.3       5 GLC5        0.0000 
@<TRIPOS>BOND
@<TRIPOS>SUBSTRUCTURE
     1 ALC1       33 GROUP        1 X    ALC  0     ROOT ALC X 1
     2 SEC2        4 GROUP        1 X    SEC  0     **** SEC X 2
     3 LYC4        1 GROUP        1 X    LYC  0     **** LYC X 4
     4 ZIC7       16 GROUP        1 X    ZIC  0     **** ZIC X 5
     5 GLC5       25 GROUP        1 X    GLC  0     **** GLC X 6
     6 ALP1       35 GROUP        1 Y    ALP  0     ROOT ALP Y 8
     7 SEP2        6 GROUP        1 Y    SEP  0     **** SEP Y 9
     8 LYP4        3 GROUP        1 Y    LYP  0     **** LYP Y 11
     9 ZIP7       18 GROUP        1 Y    ZIP  0     **** ZIP Y 12
    10 GLP5       27 GROUP        1 Y    GLP  0     **** GLP Y 13
    11 ALL1       34 GROUP        1 Z    ALL  0     ROOT ALL Z 15
    12 SEL2        5 GROUP        1 Z    SEL  0     **** SEL Z 16
    13 LYL4        2 GROUP        1 Z    LYL  0     **** LYL Z 18
    14 ZIL7       17 GROUP        1 Z    ZIL  0     **** ZIL Z 19
    15 GLL5       26 GROUP        1 Z    GLL  0     **** GLL Z 20
@<TRIPOS>SET

