#    Name: 1pkg_ADP_1_ligand
#    Modification time : Mon Mar 24 21:50:30 2014

@<TRIPOS>MOLECULE
1pkg_ADP_1_ligand
   39    41     1     0     0
SMALL
NO_CHARGES


@<TRIPOS>ATOM
      1 PB         24.0900   26.5680   24.2870 P.3       1 ADP1480     0.0000 
      2 O1B        23.3170   27.7270   23.7830 O.co2     1 ADP1480     0.0000 
      3 O2B        24.1470   25.4840   23.1760 O.co2     1 ADP1480     0.0000 
      4 O3B        25.4970   26.9290   24.8270 O.co2     1 ADP1480     0.0000 
      5 PA         23.8150   25.0470   26.6150 P.3       1 ADP1480     0.0000 
      6 O1A        23.2210   23.6960   26.3880 O.co2     1 ADP1480     0.0000 
      7 O2A        25.3690   25.0520   26.5540 O.co2     1 ADP1480     0.0000 
      8 O3A        23.2150   26.0060   25.4880 O.3       1 ADP1480     0.0000 
      9 O5'        23.2230   25.7900   27.9130 O.3       1 ADP1480     0.0000 
     10 C5'        23.3320   27.1850   27.9910 C.3       1 ADP1480     0.0000 
     11 C4'        23.4210   27.4740   29.4670 C.3       1 ADP1480     0.0000 
     12 O4'        22.1960   27.0950   30.0620 O.3       1 ADP1480     0.0000 
     13 C3'        24.4620   26.6080   30.1660 C.3       1 ADP1480     0.0000 
     14 O3'        25.7730   27.1300   30.1410 O.3       1 ADP1480     0.0000 
     15 C2'        23.8900   26.4910   31.5580 C.3       1 ADP1480     0.0000 
     16 O2'        24.1290   27.6740   32.2880 O.3       1 ADP1480     0.0000 
     17 C1'        22.4030   26.4260   31.2900 C.3       1 ADP1480     0.0000 
     18 N9         21.8800   25.0530   31.2060 N.pl3     1 ADP1480     0.0000 
     19 C8         21.7930   24.2640   30.0890 C.2       1 ADP1480     0.0000 
     20 N7         21.2390   23.0790   30.4330 N.2       1 ADP1480     0.0000 
     21 C5         20.9540   23.1160   31.7560 C.ar      1 ADP1480     0.0000 
     22 C6         20.3720   22.1890   32.6250 C.ar      1 ADP1480     0.0000 
     23 N6         20.1600   20.9370   32.2340 N.pl3     1 ADP1480     0.0000 
     24 N1         20.1930   22.5240   33.9580 N.ar      1 ADP1480     0.0000 
     25 C2         20.6130   23.7600   34.4110 C.ar      1 ADP1480     0.0000 
     26 N3         21.1990   24.6650   33.5480 N.ar      1 ADP1480     0.0000 
     27 C4         21.3550   24.3520   32.2470 C.ar      1 ADP1480     0.0000 
     28 H          22.4630   27.6930   27.5973 H         1 ADP1480     0.0000 
     29 H          24.2282   27.5596   27.5170 H         1 ADP1480     0.0000 
     30 H          23.6413   28.4910   29.6390 H         1 ADP1480     0.0000 
     31 H          24.3863   25.6169   29.7174 H         1 ADP1480     0.0000 
     32 H          24.2001   25.6166   32.0056 H         1 ADP1480     0.0000 
     33 H          21.9009   26.9647   32.0903 H         1 ADP1480     0.0000 
     34 H          22.0824   24.5210   29.2063 H         1 ADP1480     0.0000 
     35 H          20.4008   20.7251   31.2868 H         1 ADP1480     0.0000 
     36 H          19.7788   20.3197   32.9222 H         1 ADP1480     0.0000 
     37 H          20.4868   24.0101   35.4085 H         1 ADP1480     0.0000 
     38 H          26.3708   26.3284   30.1512 H         1 ADP1480     0.0000 
     39 H          24.9387   27.4776   32.8411 H         1 ADP1480     0.0000 
@<TRIPOS>BOND
     1    2    1 ar   
     2    3    1 ar   
     3    4    1 ar   
     4    8    1 1    
     5    6    5 ar   
     6    7    5 ar   
     7    8    5 1    
     8    9    5 1    
     9   10    9 1    
    10   11   10 1    
    11   28   10 1    
    12   29   10 1    
    13   12   11 1    
    14   13   11 1    
    15   30   11 1    
    16   17   12 1    
    17   14   13 1    
    18   15   13 1    
    19   31   13 1    
    20   38   14 1    
    21   16   15 1    
    22   17   15 1    
    23   32   15 1    
    24   39   16 1    
    25   18   17 1    
    26   33   17 1    
    27   19   18 1    
    28   27   18 1    
    29   20   19 2    
    30   34   19 1    
    31   21   20 1    
    32   22   21 ar   
    33   27   21 ar   
    34   23   22 1    
    35   24   22 ar   
    36   35   23 1    
    37   36   23 1    
    38   25   24 ar   
    39   26   25 ar   
    40   37   25 1    
    41   27   26 ar   
@<TRIPOS>SUBSTRUCTURE
     1 ADP1480     1 GROUP   
@<TRIPOS>SET

