#    Name: 3ncz_3NC_2_INTS_M
#    Modification time : Tue Mar 25 01:17:30 2014

@<TRIPOS>MOLECULE
3ncz_3NC_2_INTS_M
   59     0     9     0     0
SMALL
NO_CHARGES


@<TRIPOS>ATOM
      1 CA        -26.2890  -20.2345  -17.6015 C.3       3 GLC5        0.0000 
      2 CA        -28.0360  -21.3030  -17.4160 C.3       9 GLL5        0.0000 
      3 CA        -24.5420  -19.1660  -17.7870 C.3       6 GLP5        0.0000 
      4 CA        -28.8260  -23.6445  -16.4810 C.3       3 GLC5        0.0000 
      5 CA        -27.4290  -22.6730  -17.6900 C.3       9 GLL5        0.0000 
      6 CA        -30.2230  -24.6160  -15.2720 C.3       6 GLP5        0.0000 
      7 CA        -25.6270  -20.8665  -18.4050 C.3       3 GLC5        0.0000 
      8 CA        -26.7120  -22.5670  -19.0230 C.3       9 GLL5        0.0000 
      9 CA        -27.3205  -22.7255  -22.1380 C.3       3 GLC5        0.0000 
     10 CA        -27.7880  -22.3970  -20.0860 C.3       9 GLL5        0.0000 
     11 CA        -26.8530  -23.0540  -24.1900 C.3       6 GLP5        0.0000 
     12 CA        -32.9160  -13.7850  -17.4235 C.3       3 GLC5        0.0000 
     13 CA        -31.7070  -15.0240  -18.7440 C.3       9 GLL5        0.0000 
     14 CA        -34.1250  -12.5460  -16.1030 C.3       6 GLP5        0.0000 
     15 CA        -28.2095  -12.7420  -18.4435 C.3       3 GLC5        0.0000 
     16 CA        -29.6110  -14.2970  -17.6400 C.3       9 GLL5        0.0000 
     17 CA        -26.8080  -11.1870  -19.2470 C.3       6 GLP5        0.0000 
     18 CA        -32.1125  -12.7985  -16.8375 C.3       3 GLC5        0.0000 
     19 CA        -30.1000  -13.0510  -17.5720 C.3       9 GLL5        0.0000 
     20 CA        -28.6310  -11.8340  -17.1935 C.3       3 GLC5        0.0000 
     21 CA        -27.1620  -10.6170  -16.8150 C.3       6 GLP5        0.0000 
     22 O         -31.1480  -11.0445  -17.9480 O.2       1 ALC1        0.0000 
     23 O         -31.3340  -12.7330  -18.0540 O.2       7 ALL1        0.0000 
     24 O         -30.9620   -9.3560  -17.8420 O.2       4 ALP1        0.0000 
     25 CA        -29.7130  -15.7555  -16.4235 C.3       3 GLC5        0.0000 
     26 CA        -29.9870  -16.6850  -18.3510 C.3       9 GLL5        0.0000 
     27 CA        -29.4390  -14.8260  -14.4960 C.3       6 GLP5        0.0000 
     28 CA        -34.7540  -17.7520  -19.5380 C.3       3 GLC5        0.0000 
     29 CA        -33.0370  -18.5310  -20.1300 C.3       9 GLL5        0.0000 
     30 CA        -36.4710  -16.9730  -18.9460 C.3       6 GLP5        0.0000 
     31 CA        -34.1095  -19.9100  -19.3740 C.3       3 GLC5        0.0000 
     32 CA        -35.1820  -21.2890  -18.6180 C.3       6 GLP5        0.0000 
     33 CA        -33.4500  -17.9250  -18.1015 C.3       3 GLC5        0.0000 
     34 CA        -33.8630  -17.3190  -16.0730 C.3       6 GLP5        0.0000 
     35 CA        -33.9935  -17.3365  -21.6290 C.3       3 GLC5        0.0000 
     36 CA        -34.9500  -16.1420  -23.1280 C.3       6 GLP5        0.0000 
     37 OD1       -25.5180  -21.0775  -17.5580 O.co2     2 ASC3        0.0000 
     38 OD1       -25.8980  -21.3540  -18.9550 O.co2     8 ASL3        0.0000 
     39 OD1       -25.1380  -20.8010  -16.1610 O.co2     5 ASP3        0.0000 
     40 O         -25.1430  -20.9330  -19.7780 O.2       1 ALC1        0.0000 
     41 O         -25.8980  -21.3540  -18.9550 O.2       7 ALL1        0.0000 
     42 O         -24.3880  -20.5120  -20.6010 O.2       4 ALP1        0.0000 
     43 O         -25.5180  -21.0775  -17.5580 O.2       1 ALC1        0.0000 
     44 O         -25.1380  -20.8010  -16.1610 O.2       4 ALP1        0.0000 
     45 CA        -32.9868  -16.4162  -17.5540 C.3       3 GLC5        0.0000 
     46 CA        -32.5140  -16.0030  -19.3260 C.3       9 GLL5        0.0000 
     47 CA        -30.2219  -14.7583  -20.0204 C.3       3 GLC5        0.0000 
     48 CA        -30.1050  -14.7720  -21.9730 C.3       6 GLP5        0.0000 
     49 CA        -29.7491  -14.3829  -16.1269 C.3       3 GLC5        0.0000 
     50 CA        -30.4260  -15.3600  -18.2470 C.3       9 GLL5        0.0000 
     51 CA        -31.1960  -15.7095  -20.6710 C.3       3 GLC5        0.0000 
     52 CA        -34.0351  -16.0106  -19.2972 C.3       3 GLC5        0.0000 
     53 CA        -35.9850  -15.6190  -19.3710 C.3       6 GLP5        0.0000 
     54 CA        -32.6487  -17.3953  -17.6200 C.3       3 GLC5        0.0000 
     55 CA        -32.0600  -17.2910  -19.4120 C.3       9 GLL5        0.0000 
     56 CA        -30.2515  -15.9703  -20.3047 C.3       3 GLC5        0.0000 
     57 CA        -30.8090  -17.6520  -18.9220 C.3       9 GLL5        0.0000 
     58 CA        -28.4444  -15.4944  -19.2306 C.3       3 GLC5        0.0000 
     59 CA        -26.8860  -15.2320  -20.3140 C.3       6 GLP5        0.0000 
@<TRIPOS>BOND
@<TRIPOS>SUBSTRUCTURE
     1 ALC1       22 GROUP        1 X    ALC  0     ROOT ALC X 1
     2 ASC3       37 GROUP        1 X    ASC  0     **** ASC X 3
     3 GLC5        1 GROUP        1 X    GLC  0     **** GLC X 6
     4 ALP1       24 GROUP        1 Y    ALP  0     ROOT ALP Y 8
     5 ASP3       39 GROUP        1 Y    ASP  0     **** ASP Y 10
     6 GLP5        3 GROUP        1 Y    GLP  0     **** GLP Y 13
     7 ALL1       23 GROUP        1 Z    ALL  0     ROOT ALL Z 15
     8 ASL3       38 GROUP        1 Z    ASL  0     **** ASL Z 17
     9 GLL5        2 GROUP        1 Z    GLL  0     **** GLL Z 20
@<TRIPOS>SET

