#    Name: 3ncz_3NC_2_ligand
#    Modification time : Tue Mar 25 01:17:30 2014

@<TRIPOS>MOLECULE
3ncz_3NC_2_ligand
   41    43     1     0     0
SMALL
NO_CHARGES


@<TRIPOS>ATOM
      1 C1        -29.1030  -20.9870  -18.4580 C.3       1 3NC900      0.0000 
      2 C2        -28.0360  -21.3030  -17.4160 C.3       1 3NC900      0.0000 
      3 C3        -27.4290  -22.6730  -17.6900 C.3       1 3NC900      0.0000 
      4 C4        -26.7120  -22.5670  -19.0230 C.3       1 3NC900      0.0000 
      5 C5        -27.7880  -22.3970  -20.0860 C.3       1 3NC900      0.0000 
      6 C6        -28.5060  -21.0670  -19.8610 C.3       1 3NC900      0.0000 
      7 C7        -31.7070  -15.0240  -18.7440 C.ar      1 3NC900      0.0000 
      8 C8        -30.4260  -15.3600  -18.2470 C.ar      1 3NC900      0.0000 
      9 C9        -29.6110  -14.2970  -17.6400 C.2       1 3NC900      0.0000 
     10 C10       -30.1000  -13.0510  -17.5720 C.2       1 3NC900      0.0000 
     11 N11       -31.3340  -12.7330  -18.0540 N.am      1 3NC900      0.0000 
     12 C12       -32.1440  -13.6390  -18.6250 C.2       1 3NC900      0.0000 
     13 C13       -32.5140  -16.0030  -19.3260 C.ar      1 3NC900      0.0000 
     14 C14       -32.0600  -17.2910  -19.4120 C.ar      1 3NC900      0.0000 
     15 C15       -30.8090  -17.6520  -18.9220 C.ar      1 3NC900      0.0000 
     16 C16       -29.9870  -16.6850  -18.3510 C.ar      1 3NC900      0.0000 
     17 O17       -33.2380  -13.3130  -19.0410 O.2       1 3NC900      0.0000 
     18 CL18      -33.0370  -18.5310  -20.1300 Cl        1 3NC900      0.0000 
     19 N19       -30.4010  -18.9860  -19.0600 N.am      1 3NC900      0.0000 
     20 C20       -29.5220  -19.5670  -18.2240 C.2       1 3NC900      0.0000 
     21 O21       -29.0480  -18.9590  -17.2870 O.2       1 3NC900      0.0000 
     22 N22       -25.8980  -21.3540  -18.9550 N.4       1 3NC900      0.0000 
     23 H         -29.9147  -21.6336  -18.3617 H         1 3NC900      0.0000 
     24 H         -28.4860  -21.2990  -16.4274 H         1 3NC900      0.0000 
     25 H         -27.2564  -20.5479  -17.4588 H         1 3NC900      0.0000 
     26 H         -28.2094  -23.4058  -17.7539 H         1 3NC900      0.0000 
     27 H         -26.7262  -22.9160  -16.9172 H         1 3NC900      0.0000 
     28 H         -26.1511  -23.4209  -19.1967 H         1 3NC900      0.0000 
     29 H         -28.5020  -23.2065  -20.0118 H         1 3NC900      0.0000 
     30 H         -27.3316  -22.3961  -21.0669 H         1 3NC900      0.0000 
     31 H         -27.7966  -20.2491  -19.9970 H         1 3NC900      0.0000 
     32 H         -29.3039  -20.9612  -20.5978 H         1 3NC900      0.0000 
     33 H         -28.6900  -14.5650  -17.2911 H         1 3NC900      0.0000 
     34 H         -29.5195  -12.2869  -17.1339 H         1 3NC900      0.0000 
     35 H         -31.6598  -11.7287  -17.9711 H         1 3NC900      0.0000 
     36 H         -33.4430  -15.7451  -19.6846 H         1 3NC900      0.0000 
     37 H         -29.0540  -16.9410  -18.0035 H         1 3NC900      0.0000 
     38 H         -30.8131  -19.5355  -19.8582 H         1 3NC900      0.0000 
     39 H         -25.6017  -21.1575  -18.0203 H         1 3NC900      0.0000 
     40 H         -25.0726  -21.4288  -19.5145 H         1 3NC900      0.0000 
     41 H         -26.3996  -20.5516  -19.2783 H         1 3NC900      0.0000 
@<TRIPOS>BOND
     1    2    1 1    
     2    6    1 1    
     3   20    1 1    
     4   23    1 1    
     5    3    2 1    
     6   24    2 1    
     7   25    2 1    
     8    4    3 1    
     9   26    3 1    
    10   27    3 1    
    11    5    4 1    
    12   22    4 1    
    13   28    4 1    
    14    6    5 1    
    15   29    5 1    
    16   30    5 1    
    17   31    6 1    
    18   32    6 1    
    19    8    7 ar   
    20   12    7 1    
    21   13    7 ar   
    22    9    8 1    
    23   16    8 ar   
    24   10    9 2    
    25   33    9 1    
    26   11   10 1    
    27   34   10 1    
    28   12   11 am   
    29   35   11 1    
    30   17   12 2    
    31   14   13 ar   
    32   36   13 1    
    33   15   14 ar   
    34   18   14 1    
    35   16   15 ar   
    36   19   15 1    
    37   37   16 1    
    38   20   19 am   
    39   38   19 1    
    40   21   20 2    
    41   39   22 1    
    42   40   22 1    
    43   41   22 1    
@<TRIPOS>SUBSTRUCTURE
     1 3NC900      1 GROUP   
@<TRIPOS>SET

