#    Name: 3BC1_2_CAVITY_N1_6.mol2
#    Modification time : Tue Mar 11 11:07:33 2014

@<TRIPOS>MOLECULE
3BC1_2_CAVITY_N1_6.mol2
   59     0     6     0     0
SMALL
NO_CHARGES


@<TRIPOS>ATOM
      1 CA         15.6954   -2.1502    1.8183 C.3       5 GLY6        0.0000 
      2 O          17.7028   -8.4777    0.8522 O.2       2 ALA2        0.0000 
      3 CZ         13.6937  -13.6330    2.9970 C.ar      4 PHE5        0.0000 
      4 CA         14.1925   -4.8661    7.1676 C.3       5 GLY6        0.0000 
      5 CA         14.9031   -6.1244    7.5696 C.3       5 GLY6        0.0000 
      6 CA         13.0641   -4.2550    5.4784 C.3       5 GLY6        0.0000 
      7 N          13.7748   -5.5133    5.8804 N.2       2 ALA2        0.0000 
      8 N          14.4855   -6.7716    6.2825 N.2       2 ALA2        0.0000 
      9 N          15.1962   -8.0299    6.6845 N.2       2 ALA2        0.0000 
     10 N          13.3572   -6.1605    4.5933 N.2       2 ALA2        0.0000 
     11 N          14.0678   -7.4187    4.9953 N.2       2 ALA2        0.0000 
     12 N          14.7785   -8.6770    5.3974 N.2       2 ALA2        0.0000 
     13 OG         15.4892   -9.9353    5.7994 O.2       1 SER1        0.0000 
     14 OG         16.1998  -11.1936    6.2015 O.2       1 SER1        0.0000 
     15 O          13.6502   -8.0659    3.7082 O.2       2 ALA2        0.0000 
     16 CZ         14.3608   -9.3242    4.1102 C.ar      4 PHE5        0.0000 
     17 CZ         15.0715  -10.5825    4.5123 C.ar      4 PHE5        0.0000 
     18 DU         15.7822  -11.8408    4.9143 H         6 CUB7        0.0000 
     19 OD1        16.4928  -13.0991    5.3164 O.3       3 ASP3        0.0000 
     20 CZ         14.6538  -11.2296    3.2251 C.ar      4 PHE5        0.0000 
     21 N          15.3645  -12.4879    3.6272 N.2       2 ALA2        0.0000 
     22 N          14.9469  -13.1351    2.3400 N.2       2 ALA2        0.0000 
     23 CA         15.4457   -4.3683    6.5106 C.3       5 GLY6        0.0000 
     24 OG         16.1563   -5.6266    6.9127 O.2       1 SER1        0.0000 
     25 CA         14.3173   -3.7571    4.8214 C.3       5 GLY6        0.0000 
     26 CA         15.0280   -5.0154    5.2235 C.3       5 GLY6        0.0000 
     27 OG         15.7387   -6.2737    5.6255 O.2       1 SER1        0.0000 
     28 N          13.1890   -3.1460    3.1322 N.2       2 ALA2        0.0000 
     29 N          13.8997   -4.4043    3.5343 N.2       2 ALA2        0.0000 
     30 N          14.6104   -5.6626    3.9363 N.2       2 ALA2        0.0000 
     31 CA         15.3210   -6.9209    4.3384 C.3       5 GLY6        0.0000 
     32 N          14.9034   -7.5680    3.0512 N.2       2 ALA2        0.0000 
     33 OG         15.6140   -8.8263    3.4533 O.2       1 SER1        0.0000 
     34 OG         16.3247  -10.0846    3.8553 O.2       1 SER1        0.0000 
     35 CA         17.0354  -11.3429    4.2573 C.3       5 GLY6        0.0000 
     36 CZ         14.4857   -8.2152    1.7641 C.ar      4 PHE5        0.0000 
     37 CZ         15.1964   -9.4735    2.1661 C.ar      4 PHE5        0.0000 
     38 N          15.9070  -10.7318    2.5682 N.2       2 ALA2        0.0000 
     39 N          16.6177  -11.9901    2.9702 N.2       2 ALA2        0.0000 
     40 CA         16.1566   -7.0701    2.3942 C.3       5 GLY6        0.0000 
     41 CA         16.8672   -8.3284    2.7963 C.3       5 GLY6        0.0000 
     42 CA         17.5779   -9.5867    3.1983 C.3       5 GLY6        0.0000 
     43 OD1        16.4496   -8.9756    1.5091 O.3       3 ASP3        0.0000 
     44 O          17.1602  -10.2339    1.9112 O.2       2 ALA2        0.0000 
     45 OD1        15.3212   -8.3644   -0.1801 O.3       3 ASP3        0.0000 
     46 O          16.0319   -9.6227    0.2220 O.2       2 ALA2        0.0000 
     47 N          14.4041  -13.4477    7.9174 N.2       2 ALA2        0.0000 
     48 CA         12.5651  -11.5783    5.8262 C.3       5 GLY6        0.0000 
     49 N          13.2758  -12.8365    6.2282 N.2       2 ALA2        0.0000 
     50 N          13.9864  -14.0948    6.6303 N.2       2 ALA2        0.0000 
     51 N          12.5216   -6.0112    6.5374 N.2       2 ALA2        0.0000 
     52 N          14.2360  -10.4332    6.4564 N.2       2 ALA2        0.0000 
     53 N          14.9466  -11.6915    6.8584 N.2       2 ALA2        0.0000 
     54 CZ         15.6573  -12.9498    7.2605 C.ar      4 PHE5        0.0000 
     55 CA         13.8183  -11.0804    5.1692 C.3       5 GLY6        0.0000 
     56 DU         14.5290  -12.3387    5.5713 H         6 CUB7        0.0000 
     57 OD1        15.2396  -13.5970    5.9733 O.3       3 ASP3        0.0000 
     58 CZ         14.1113  -12.9858    4.2841 C.ar      4 PHE5        0.0000 
     59 OD1        14.8220  -14.2441    4.6862 O.3       3 ASP3        0.0000 
@<TRIPOS>BOND
@<TRIPOS>SUBSTRUCTURE
     1 SER1       13 GROUP   
     2 ALA2        2 GROUP   
     3 ASP3       19 GROUP   
     4 PHE5        3 GROUP   
     5 GLY6        1 GROUP   
     6 CUB7       18 GROUP   
@<TRIPOS>SET

