#    Name: 3bc1_GNP_2_INTS_M
#    Modification time : Mon Mar 24 19:16:28 2014

@<TRIPOS>MOLECULE
3bc1_GNP_2_INTS_M
   81     0    15     0     0
SMALL
NO_CHARGES


@<TRIPOS>ATOM
      1 NZ         17.7680   -9.0025   -3.1970 N.4       3 LYC4        0.0000 
      2 NZ         16.4620   -8.5380   -3.1770 N.4      13 LYL4        0.0000 
      3 NZ         19.0740   -9.4670   -3.2170 N.4       8 LYP4        0.0000 
      4 N          17.7680   -9.0025   -3.1970 N.am      2 SEC2        0.0000 
      5 N          16.4620   -8.5380   -3.1770 N.am     12 SEL2        0.0000 
      6 N          19.0740   -9.4670   -3.2170 N.am      7 SEP2        0.0000 
      7 N          16.5345   -8.3335   -4.6285 N.am      2 SEC2        0.0000 
      8 N          16.6070   -8.1290   -6.0800 N.am      7 SEP2        0.0000 
      9 N          13.8335  -10.2645   -3.0295 N.am      2 SEC2        0.0000 
     10 N          14.0930   -9.0740   -2.4480 N.am     12 SEL2        0.0000 
     11 N          13.5740  -11.4550   -3.6110 N.am      7 SEP2        0.0000 
     12 N          12.8925   -8.5690   -2.4650 N.am      2 SEC2        0.0000 
     13 N          11.6920   -8.0640   -2.4820 N.am      7 SEP2        0.0000 
     14 Zn         15.8490   -6.5110   -0.9960 Zn        4 ZIC7        0.0000 
     15 Zn         15.2710   -7.0170   -1.6820 Zn       14 ZIL7        0.0000 
     16 Zn         16.4270   -6.0050   -0.3100 Zn        9 ZIP7        0.0000 
     17 N          14.1300   -6.1575   -1.5605 N.am      2 SEC2        0.0000 
     18 N          15.2710   -7.0170   -1.6820 N.am     12 SEL2        0.0000 
     19 N          12.9890   -5.2980   -1.4390 N.am      7 SEP2        0.0000 
     20 NZ         18.7345   -9.6510   -1.8140 N.4       3 LYC4        0.0000 
     21 NZ         18.3950   -9.8350   -0.4110 N.4      13 LYL4        0.0000 
     22 N          19.0040  -10.7485    0.5435 N.am      2 SEC2        0.0000 
     23 N          18.3950   -9.8350   -0.4110 N.am     12 SEL2        0.0000 
     24 N          19.6130  -11.6620    1.4980 N.am      7 SEP2        0.0000 
     25 N          19.5060   -9.4170    0.3900 N.am      2 SEC2        0.0000 
     26 N          20.6170   -8.9990    1.1910 N.am      7 SEP2        0.0000 
     27 N          18.7345   -9.6510   -1.8140 N.am      2 SEC2        0.0000 
     28 Zn         16.8980   -6.8355    0.0175 Zn        4 ZIC7        0.0000 
     29 Zn         17.3690   -7.6660    0.3450 Zn       14 ZIL7        0.0000 
     30 N          18.5560   -6.9945    1.0960 N.am      2 SEC2        0.0000 
     31 N          17.3690   -7.6660    0.3450 N.am     12 SEL2        0.0000 
     32 N          19.7430   -6.3230    1.8470 N.am      7 SEP2        0.0000 
     33 N          18.2485  -10.7600    1.4620 N.am      2 SEC2        0.0000 
     34 N          16.8840   -9.8580    1.4260 N.am     12 SEL2        0.0000 
     35 N          18.5310   -7.6220    4.0400 N.am      2 SEC2        0.0000 
     36 N          17.6090   -8.5840    3.4450 N.am     12 SEL2        0.0000 
     37 N          19.4530   -6.6600    4.6350 N.am      7 SEP2        0.0000 
     38 N          17.7600   -8.5575    4.8355 N.am      2 SEC2        0.0000 
     39 N          17.9110   -8.5310    6.2260 N.am      7 SEP2        0.0000 
     40 CA         15.6225  -12.2380    1.5025 C.3       5 GLC5        0.0000 
     41 CA         15.3490  -11.5970    3.3360 C.3      15 GLL5        0.0000 
     42 CA         15.8960  -12.8790   -0.3310 C.3      10 GLP5        0.0000 
     43 CA         13.8035  -10.9115    2.6850 C.3       5 GLC5        0.0000 
     44 CA         12.2580  -10.2260    2.0340 C.3      10 GLP5        0.0000 
     45 CA         13.1670  -11.8050    3.5495 C.3       5 GLC5        0.0000 
     46 CA         14.8850  -12.3710    4.5490 C.3      15 GLL5        0.0000 
     47 CA         11.4490  -11.2390    2.5500 C.3      10 GLP5        0.0000 
     48 CA         12.7065  -10.6840    5.1895 C.3       5 GLC5        0.0000 
     49 CA         14.3510  -11.5080    5.6900 C.3      15 GLL5        0.0000 
     50 CA         11.0620   -9.8600    4.6890 C.3      10 GLP5        0.0000 
     51 CA         16.8265  -11.0215    8.1620 C.3       5 GLC5        0.0000 
     52 CA         15.5120  -11.4220    6.6820 C.3      15 GLL5        0.0000 
     53 CA         18.1410  -10.6210    9.6420 C.3      10 GLP5        0.0000 
     54 O          14.9630  -10.1225    8.6690 O.2       1 ALC1        0.0000 
     55 O          15.1270  -11.3150    8.0490 O.2      11 ALL1        0.0000 
     56 O          14.7990   -8.9300    9.2890 O.2       6 ALP1        0.0000 
     57 CA         16.7815  -12.1555    8.3585 C.3       5 GLC5        0.0000 
     58 CA         16.2070  -12.7530    6.4420 C.3      15 GLL5        0.0000 
     59 CA         17.3560  -11.5580   10.2750 C.3      10 GLP5        0.0000 
     60 CA         17.3960  -14.0865    5.2535 C.3       5 GLC5        0.0000 
     61 CA         18.5850  -15.4200    4.0650 C.3      10 GLP5        0.0000 
     62 N          21.0430  -12.4050    5.5170 N.am      2 SEC2        0.0000 
     63 N          19.7800  -12.1450    6.3470 N.am     12 SEL2        0.0000 
     64 N          22.3060  -12.6650    4.6870 N.am      7 SEP2        0.0000 
     65 CA         20.1670  -14.6120    6.3220 C.3       5 GLC5        0.0000 
     66 CA         19.6720  -13.1310    7.3140 C.3      15 GLL5        0.0000 
     67 CA         20.6620  -16.0930    5.3300 C.3      10 GLP5        0.0000 
     68 CA         20.9375  -11.5355    7.5940 C.3       5 GLC5        0.0000 
     69 CA         22.2030   -9.9400    7.8740 C.3      10 GLP5        0.0000 
     70 N          22.8330  -12.5840    8.4140 N.am      2 SEC2        0.0000 
     71 N          21.8980  -13.5710    8.0390 N.am     12 SEL2        0.0000 
     72 N          23.7680  -11.5970    8.7890 N.am      7 SEP2        0.0000 
     73 O          21.1910  -15.3940    9.6900 O.2       1 ALC1        0.0000 
     74 O          20.1580  -14.7120    8.9600 O.2      11 ALL1        0.0000 
     75 O          22.2240  -16.0760   10.4200 O.2       6 ALP1        0.0000 
     76 O          20.3635  -15.7715   10.3040 O.2       1 ALC1        0.0000 
     77 O          20.5690  -16.8310   11.6480 O.2       6 ALP1        0.0000 
     78 O          19.5435  -16.4000   10.8130 O.2       1 ALC1        0.0000 
     79 O          18.5180  -15.9690    9.9780 O.2      11 ALL1        0.0000 
     80 CA         18.4720  -14.4610    5.7865 C.3       5 GLC5        0.0000 
     81 CA         18.3590  -13.5020    7.5080 C.3      15 GLL5        0.0000 
@<TRIPOS>BOND
@<TRIPOS>SUBSTRUCTURE
     1 ALC1       54 GROUP        1 X    ALC  0     ROOT ALC X 1
     2 SEC2        4 GROUP        1 X    SEC  0     **** SEC X 2
     3 LYC4        1 GROUP        1 X    LYC  0     **** LYC X 4
     4 ZIC7       14 GROUP        1 X    ZIC  0     **** ZIC X 5
     5 GLC5       40 GROUP        1 X    GLC  0     **** GLC X 6
     6 ALP1       56 GROUP        1 Y    ALP  0     ROOT ALP Y 8
     7 SEP2        6 GROUP        1 Y    SEP  0     **** SEP Y 9
     8 LYP4        3 GROUP        1 Y    LYP  0     **** LYP Y 11
     9 ZIP7       16 GROUP        1 Y    ZIP  0     **** ZIP Y 12
    10 GLP5       42 GROUP        1 Y    GLP  0     **** GLP Y 13
    11 ALL1       55 GROUP        1 Z    ALL  0     ROOT ALL Z 15
    12 SEL2        5 GROUP        1 Z    SEL  0     **** SEL Z 16
    13 LYL4        2 GROUP        1 Z    LYL  0     **** LYL Z 18
    14 ZIL7       15 GROUP        1 Z    ZIL  0     **** ZIL Z 19
    15 GLL5       41 GROUP        1 Z    GLL  0     **** GLL Z 20
@<TRIPOS>SET

