#    Name: 3bc1_GNP_2_ligand
#    Modification time : Mon Mar 24 19:16:28 2014

@<TRIPOS>MOLECULE
3bc1_GNP_2_ligand
   44    46     1     0     0
SMALL
NO_CHARGES


@<TRIPOS>ATOM
      1 PG         15.4280   -8.4520   -2.0850 P.3       1 GNP195      0.0000 
      2 O1G        16.4620   -8.5380   -3.1770 O.co2     1 GNP195      0.0000 
      3 O2G        14.0930   -9.0740   -2.4480 O.co2     1 GNP195      0.0000 
      4 O3G        15.2710   -7.0170   -1.6820 O.co2     1 GNP195      0.0000 
      5 N3B        15.9240   -9.3020   -0.8090 N.4       1 GNP195      0.0000 
      6 PB         17.2150   -9.1120    0.1050 P.3       1 GNP195      0.0000 
      7 O1B        18.3950   -9.8350   -0.4110 O.co2     1 GNP195      0.0000 
      8 O2B        17.3690   -7.6660    0.3450 O.co2     1 GNP195      0.0000 
      9 O3A        16.8840   -9.8580    1.4260 O.3       1 GNP195      0.0000 
     10 PA         16.4660   -9.2940    2.7960 P.3       1 GNP195      0.0000 
     11 O1A        17.6090   -8.5840    3.4450 O.co2     1 GNP195      0.0000 
     12 O2A        15.1930   -8.5550    2.6870 O.co2     1 GNP195      0.0000 
     13 O5'        16.2580  -10.5590    3.7130 O.3       1 GNP195      0.0000 
     14 C5'        15.3490  -11.5970    3.3360 C.3       1 GNP195      0.0000 
     15 C4'        14.8850  -12.3710    4.5490 C.3       1 GNP195      0.0000 
     16 O4'        15.9840  -13.1340    5.0980 O.3       1 GNP195      0.0000 
     17 C3'        14.3510  -11.5080    5.6900 C.3       1 GNP195      0.0000 
     18 O3'        13.2040  -12.1080    6.2370 O.3       1 GNP195      0.0000 
     19 C2'        15.5120  -11.4220    6.6820 C.3       1 GNP195      0.0000 
     20 O2'        15.1270  -11.3150    8.0490 O.3       1 GNP195      0.0000 
     21 C1'        16.2070  -12.7530    6.4420 C.3       1 GNP195      0.0000 
     22 N9         17.6430  -12.7250    6.6320 N.pl3     1 GNP195      0.0000 
     23 C8         18.5610  -11.9390    5.9640 C.2       1 GNP195      0.0000 
     24 N7         19.7800  -12.1450    6.3470 N.2       1 GNP195      0.0000 
     25 C5         19.6720  -13.1310    7.3140 C.2       1 GNP195      0.0000 
     26 C6         20.6780  -13.7660    8.0760 C.2       1 GNP195      0.0000 
     27 O6         21.8980  -13.5710    8.0390 O.2       1 GNP195      0.0000 
     28 N1         20.1580  -14.7120    8.9600 N.am      1 GNP195      0.0000 
     29 C2         18.8230  -15.0250    9.0660 C.2       1 GNP195      0.0000 
     30 N2         18.5180  -15.9690    9.9780 N.pl3     1 GNP195      0.0000 
     31 N3         17.8560  -14.4340    8.3630 N.2       1 GNP195      0.0000 
     32 C4         18.3590  -13.5020    7.5080 C.2       1 GNP195      0.0000 
     33 H          15.8189  -12.3071    2.6368 H         1 GNP195      0.0000 
     34 H          14.4594  -11.1873    2.8313 H         1 GNP195      0.0000 
     35 H          14.0922  -13.0567    4.2536 H         1 GNP195      0.0000 
     36 H          14.1790  -10.5288    5.2944 H         1 GNP195      0.0000 
     37 H          16.1748  -10.6575    6.3509 H         1 GNP195      0.0000 
     38 H          15.7596  -13.4911    7.1044 H         1 GNP195      0.0000 
     39 H          18.2672  -11.2890    5.2616 H         1 GNP195      0.0000 
     40 H          20.8451  -15.2196    9.5893 H         1 GNP195      0.0000 
     41 H          19.2791  -16.3099   10.5299 H         1 GNP195      0.0000 
     42 H          17.5577  -16.2446   10.0217 H         1 GNP195      0.0000 
     43 H          13.4535  -12.3318    7.1791 H         1 GNP195      0.0000 
     44 H          15.0957  -10.3325    8.2328 H         1 GNP195      0.0000 
@<TRIPOS>BOND
     1    2    1 ar   
     2    3    1 ar   
     3    4    1 ar   
     4    5    1 1    
     5    6    5 1    
     6    7    6 ar   
     7    8    6 ar   
     8    9    6 1    
     9   10    9 1    
    10   11   10 ar   
    11   12   10 ar   
    12   13   10 1    
    13   14   13 1    
    14   15   14 1    
    15   33   14 1    
    16   34   14 1    
    17   16   15 1    
    18   17   15 1    
    19   35   15 1    
    20   21   16 1    
    21   18   17 1    
    22   19   17 1    
    23   36   17 1    
    24   43   18 1    
    25   20   19 1    
    26   21   19 1    
    27   37   19 1    
    28   44   20 1    
    29   22   21 1    
    30   38   21 1    
    31   23   22 1    
    32   32   22 1    
    33   24   23 2    
    34   39   23 1    
    35   25   24 1    
    36   26   25 1    
    37   32   25 2    
    38   27   26 2    
    39   28   26 am   
    40   29   28 1    
    41   40   28 1    
    42   30   29 1    
    43   31   29 2    
    44   41   30 1    
    45   42   30 1    
    46   32   31 1    
@<TRIPOS>SUBSTRUCTURE
     1 GNP195      1 GROUP   
@<TRIPOS>SET

