#    Name: 3w1x_XRO_2_INTS_M
#    Modification time : Tue Mar 25 02:00:34 2014

@<TRIPOS>MOLECULE
3w1x_XRO_2_INTS_M
   61     0    12     0     0
SMALL
NO_CHARGES


@<TRIPOS>ATOM
      1 N          -3.5535  -16.3465   14.2870 N.am      2 SEC2        0.0000 
      2 N          -4.1130  -14.9170   14.3610 N.am     10 SEL2        0.0000 
      3 N          -2.9940  -17.7760   14.2130 N.am      6 SEP2        0.0000 
      4 NZ         -7.4295  -16.1720   14.8010 N.4       3 LYC4        0.0000 
      5 NZ         -6.0960  -15.8840   14.1390 N.4      11 LYL4        0.0000 
      6 NZ         -8.7630  -16.4600   15.4630 N.4       7 LYP4        0.0000 
      7 N          -5.7470  -17.0795   13.4360 N.am      2 SEC2        0.0000 
      8 N          -6.0960  -15.8840   14.1390 N.am     10 SEL2        0.0000 
      9 N          -5.3980  -18.2750   12.7330 N.am      6 SEP2        0.0000 
     10 N          -7.4295  -16.1720   14.8010 N.am      2 SEC2        0.0000 
     11 N          -8.7630  -16.4600   15.4630 N.am      6 SEP2        0.0000 
     12 CA         -7.1280  -13.2850   15.8940 C.3       4 GLC5        0.0000 
     13 CA         -5.9750  -13.5280   14.1650 C.3      12 GLL5        0.0000 
     14 CA         -8.2810  -13.0420   17.6230 C.3       8 GLP5        0.0000 
     15 O          -4.5770  -13.0025   16.2380 O.2       1 ALC1        0.0000 
     16 O          -5.5390  -12.6540   15.1680 O.2       9 ALL1        0.0000 
     17 O          -3.6150  -13.3510   17.3080 O.2       5 ALP1        0.0000 
     18 N          -4.7515  -11.0175   17.2810 N.am      2 SEC2        0.0000 
     19 N          -5.4650  -10.5770   16.1090 N.am     10 SEL2        0.0000 
     20 N          -4.0380  -11.4580   18.4530 N.am      6 SEP2        0.0000 
     21 N          -4.8680   -9.3515   15.9735 N.am      2 SEC2        0.0000 
     22 N          -4.2710   -8.1260   15.8380 N.am      6 SEP2        0.0000 
     23 O          -7.0550   -9.5175   14.1860 O.2       1 ALC1        0.0000 
     24 O          -6.7030  -10.8900   14.2280 O.2       9 ALL1        0.0000 
     25 O          -7.4070   -8.1450   14.1440 O.2       5 ALP1        0.0000 
     26 N          -9.0590  -11.4460   11.4420 N.am      2 SEC2        0.0000 
     27 N          -7.9780  -11.1840   12.3830 N.am     10 SEL2        0.0000 
     28 N         -10.1400  -11.7080   10.5010 N.am      6 SEP2        0.0000 
     29 N          -8.3215   -9.7520   12.3810 N.am      2 SEC2        0.0000 
     30 N          -8.6650   -8.3200   12.3790 N.am      6 SEP2        0.0000 
     31 CA         -6.6940  -11.4025    9.9990 C.3       4 GLC5        0.0000 
     32 CA         -6.6590  -13.5040   10.6520 C.3      12 GLL5        0.0000 
     33 CA         -6.7290   -9.3010    9.3460 C.3       8 GLP5        0.0000 
     34 CA         -5.7300  -16.6375   10.6640 C.3       4 GLC5        0.0000 
     35 CA         -4.6150  -14.9150   10.5200 C.3      12 GLL5        0.0000 
     36 CA         -6.8450  -18.3600   10.8080 C.3       8 GLP5        0.0000 
     37 CA         -4.3090  -15.2850    8.7460 C.3       4 GLC5        0.0000 
     38 CA         -4.0030  -15.6550    6.9720 C.3       8 GLP5        0.0000 
     39 CA         -3.1235  -16.7760   11.8295 C.3       4 GLC5        0.0000 
     40 CA         -3.2150  -15.0770   10.6980 C.3      12 GLL5        0.0000 
     41 CA         -3.0320  -18.4750   12.9610 C.3       8 GLP5        0.0000 
     42 CA         -3.1375  -15.9335    9.0555 C.3       4 GLC5        0.0000 
     43 CA         -3.0600  -16.7900    7.4130 C.3       8 GLP5        0.0000 
     44 CA         -0.5255  -15.0125   14.4315 C.3       4 GLC5        0.0000 
     45 CA         -0.7460  -15.0400   12.4320 C.3      12 GLL5        0.0000 
     46 CA         -0.3050  -14.9850   16.4310 C.3       8 GLP5        0.0000 
     47 CA         -1.8890  -16.7575   12.6965 C.3       4 GLC5        0.0000 
     48 CA         -5.5510  -10.9565   10.1805 C.3       4 GLC5        0.0000 
     49 CA         -4.3730  -12.6120   11.0150 C.3      12 GLL5        0.0000 
     50 CA         -8.0265  -15.4110   11.0917 C.3       4 GLC5        0.0000 
     51 CA         -9.0890  -17.0920   10.8270 C.3       8 GLP5        0.0000 
     52 CA         -4.7172  -14.2640    8.7770 C.3       4 GLC5        0.0000 
     53 CA         -5.2320  -13.6720   10.6960 C.3      12 GLL5        0.0000 
     54 CA         -5.0190  -12.8140    6.9200 C.3       8 GLP5        0.0000 
     55 CA         -1.7310  -14.4232    9.1535 C.3       4 GLC5        0.0000 
     56 CA         -2.4300  -14.0420   11.0180 C.3      12 GLL5        0.0000 
     57 CA         -1.7660  -14.7420    7.1730 C.3       8 GLP5        0.0000 
     58 CA          1.1430  -14.3748   12.1645 C.3       4 GLC5        0.0000 
     59 CA         -0.9620  -14.1670   11.2500 C.3      12 GLL5        0.0000 
     60 CA          3.1400  -14.1460   12.4880 C.3       8 GLP5        0.0000 
     61 CA         -5.0891  -12.9570    8.8823 C.3       4 GLC5        0.0000 
@<TRIPOS>BOND
@<TRIPOS>SUBSTRUCTURE
     1 ALC1       15 GROUP        1 X    ALC  0     ROOT ALC X 1
     2 SEC2        1 GROUP        1 X    SEC  0     **** SEC X 2
     3 LYC4        4 GROUP        1 X    LYC  0     **** LYC X 4
     4 GLC5       12 GROUP        1 X    GLC  0     **** GLC X 6
     5 ALP1       17 GROUP        1 Y    ALP  0     ROOT ALP Y 8
     6 SEP2        3 GROUP        1 Y    SEP  0     **** SEP Y 9
     7 LYP4        6 GROUP        1 Y    LYP  0     **** LYP Y 11
     8 GLP5       14 GROUP        1 Y    GLP  0     **** GLP Y 13
     9 ALL1       16 GROUP        1 Z    ALL  0     ROOT ALL Z 15
    10 SEL2        2 GROUP        1 Z    SEL  0     **** SEL Z 16
    11 LYL4        5 GROUP        1 Z    LYL  0     **** LYL Z 18
    12 GLL5       13 GROUP        1 Z    GLL  0     **** GLL Z 20
@<TRIPOS>SET

