#    Name: 3w1x_XRO_2_ligand
#    Modification time : Tue Mar 25 02:00:34 2014

@<TRIPOS>MOLECULE
3w1x_XRO_2_ligand
   34    35     1     0     0
SMALL
NO_CHARGES


@<TRIPOS>ATOM
      1 OAB        -4.1130  -14.9170   14.3610 O.co2     1 XRO401      0.0000 
      2 CAP        -5.3520  -14.8680   14.2380 C.2       1 XRO401      0.0000 
      3 OAE        -6.0960  -15.8840   14.1390 O.co2     1 XRO401      0.0000 
      4 CAS        -5.9750  -13.5280   14.1650 C.2       1 XRO401      0.0000 
      5 NAN        -5.5390  -12.6540   15.1680 N.am      1 XRO401      0.0000 
      6 CAU        -5.8870  -11.3470   15.2060 C.2       1 XRO401      0.0000 
      7 OAC        -5.4650  -10.5770   16.1090 O.2       1 XRO401      0.0000 
      8 NAO        -6.7030  -10.8900   14.2280 N.am      1 XRO401      0.0000 
      9 CAV        -7.2710  -11.7330   13.2320 C.2       1 XRO401      0.0000 
     10 OAD        -7.9780  -11.1840   12.3830 O.2       1 XRO401      0.0000 
     11 CAT        -6.7970  -13.0610   13.1900 C.2       1 XRO401      0.0000 
     12 CAM        -7.2690  -13.9560   12.0610 C.3       1 XRO401      0.0000 
     13 CAL        -6.6590  -13.5040   10.6520 C.3       1 XRO401      0.0000 
     14 CAR        -5.2320  -13.6720   10.6960 C.ar      1 XRO401      0.0000 
     15 CAI        -4.6150  -14.9150   10.5200 C.ar      1 XRO401      0.0000 
     16 CAG        -3.2150  -15.0770   10.6980 C.ar      1 XRO401      0.0000 
     17 CAQ        -2.4300  -14.0420   11.0180 C.ar      1 XRO401      0.0000 
     18 CAK        -0.9620  -14.1670   11.2500 C.3       1 XRO401      0.0000 
     19 CAF        -0.7460  -15.0400   12.4320 C.1       1 XRO401      0.0000 
     20 NAA        -0.5880  -15.6950   13.3850 N.1       1 XRO401      0.0000 
     21 CAH        -2.9840  -12.8090   11.1710 C.ar      1 XRO401      0.0000 
     22 CAJ        -4.3730  -12.6120   11.0150 C.ar      1 XRO401      0.0000 
     23 H          -4.9133  -13.0501   15.9171 H         1 XRO401      0.0000 
     24 H          -6.9465   -9.8683   14.1766 H         1 XRO401      0.0000 
     25 H          -8.3511  -13.9189   11.9705 H         1 XRO401      0.0000 
     26 H          -6.9586  -14.9831   12.2319 H         1 XRO401      0.0000 
     27 H          -6.9563  -12.4719   10.5101 H         1 XRO401      0.0000 
     28 H          -7.1324  -14.1272    9.9028 H         1 XRO401      0.0000 
     29 H          -5.1801  -15.7365   10.2555 H         1 XRO401      0.0000 
     30 H          -2.8263  -16.0351   10.5688 H         1 XRO401      0.0000 
     31 H          -0.5346  -13.1836   11.4320 H         1 XRO401      0.0000 
     32 H          -0.4884  -14.6045   10.3741 H         1 XRO401      0.0000 
     33 H          -2.3963  -11.9875   11.4057 H         1 XRO401      0.0000 
     34 H          -4.7611  -11.6619   11.1399 H         1 XRO401      0.0000 
@<TRIPOS>BOND
     1    2    1 ar   
     2    3    2 ar   
     3    4    2 1    
     4    5    4 1    
     5   11    4 2    
     6    6    5 am   
     7   23    5 1    
     8    7    6 2    
     9    8    6 am   
    10    9    8 am   
    11   24    8 1    
    12   10    9 2    
    13   11    9 1    
    14   12   11 1    
    15   13   12 1    
    16   25   12 1    
    17   26   12 1    
    18   14   13 1    
    19   27   13 1    
    20   28   13 1    
    21   15   14 ar   
    22   22   14 ar   
    23   16   15 ar   
    24   29   15 1    
    25   17   16 ar   
    26   30   16 1    
    27   18   17 1    
    28   21   17 ar   
    29   19   18 1    
    30   31   18 1    
    31   32   18 1    
    32   20   19 3    
    33   22   21 ar   
    34   33   21 1    
    35   34   22 1    
@<TRIPOS>SUBSTRUCTURE
     1 XRO401      1 GROUP   
@<TRIPOS>SET

