#    Name: 1u1i_NAD_3_INTS_M
#    Modification time : Tue Mar 25 06:01:18 2014

@<TRIPOS>MOLECULE
1u1i_NAD_3_INTS_M
   99     0     9     0     0
SMALL
NO_CHARGES


@<TRIPOS>ATOM
      1 N          19.9480   20.8340    1.2130 N.am      2 SEC2        0.0000 
      2 N          19.2420   21.5300    0.3410 N.am      8 SEL2        0.0000 
      3 N          20.6540   20.1380    2.0850 N.am      5 SEP2        0.0000 
      4 N          15.7545   23.6005   -0.0380 N.am      2 SEC2        0.0000 
      5 N          16.9310   22.4490   -0.2830 N.am      8 SEL2        0.0000 
      6 N          14.5780   24.7520    0.2070 N.am      5 SEP2        0.0000 
      7 CA         20.7040   21.7930    2.4595 C.3       3 GLC5        0.0000 
      8 CA         19.5410   23.3710    2.0940 C.3       9 GLL5        0.0000 
      9 CA         21.8670   20.2150    2.8250 C.3       6 GLP5        0.0000 
     10 CA         20.4580   26.2245    3.0610 C.3       3 GLC5        0.0000 
     11 CA         19.9060   24.8040    1.7430 C.3       9 GLL5        0.0000 
     12 CA         21.0100   27.6450    4.3790 C.3       6 GLP5        0.0000 
     13 N          20.2985   26.3685   -1.7920 N.am      2 SEC2        0.0000 
     14 N          20.2750   26.4020   -0.1060 N.am      8 SEL2        0.0000 
     15 N          20.3220   26.3350   -3.4780 N.am      5 SEP2        0.0000 
     16 O          20.5795   27.4890    0.5000 O.2       1 ALC1        0.0000 
     17 O          20.2750   26.4020   -0.1060 O.2       7 ALL1        0.0000 
     18 O          20.8840   28.5760    1.1060 O.2       4 ALP1        0.0000 
     19 O          22.7185   26.4900   -0.2410 O.2       1 ALC1        0.0000 
     20 O          22.7380   25.0270   -0.5350 O.2       7 ALL1        0.0000 
     21 O          22.6990   27.9530    0.0530 O.2       4 ALP1        0.0000 
     22 CA         21.5750   26.5730    3.0960 C.3       3 GLC5        0.0000 
     23 CA         22.1400   25.5010    1.8130 C.3       9 GLL5        0.0000 
     24 CA         22.2255   24.8260    3.9440 C.3       3 GLC5        0.0000 
     25 CA         22.3110   24.1510    6.0750 C.3       6 GLP5        0.0000 
     26 O          28.0490   25.7710    5.4245 O.2       1 ALC1        0.0000 
     27 O          27.0510   24.9250    5.2630 O.2       7 ALL1        0.0000 
     28 O          29.0470   26.6170    5.5860 O.2       4 ALP1        0.0000 
     29 N          26.4210   27.7365    6.0335 N.am      2 SEC2        0.0000 
     30 N          25.8900   26.9140    5.0190 N.am      8 SEL2        0.0000 
     31 N          26.9520   28.5590    7.0480 N.am      5 SEP2        0.0000 
     32 CA         23.7505   27.1415    6.3215 C.3       3 GLC5        0.0000 
     33 CA         24.8190   27.6040    4.4830 C.3       9 GLL5        0.0000 
     34 CA         22.6820   26.6790    8.1600 C.3       6 GLP5        0.0000 
     35 CA         22.9145   27.6245    4.4310 C.3       3 GLC5        0.0000 
     36 CA         24.3755   28.9395    3.5730 C.3       3 GLC5        0.0000 
     37 CA         23.9320   30.2750    2.6630 C.3       6 GLP5        0.0000 
     38 CA         26.2240   27.6390    3.2150 C.3       3 GLC5        0.0000 
     39 CA         27.6290   27.6740    1.9470 C.3       6 GLP5        0.0000 
     40 CA         22.5475   26.7435    3.8635 C.3       3 GLC5        0.0000 
     41 CA         24.0850   25.8420    3.3480 C.3       9 GLL5        0.0000 
     42 CA         24.0085   28.0585    3.0055 C.3       3 GLC5        0.0000 
     43 N          14.3695   19.1610    1.5330 N.am      2 SEC2        0.0000 
     44 N          14.7050   20.3550    1.8710 N.am      8 SEL2        0.0000 
     45 N          14.0340   17.9670    1.1950 N.am      5 SEP2        0.0000 
     46 N          14.2150   23.6775    2.5120 N.am      2 SEC2        0.0000 
     47 N          15.4720   22.6660    2.5630 N.am      8 SEL2        0.0000 
     48 N          12.9580   24.6890    2.4610 N.am      5 SEP2        0.0000 
     49 CA         18.4960   20.6565    7.6170 C.3       3 GLC5        0.0000 
     50 CA         17.5210   20.1870    5.9530 C.3       9 GLL5        0.0000 
     51 CA         19.4710   21.1260    9.2810 C.3       6 GLP5        0.0000 
     52 CA         19.8720   19.5725    4.9390 C.3       3 GLC5        0.0000 
     53 CA         18.1600   18.8380    5.5470 C.3       9 GLL5        0.0000 
     54 CA         21.5840   20.3070    4.3310 C.3       6 GLP5        0.0000 
     55 N          20.5935   18.3330    5.8970 N.am      2 SEC2        0.0000 
     56 N          19.2330   18.4970    6.4500 N.am      8 SEL2        0.0000 
     57 N          21.9540   18.1690    5.3440 N.am      5 SEP2        0.0000 
     58 N          19.8435   17.1500    6.1250 N.am      2 SEC2        0.0000 
     59 N          20.4540   15.8030    5.8000 N.am      5 SEP2        0.0000 
     60 O          19.6025   20.0035    6.3230 O.2       1 ALC1        0.0000 
     61 O          19.2330   18.4970    6.4500 O.2       7 ALL1        0.0000 
     62 O          19.9720   21.5100    6.1960 O.2       4 ALP1        0.0000 
     63 N          16.6150   15.0875    5.4375 N.am      2 SEC2        0.0000 
     64 N          17.5130   16.5160    5.8960 N.am      8 SEL2        0.0000 
     65 N          15.7170   13.6590    4.9790 N.am      5 SEP2        0.0000 
     66 O          18.9835   16.1595    5.8480 O.2       1 ALC1        0.0000 
     67 O          17.5130   16.5160    5.8960 O.2       7 ALL1        0.0000 
     68 O          20.4540   15.8030    5.8000 O.2       4 ALP1        0.0000 
     69 O          17.9105   16.7050    4.2960 O.2       1 ALC1        0.0000 
     70 O          18.3080   16.8940    2.6960 O.2       4 ALP1        0.0000 
     71 CA         11.2910   19.3540    7.0450 C.3       3 GLC5        0.0000 
     72 CA         12.6790   17.7600    6.7530 C.3       9 GLL5        0.0000 
     73 CA          9.9030   20.9480    7.3370 C.3       6 GLP5        0.0000 
     74 O          10.1170   16.8485    7.1800 O.2       1 ALC1        0.0000 
     75 O          10.3960   17.4400    6.0200 O.2       7 ALL1        0.0000 
     76 O           9.8380   16.2570    8.3400 O.2       4 ALP1        0.0000 
     77 O           9.4445   18.6585    5.3240 O.2       1 ALC1        0.0000 
     78 O           8.4930   19.8770    4.6280 O.2       4 ALP1        0.0000 
     79 CA         13.4170   14.7330    9.8430 C.3       3 GLC5        0.0000 
     80 CA         13.5840   16.5950    8.6850 C.3       9 GLL5        0.0000 
     81 CA         13.2500   12.8710   11.0010 C.3       6 GLP5        0.0000 
     82 CA         16.0175   15.2460    7.6550 C.3       3 GLC5        0.0000 
     83 CA         14.8540   17.0360    8.3120 C.3       9 GLL5        0.0000 
     84 CA         17.1810   13.4560    6.9980 C.3       6 GLP5        0.0000 
     85 CA         20.2957   23.8977    3.9038 C.3       3 GLC5        0.0000 
     86 CA         20.8680   23.7080    5.8890 C.3       6 GLP5        0.0000 
     87 CA         18.3474   25.2306    0.9886 C.3       3 GLC5        0.0000 
     88 CA         16.6190   25.9170    0.8690 C.3       6 GLP5        0.0000 
     89 CA         25.8549   25.3704    2.4595 C.3       3 GLC5        0.0000 
     90 CA         25.0640   24.9930    3.8430 C.3       9 GLL5        0.0000 
     91 CA         26.8930   25.1770    1.1050 C.3       6 GLP5        0.0000 
     92 CA         23.5639   24.8574    4.9445 C.3       3 GLC5        0.0000 
     93 CA         19.4893   20.4940    4.8548 C.3       3 GLC5        0.0000 
     94 CA         17.2680   21.1750    4.8040 C.3       9 GLL5        0.0000 
     95 CA         11.3024   17.4801    8.9774 C.3       3 GLC5        0.0000 
     96 CA          9.5180   17.9730    9.9470 C.3       6 GLP5        0.0000 
     97 CA         13.4790   17.3137   10.2971 C.3       3 GLC5        0.0000 
     98 CA         12.5000   16.9990    7.9080 C.3       9 GLL5        0.0000 
     99 CA         13.0100   17.7110   12.2900 C.3       6 GLP5        0.0000 
@<TRIPOS>BOND
@<TRIPOS>SUBSTRUCTURE
     1 ALC1       16 GROUP        1 X    ALC  0     ROOT ALC X 1
     2 SEC2        1 GROUP        1 X    SEC  0     **** SEC X 2
     3 GLC5        7 GROUP        1 X    GLC  0     **** GLC X 6
     4 ALP1       18 GROUP        1 Y    ALP  0     ROOT ALP Y 8
     5 SEP2        3 GROUP        1 Y    SEP  0     **** SEP Y 9
     6 GLP5        9 GROUP        1 Y    GLP  0     **** GLP Y 13
     7 ALL1       17 GROUP        1 Z    ALL  0     ROOT ALL Z 15
     8 SEL2        2 GROUP        1 Z    SEL  0     **** SEL Z 16
     9 GLL5        8 GROUP        1 Z    GLL  0     **** GLL Z 20
@<TRIPOS>SET

