#    Name: 1u1i_NAD_3_ligand
#    Modification time : Tue Mar 25 06:01:18 2014

@<TRIPOS>MOLECULE
1u1i_NAD_3_ligand
   70    74     1     0     0
SMALL
NO_CHARGES


@<TRIPOS>ATOM
      1 PA         17.8730   22.0320    0.8570 P.3       1 NAD1196     0.0000 
      2 O1A        19.2420   21.5300    0.3410 O.co2     1 NAD1196     0.0000 
      3 O2A        16.9310   22.4490   -0.2830 O.co2     1 NAD1196     0.0000 
      4 O5B        18.1470   23.2970    1.7270 O.3       1 NAD1196     0.0000 
      5 C5B        19.5410   23.3710    2.0940 C.3       1 NAD1196     0.0000 
      6 C4B        19.9060   24.8040    1.7430 C.3       1 NAD1196     0.0000 
      7 O4B        21.0500   25.2030    2.5710 O.3       1 NAD1196     0.0000 
      8 C3B        20.4280   25.0010    0.2980 C.3       1 NAD1196     0.0000 
      9 O3B        20.2750   26.4020   -0.1060 O.3       1 NAD1196     0.0000 
     10 C2B        21.9010   24.6360    0.5660 C.3       1 NAD1196     0.0000 
     11 O2B        22.7380   25.0270   -0.5350 O.3       1 NAD1196     0.0000 
     12 C1B        22.1400   25.5010    1.8130 C.3       1 NAD1196     0.0000 
     13 N9A        23.3130   25.0650    2.5410 N.pl3     1 NAD1196     0.0000 
     14 C8A        23.8640   23.8100    2.5420 C.2       1 NAD1196     0.0000 
     15 N7A        24.9650   23.7170    3.2950 N.2       1 NAD1196     0.0000 
     16 C5A        25.0640   24.9930    3.8430 C.ar      1 NAD1196     0.0000 
     17 C6A        26.0330   25.5780    4.7170 C.ar      1 NAD1196     0.0000 
     18 N6A        27.0510   24.9250    5.2630 N.pl3     1 NAD1196     0.0000 
     19 N1A        25.8900   26.9140    5.0190 N.ar      1 NAD1196     0.0000 
     20 C2A        24.8190   27.6040    4.4830 C.ar      1 NAD1196     0.0000 
     21 N3A        23.8780   27.1400    3.6660 N.ar      1 NAD1196     0.0000 
     22 C4A        24.0850   25.8420    3.3480 C.ar      1 NAD1196     0.0000 
     23 O3         17.1840   20.9490    1.7430 O.3       1 NAD1196     0.0000 
     24 PN         15.8200   21.1980    2.4720 P.3       1 NAD1196     0.0000 
     25 O1N        14.7050   20.3550    1.8710 O.co2     1 NAD1196     0.0000 
     26 O2N        15.4720   22.6660    2.5630 O.co2     1 NAD1196     0.0000 
     27 O5D        16.1400   20.6750    3.9420 O.3       1 NAD1196     0.0000 
     28 C5D        17.2680   21.1750    4.8040 C.3       1 NAD1196     0.0000 
     29 C4D        17.5210   20.1870    5.9530 C.3       1 NAD1196     0.0000 
     30 O4D        16.3330   19.8520    6.7250 O.3       1 NAD1196     0.0000 
     31 C3D        18.1600   18.8380    5.5470 C.3       1 NAD1196     0.0000 
     32 O3D        19.2330   18.4970    6.4500 O.3       1 NAD1196     0.0000 
     33 C2D        17.0180   17.8630    5.7330 C.3       1 NAD1196     0.0000 
     34 O2D        17.5130   16.5160    5.8960 O.3       1 NAD1196     0.0000 
     35 C1D        16.3610   18.4410    6.9590 C.3       1 NAD1196     0.0000 
     36 N1N        15.0350   17.9210    7.2340 N.pl3     1 NAD1196     0.0000 
     37 C2N        13.9390   18.2680    6.4060 C.ar      1 NAD1196     0.0000 
     38 C3N        12.6790   17.7600    6.7530 C.ar      1 NAD1196     0.0000 
     39 C7N        11.5990   18.0400    5.7830 C.2       1 NAD1196     0.0000 
     40 O7N        11.7580   19.0650    5.1050 O.2       1 NAD1196     0.0000 
     41 N7N        10.3960   17.4400    6.0200 N.am      1 NAD1196     0.0000 
     42 C4N        12.5000   16.9990    7.9080 C.ar      1 NAD1196     0.0000 
     43 C5N        13.5840   16.5950    8.6850 C.ar      1 NAD1196     0.0000 
     44 C6N        14.8540   17.0360    8.3120 C.ar      1 NAD1196     0.0000 
     45 H          20.1426   22.7104    1.5096 H         1 NAD1196     0.0000 
     46 H          19.6854   23.2267    3.1419 H         1 NAD1196     0.0000 
     47 H          19.0963   25.4607    1.9090 H         1 NAD1196     0.0000 
     48 H          20.0026   24.2994   -0.3081 H         1 NAD1196     0.0000 
     49 H          21.9443   23.6346    0.8406 H         1 NAD1196     0.0000 
     50 H          22.1846   26.5015    1.5200 H         1 NAD1196     0.0000 
     51 H          23.4702   23.0543    2.0273 H         1 NAD1196     0.0000 
     52 H          27.0958   23.9438    5.0754 H         1 NAD1196     0.0000 
     53 H          27.6813   25.4732    5.8127 H         1 NAD1196     0.0000 
     54 H          24.7549   28.6557    4.7776 H         1 NAD1196     0.0000 
     55 H          17.0140   22.1433    5.2247 H         1 NAD1196     0.0000 
     56 H          18.1753   21.2656    4.2143 H         1 NAD1196     0.0000 
     57 H          18.2532   20.6607    6.6532 H         1 NAD1196     0.0000 
     58 H          18.4298   18.8788    4.5455 H         1 NAD1196     0.0000 
     59 H          16.3590   17.9819    4.9067 H         1 NAD1196     0.0000 
     60 H          17.0324   18.2435    7.8033 H         1 NAD1196     0.0000 
     61 H          14.0669   18.8563    5.6021 H         1 NAD1196     0.0000 
     62 H          10.3384   16.8811    6.8473 H         1 NAD1196     0.0000 
     63 H           9.6780   17.6121    5.3455 H         1 NAD1196     0.0000 
     64 H          11.5410   16.7287    8.1939 H         1 NAD1196     0.0000 
     65 H          13.4549   16.0008    9.4940 H         1 NAD1196     0.0000 
     66 H          15.6834   16.7078    8.8365 H         1 NAD1196     0.0000 
     67 H          20.6221   26.9334    0.6667 H         1 NAD1196     0.0000 
     68 H          22.8234   26.0201   -0.4551 H         1 NAD1196     0.0000 
     69 H          19.6307   19.3734    6.7218 H         1 NAD1196     0.0000 
     70 H          18.3534   16.4821    5.3552 H         1 NAD1196     0.0000 
@<TRIPOS>BOND
     1    2    1 ar   
     2    3    1 ar   
     3    4    1 1    
     4   23    1 1    
     5    5    4 1    
     6    6    5 1    
     7   45    5 1    
     8   46    5 1    
     9    7    6 1    
    10    8    6 1    
    11   47    6 1    
    12   12    7 1    
    13    9    8 1    
    14   10    8 1    
    15   48    8 1    
    16   67    9 1    
    17   11   10 1    
    18   12   10 1    
    19   49   10 1    
    20   68   11 1    
    21   13   12 1    
    22   50   12 1    
    23   14   13 1    
    24   22   13 1    
    25   15   14 2    
    26   51   14 1    
    27   16   15 1    
    28   17   16 ar   
    29   22   16 ar   
    30   18   17 1    
    31   19   17 ar   
    32   52   18 1    
    33   53   18 1    
    34   20   19 ar   
    35   21   20 ar   
    36   54   20 1    
    37   22   21 ar   
    38   24   23 1    
    39   25   24 ar   
    40   26   24 ar   
    41   27   24 1    
    42   28   27 1    
    43   29   28 1    
    44   55   28 1    
    45   56   28 1    
    46   30   29 1    
    47   31   29 1    
    48   57   29 1    
    49   35   30 1    
    50   32   31 1    
    51   33   31 1    
    52   58   31 1    
    53   69   32 1    
    54   34   33 1    
    55   35   33 1    
    56   59   33 1    
    57   70   34 1    
    58   36   35 1    
    59   60   35 1    
    60   37   36 ar   
    61   44   36 ar   
    62   38   37 ar   
    63   61   37 1    
    64   39   38 1    
    65   42   38 ar   
    66   40   39 2    
    67   41   39 am   
    68   62   41 1    
    69   63   41 1    
    70   43   42 ar   
    71   64   42 1    
    72   44   43 ar   
    73   65   43 1    
    74   66   44 1    
@<TRIPOS>SUBSTRUCTURE
     1 NAD1196     1 GROUP   
@<TRIPOS>SET

