#    Name: 3dya_PZL_1_INTS_M
#    Modification time : Tue Mar 25 00:37:30 2014

@<TRIPOS>MOLECULE
3dya_PZL_1_INTS_M
   85     0     9     0     0
SMALL
NO_CHARGES


@<TRIPOS>ATOM
      1 CA         47.2740   65.7210   22.3280 C.3       3 GLC5        0.0000 
      2 CA         49.1770   65.7480   22.5070 C.3       9 GLL5        0.0000 
      3 CA         45.3710   65.6940   22.1490 C.3       6 GLP5        0.0000 
      4 CA         50.7075   66.9190   22.6345 C.3       3 GLC5        0.0000 
      5 CA         52.2380   68.0900   22.7620 C.3       6 GLP5        0.0000 
      6 CA         50.0950   62.1385   19.0130 C.3       3 GLC5        0.0000 
      7 CA         48.6160   62.9020   20.4850 C.3       9 GLL5        0.0000 
      8 CA         51.5740   61.3750   17.5410 C.3       6 GLP5        0.0000 
      9 CA         48.1410   59.2300   20.6170 C.3       3 GLC5        0.0000 
     10 CA         48.5710   61.1260   20.6250 C.3       9 GLL5        0.0000 
     11 CA         47.7110   57.3340   20.6090 C.3       6 GLP5        0.0000 
     12 CA         48.9800   60.7875   18.6295 C.3       3 GLC5        0.0000 
     13 CA         49.3890   60.4490   16.6340 C.3       6 GLP5        0.0000 
     14 CA         46.9420   62.2585   21.0685 C.3       3 GLC5        0.0000 
     15 CA         45.3130   63.3910   21.5120 C.3       6 GLP5        0.0000 
     16 CA         48.9635   60.1740   22.2525 C.3       3 GLC5        0.0000 
     17 CA         49.3560   59.2220   23.8800 C.3       6 GLP5        0.0000 
     18 CA         48.8970   61.9595   17.9415 C.3       3 GLC5        0.0000 
     19 CA         48.4050   63.4700   19.2490 C.3       9 GLL5        0.0000 
     20 CA         47.2615   66.4745   16.4280 C.3       3 GLC5        0.0000 
     21 CA         46.2140   64.6820   16.0970 C.3       9 GLL5        0.0000 
     22 CA         48.3090   68.2670   16.7590 C.3       6 GLP5        0.0000 
     23 CA         45.1410   63.4135   14.7465 C.3       3 GLC5        0.0000 
     24 CA         44.0680   62.1450   13.3960 C.3       6 GLP5        0.0000 
     25 CA         45.6590   62.9235   16.3370 C.3       3 GLC5        0.0000 
     26 CA         45.1040   61.1650   16.5770 C.3       6 GLP5        0.0000 
     27 CA         45.6710   64.9140   17.9035 C.3       3 GLC5        0.0000 
     28 CA         45.1280   65.1460   19.7100 C.3       6 GLP5        0.0000 
     29 CA         44.7140   66.1050   16.0700 C.3       3 GLC5        0.0000 
     30 CA         43.2140   67.5280   16.0430 C.3       6 GLP5        0.0000 
     31 CA         45.8355   66.0665   14.5440 C.3       3 GLC5        0.0000 
     32 CA         45.4570   67.4510   12.9910 C.3       6 GLP5        0.0000 
     33 CA         51.2260   67.0240   19.0375 C.3       3 GLC5        0.0000 
     34 CA         50.9460   65.3450   17.6410 C.3       9 GLL5        0.0000 
     35 CA         51.5060   68.7030   20.4340 C.3       6 GLP5        0.0000 
     36 CA         51.6055   64.6430   19.4310 C.3       3 GLC5        0.0000 
     37 CA         52.2650   63.9410   21.2210 C.3       6 GLP5        0.0000 
     38 CA         50.7060   62.3110   14.7620 C.3       3 GLC5        0.0000 
     39 CA         49.9530   64.1460   14.3460 C.3       9 GLL5        0.0000 
     40 CA         51.4590   60.4760   15.1780 C.3       6 GLP5        0.0000 
     41 CA         53.9215   64.0920   15.4545 C.3       3 GLC5        0.0000 
     42 CA         52.2760   64.5170   15.1590 C.3       9 GLL5        0.0000 
     43 CA         55.5670   63.6670   15.7500 C.3       6 GLP5        0.0000 
     44 N          51.8915   66.1220   11.8810 N.am      2 SEC2        0.0000 
     45 N          52.3700   66.2410   13.2610 N.am      8 SEL2        0.0000 
     46 N          51.4130   66.0030   10.5010 N.am      5 SEP2        0.0000 
     47 O          52.2915   68.1490   11.8575 O.2       1 ALC1        0.0000 
     48 O          52.5870   67.6250   13.1120 O.2       7 ALL1        0.0000 
     49 O          51.9960   68.6730   10.6030 O.2       4 ALP1        0.0000 
     50 CA         53.7945   70.3905   17.8935 C.3       3 GLC5        0.0000 
     51 CA         53.2020   68.6400   17.0060 C.3       9 GLL5        0.0000 
     52 CA         54.3870   72.1410   18.7810 C.3       6 GLP5        0.0000 
     53 CA         54.8780   68.8940   15.7385 C.3       3 GLC5        0.0000 
     54 CA         56.5540   69.1480   14.4710 C.3       6 GLP5        0.0000 
     55 CA         49.9243   64.1428   23.6225 C.3       3 GLC5        0.0000 
     56 CA         51.4180   64.0210   25.2130 C.3       6 GLP5        0.0000 
     57 CA         47.0247   64.7608   20.6163 C.3       3 GLC5        0.0000 
     58 CA         48.9540   65.0650   21.4540 C.3       9 GLL5        0.0000 
     59 CA         50.5087   63.6175   21.1295 C.3       3 GLC5        0.0000 
     60 CA         48.8890   63.6860   21.5910 C.3       9 GLL5        0.0000 
     61 CA         46.8192   64.1660   19.7885 C.3       3 GLC5        0.0000 
     62 CA         50.3500   64.0482   20.1995 C.3       3 GLC5        0.0000 
     63 CA         48.4550   66.7567   18.2085 C.3       3 GLC5        0.0000 
     64 CA         48.7370   65.6520   20.2090 C.3       9 GLL5        0.0000 
     65 CA         48.1466   67.3581   21.5789 C.3       3 GLC5        0.0000 
     66 CA         47.3920   69.1870   22.0630 C.3       6 GLP5        0.0000 
     67 CA         46.8645   65.1962   19.6840 C.3       3 GLC5        0.0000 
     68 CA         50.5831   64.7351   21.1579 C.3       3 GLC5        0.0000 
     69 CA         48.8490   62.4168   15.8675 C.3       3 GLC5        0.0000 
     70 CA         48.0450   64.5980   15.7080 C.3       9 GLL5        0.0000 
     71 CA         48.6550   66.1438   14.7310 C.3       3 GLC5        0.0000 
     72 CA         48.5730   64.1710   14.4940 C.3       9 GLL5        0.0000 
     73 CA         49.0010   67.9030   14.3610 C.3       6 GLP5        0.0000 
     74 CA         51.0782   63.2632   17.3298 C.3       3 GLC5        0.0000 
     75 CA         50.2190   64.9580   16.5960 C.3       9 GLL5        0.0000 
     76 CA         49.2741   66.7115   16.9554 C.3       3 GLC5        0.0000 
     77 CA         51.5515   62.9460   16.4093 C.3       3 GLC5        0.0000 
     78 CA         50.7820   64.5170   15.3960 C.3       9 GLL5        0.0000 
     79 CA         49.6842   66.1173   14.6160 C.3       3 GLC5        0.0000 
     80 CA         48.9395   65.0018   12.8910 C.3       3 GLC5        0.0000 
     81 CA         48.6160   65.8450   11.3620 C.3       6 GLP5        0.0000 
     82 CA         50.8840   67.7420   14.5787 C.3       3 GLC5        0.0000 
     83 CA         52.7360   67.0680   15.2530 C.3       9 GLL5        0.0000 
     84 CA         54.6605   68.3645   14.6337 C.3       3 GLC5        0.0000 
     85 CA         52.7980   68.0940   14.3400 C.3       9 GLL5        0.0000 
@<TRIPOS>BOND
@<TRIPOS>SUBSTRUCTURE
     1 ALC1       47 GROUP        1 X    ALC  0     ROOT ALC X 1
     2 SEC2       44 GROUP        1 X    SEC  0     **** SEC X 2
     3 GLC5        1 GROUP        1 X    GLC  0     **** GLC X 6
     4 ALP1       49 GROUP        1 Y    ALP  0     ROOT ALP Y 8
     5 SEP2       46 GROUP        1 Y    SEP  0     **** SEP Y 9
     6 GLP5        3 GROUP        1 Y    GLP  0     **** GLP Y 13
     7 ALL1       48 GROUP        1 Z    ALL  0     ROOT ALL Z 15
     8 SEL2       45 GROUP        1 Z    SEL  0     **** SEL Z 16
     9 GLL5        2 GROUP        1 Z    GLL  0     **** GLL Z 20
@<TRIPOS>SET

