#    Name: 3dya_PZL_1_ligand
#    Modification time : Tue Mar 25 00:37:31 2014

@<TRIPOS>MOLECULE
3dya_PZL_1_ligand
   38    41     1     0     0
SMALL
NO_CHARGES


@<TRIPOS>ATOM
      1 N19        49.3940   66.2110   23.5460 N.1       1 PZL562      0.0000 
      2 C16        49.1770   65.7480   22.5070 C.1       1 PZL562      0.0000 
      3 C13        48.9540   65.0650   21.4540 C.ar      1 PZL562      0.0000 
      4 C12        48.8890   63.6860   21.5910 C.ar      1 PZL562      0.0000 
      5 C11        48.6160   62.9020   20.4850 C.ar      1 PZL562      0.0000 
      6 CL15       48.5710   61.1260   20.6250 Cl        1 PZL562      0.0000 
      7 C10        48.4050   63.4700   19.2490 C.ar      1 PZL562      0.0000 
      8 C14        48.7370   65.6520   20.2090 C.ar      1 PZL562      0.0000 
      9 C9         48.4650   64.8410   19.1070 C.ar      1 PZL562      0.0000 
     10 O8         48.2110   65.3760   17.8640 O.3       1 PZL562      0.0000 
     11 C3         48.8460   64.9760   16.7290 C.ar      1 PZL562      0.0000 
     12 C4         48.0450   64.5980   15.7080 C.ar      1 PZL562      0.0000 
     13 BR17       46.2140   64.6820   16.0970 Br        1 PZL562      0.0000 
     14 C2         50.2190   64.9580   16.5960 C.ar      1 PZL562      0.0000 
     15 F5         50.9460   65.3450   17.6410 F         1 PZL562      0.0000 
     16 C6         50.7820   64.5170   15.3960 C.ar      1 PZL562      0.0000 
     17 C7         49.9530   64.1460   14.3460 C.ar      1 PZL562      0.0000 
     18 C1         48.5730   64.1710   14.4940 C.ar      1 PZL562      0.0000 
     19 C18        52.2760   64.5170   15.1590 C.3       1 PZL562      0.0000 
     20 C26        52.4850   65.8990   14.5660 C.2       1 PZL562      0.0000 
     21 N27        52.3700   66.2410   13.2610 N.2       1 PZL562      0.0000 
     22 N28        52.5870   67.6250   13.1120 N.pl3     1 PZL562      0.0000 
     23 C24        52.7980   68.0940   14.3400 C.ar      1 PZL562      0.0000 
     24 N20        53.0480   69.3770   14.7070 N.ar      1 PZL562      0.0000 
     25 C25        52.7360   67.0680   15.2530 C.ar      1 PZL562      0.0000 
     26 C23        52.9380   67.3310   16.5990 C.ar      1 PZL562      0.0000 
     27 C22        53.2020   68.6400   17.0060 C.ar      1 PZL562      0.0000 
     28 N21        53.2500   69.6300   16.0920 N.ar      1 PZL562      0.0000 
     29 H          49.0430   63.2519   22.5092 H         1 PZL562      0.0000 
     30 H          48.2030   62.8749   18.4323 H         1 PZL562      0.0000 
     31 H          48.7766   66.6688   20.1032 H         1 PZL562      0.0000 
     32 H          50.3665   63.8490   13.4473 H         1 PZL562      0.0000 
     33 H          47.9611   63.8840   13.7333 H         1 PZL562      0.0000 
     34 H          52.5319   63.7794   14.4510 H         1 PZL562      0.0000 
     35 H          52.7897   64.4376   16.0759 H         1 PZL562      0.0000 
     36 H          52.5755   68.0821   12.2886 H         1 PZL562      0.0000 
     37 H          52.8950   66.5777   17.2895 H         1 PZL562      0.0000 
     38 H          53.3573   68.8277   18.0104 H         1 PZL562      0.0000 
@<TRIPOS>BOND
     1    2    1 3    
     2    3    2 1    
     3    4    3 ar   
     4    8    3 ar   
     5    5    4 ar   
     6   29    4 1    
     7    6    5 1    
     8    7    5 ar   
     9    9    7 ar   
    10   30    7 1    
    11    9    8 ar   
    12   31    8 1    
    13   10    9 1    
    14   11   10 1    
    15   12   11 ar   
    16   14   11 ar   
    17   13   12 1    
    18   18   12 ar   
    19   15   14 1    
    20   16   14 ar   
    21   17   16 ar   
    22   19   16 1    
    23   18   17 ar   
    24   32   17 1    
    25   33   18 1    
    26   20   19 1    
    27   34   19 1    
    28   35   19 1    
    29   21   20 2    
    30   25   20 1    
    31   22   21 1    
    32   23   22 1    
    33   36   22 1    
    34   24   23 ar   
    35   25   23 ar   
    36   28   24 ar   
    37   26   25 ar   
    38   27   26 ar   
    39   37   26 1    
    40   28   27 ar   
    41   38   27 1    
@<TRIPOS>SUBSTRUCTURE
     1 PZL562      1 GROUP   
@<TRIPOS>SET

