#    Name: 2o0l_S4M_1_INTS_M
#    Modification time : Tue Mar 25 21:47:09 2014

@<TRIPOS>MOLECULE
2o0l_S4M_1_INTS_M
   84     0    12     0     0
SMALL
NO_CHARGES


@<TRIPOS>ATOM
      1 CA         30.5565   27.7080   71.1235 C.3       4 GLC5        0.0000 
      2 CA         29.3720   27.7840   72.5130 C.3      12 GLL5        0.0000 
      3 CA         31.7410   27.6320   69.7340 C.3       8 GLP5        0.0000 
      4 OD1        30.8800   27.8205   75.0840 O.co2     3 ASC3        0.0000 
      5 OD1        30.5300   28.1670   73.3670 O.co2    11 ASL3        0.0000 
      6 OD1        31.2300   27.4740   76.8010 O.co2     7 ASP3        0.0000 
      7 OD1        29.8805   28.0860   74.6925 O.co2     3 ASC3        0.0000 
      8 OD1        29.2310   28.0050   76.0180 O.co2     7 ASP3        0.0000 
      9 OD1        30.8470   29.2335   72.3120 O.co2     3 ASC3        0.0000 
     10 OD1        31.1640   30.3000   71.2570 O.co2     7 ASP3        0.0000 
     11 OD1        31.1240   29.3175   73.3615 O.co2     3 ASC3        0.0000 
     12 OD1        31.7180   30.4680   73.3560 O.co2     7 ASP3        0.0000 
     13 O          31.5230   27.3020   73.1680 O.2       1 ALC1        0.0000 
     14 O          30.5300   28.1670   73.3670 O.2       9 ALL1        0.0000 
     15 O          32.5160   26.4370   72.9690 O.2       5 ALP1        0.0000 
     16 O          29.8805   28.0860   74.6925 O.2       1 ALC1        0.0000 
     17 O          29.2310   28.0050   76.0180 O.2       5 ALP1        0.0000 
     18 O          31.1240   29.3175   73.3615 O.2       1 ALC1        0.0000 
     19 O          31.7180   30.4680   73.3560 O.2       5 ALP1        0.0000 
     20 CA         30.2080   31.6360   75.0935 C.3       4 GLC5        0.0000 
     21 CA         28.2560   30.9090   74.3010 C.3      12 GLL5        0.0000 
     22 CA         32.1600   32.3630   75.8860 C.3       8 GLP5        0.0000 
     23 CA         25.8015   29.1210   76.5130 C.3       4 GLC5        0.0000 
     24 CA         26.9180   30.2560   75.3430 C.3      12 GLL5        0.0000 
     25 CA         24.6850   27.9860   77.6830 C.3       8 GLP5        0.0000 
     26 CA         25.1175   31.0245   75.4230 C.3       4 GLC5        0.0000 
     27 CA         23.3170   31.7930   75.5030 C.3       8 GLP5        0.0000 
     28 CA         25.6340   28.9635   74.4725 C.3       4 GLC5        0.0000 
     29 CA         24.3500   27.6710   73.6020 C.3       8 GLP5        0.0000 
     30 CA         26.3270   30.9815   77.3750 C.3       4 GLC5        0.0000 
     31 CA         25.7360   31.7070   79.4070 C.3       8 GLP5        0.0000 
     32 CA         28.1185   33.3980   71.7440 C.3       4 GLC5        0.0000 
     33 CA         27.5130   32.4650   73.6640 C.3      12 GLL5        0.0000 
     34 CA         28.7240   34.3310   69.8240 C.3       8 GLP5        0.0000 
     35 CA         25.8845   33.3770   72.7150 C.3       4 GLC5        0.0000 
     36 CA         24.2560   34.2890   71.7660 C.3       8 GLP5        0.0000 
     37 CA         29.3445   34.7010   74.6050 C.3       4 GLC5        0.0000 
     38 CA         27.7040   33.6460   74.6130 C.3      12 GLL5        0.0000 
     39 CA         30.9850   35.7560   74.5970 C.3       8 GLP5        0.0000 
     40 CA         29.0940   35.8160   74.7375 C.3       4 GLC5        0.0000 
     41 CA         27.2030   35.8760   74.8780 C.3      12 GLL5        0.0000 
     42 CA         26.4560   37.7215   75.8430 C.3       4 GLC5        0.0000 
     43 CA         25.7090   39.5670   76.8080 C.3       8 GLP5        0.0000 
     44 N          23.9545   35.6360   76.9505 N.am      2 SEC2        0.0000 
     45 N          25.4710   35.6910   76.5930 N.am     10 SEL2        0.0000 
     46 N          22.4380   35.5810   77.3080 N.am      6 SEP2        0.0000 
     47 O          26.3550   36.1165   77.3595 O.2       1 ALC1        0.0000 
     48 O          25.4710   35.6910   76.5930 O.2       9 ALL1        0.0000 
     49 O          27.2390   36.5420   78.1260 O.2       5 ALP1        0.0000 
     50 CA         26.1340   32.7285   77.4990 C.3       4 GLC5        0.0000 
     51 CA         26.5320   33.7500   75.5910 C.3      12 GLL5        0.0000 
     52 O          27.9855   34.3730   77.2990 O.2       1 ALC1        0.0000 
     53 O          27.0770   33.6100   76.8850 O.2       9 ALL1        0.0000 
     54 O          28.8940   35.1360   77.7130 O.2       5 ALP1        0.0000 
     55 CA         27.1240   40.6445   75.2830 C.3       4 GLC5        0.0000 
     56 CA         27.6240   40.5480   73.3700 C.3      12 GLL5        0.0000 
     57 CA         26.6240   40.7410   77.1960 C.3       8 GLP5        0.0000 
     58 CA         28.1365   42.4260   74.2945 C.3       4 GLC5        0.0000 
     59 CA         28.6490   44.3040   75.2190 C.3       8 GLP5        0.0000 
     60 O          27.5230   42.9290   72.5080 O.2       1 ALC1        0.0000 
     61 O          27.0800   41.5240   72.6210 O.2       9 ALL1        0.0000 
     62 O          27.9660   44.3340   72.3950 O.2       5 ALP1        0.0000 
     63 CA         29.3240   37.0295   74.4410 C.3       4 GLC5        0.0000 
     64 CA         27.6630   38.3030   74.2850 C.3      12 GLL5        0.0000 
     65 N          28.6515   39.0145   76.5800 N.am      2 SEC2        0.0000 
     66 N          28.8230   38.5710   74.9410 N.am     10 SEL2        0.0000 
     67 N          28.4800   39.4580   78.2190 N.am      6 SEP2        0.0000 
     68 CA         30.9300   39.6140   73.5020 C.3       4 GLC5        0.0000 
     69 CA         29.4080   39.8150   74.8280 C.3      12 GLL5        0.0000 
     70 CA         32.4520   39.4130   72.1760 C.3       8 GLP5        0.0000 
     71 CA         30.1965   37.7855   74.7125 C.3       4 GLC5        0.0000 
     72 CA         30.0055   39.0455   76.6870 C.3       4 GLC5        0.0000 
     73 CA         30.6030   38.2760   78.5460 C.3       8 GLP5        0.0000 
     74 CA         28.0160   40.2780   76.0120 C.3       4 GLC5        0.0000 
     75 CA         30.5655   41.3990   74.1155 C.3       4 GLC5        0.0000 
     76 CA         31.7230   42.9830   73.4030 C.3       8 GLP5        0.0000 
     77 N          29.6020   41.9655   74.0400 N.am      2 SEC2        0.0000 
     78 N          28.7960   40.7820   74.0530 N.am     10 SEL2        0.0000 
     79 N          30.4080   43.1490   74.0270 N.am      6 SEP2        0.0000 
     80 CA         26.2037   28.4400   73.2452 C.3       4 GLC5        0.0000 
     81 CA         28.0150   29.9630   72.7640 C.3      12 GLL5        0.0000 
     82 CA         24.7830   33.1208   75.4960 C.3       4 GLC5        0.0000 
     83 CA         25.2525   34.3688   73.6275 C.3       4 GLC5        0.0000 
     84 CA         26.5332   39.1763   75.3428 C.3       4 GLC5        0.0000 
@<TRIPOS>BOND
@<TRIPOS>SUBSTRUCTURE
     1 ALC1       13 GROUP        1 X    ALC  0     ROOT ALC X 1
     2 SEC2       44 GROUP        1 X    SEC  0     **** SEC X 2
     3 ASC3        4 GROUP        1 X    ASC  0     **** ASC X 3
     4 GLC5        1 GROUP        1 X    GLC  0     **** GLC X 6
     5 ALP1       15 GROUP        1 Y    ALP  0     ROOT ALP Y 8
     6 SEP2       46 GROUP        1 Y    SEP  0     **** SEP Y 9
     7 ASP3        6 GROUP        1 Y    ASP  0     **** ASP Y 10
     8 GLP5        3 GROUP        1 Y    GLP  0     **** GLP Y 13
     9 ALL1       14 GROUP        1 Z    ALL  0     ROOT ALL Z 15
    10 SEL2       45 GROUP        1 Z    SEL  0     **** SEL Z 16
    11 ASL3        5 GROUP        1 Z    ASL  0     **** ASL Z 17
    12 GLL5        2 GROUP        1 Z    GLL  0     **** GLL Z 20
@<TRIPOS>SET

