#    Name: 2o0l_S4M_1_ligand
#    Modification time : Tue Mar 25 21:47:10 2014

@<TRIPOS>MOLECULE
2o0l_S4M_1_ligand
   48    50     1     0     0
SMALL
NO_CHARGES


@<TRIPOS>ATOM
      1 CA         29.3720   27.7840   72.5130 C.3       1 S4M501      0.0000 
      2 N          30.5300   28.1670   73.3670 N.4       1 S4M501      0.0000 
      3 CB         28.1000   28.4550   73.0130 C.3       1 S4M501      0.0000 
      4 CG         28.0150   29.9630   72.7640 C.3       1 S4M501      0.0000 
      5 SD         28.2560   30.9090   74.3010 S.3       1 S4M501      0.0000 
      6 CE         26.9180   30.2560   75.3430 C.3       1 S4M501      0.0000 
      7 C5'        27.5130   32.4650   73.6640 C.3       1 S4M501      0.0000 
      8 C4'        27.7040   33.6460   74.6130 C.3       1 S4M501      0.0000 
      9 O4'        27.7730   34.9210   73.9880 O.3       1 S4M501      0.0000 
     10 C1'        27.2030   35.8760   74.8780 C.3       1 S4M501      0.0000 
     11 C2'        25.9660   35.1470   75.3870 C.3       1 S4M501      0.0000 
     12 O2'        25.4710   35.6910   76.5930 O.3       1 S4M501      0.0000 
     13 C3'        26.5320   33.7500   75.5910 C.3       1 S4M501      0.0000 
     14 O3'        27.0770   33.6100   76.8850 O.3       1 S4M501      0.0000 
     15 N9         26.9020   37.1680   74.2030 N.pl3     1 S4M501      0.0000 
     16 C8         25.8370   37.4430   73.3740 C.2       1 S4M501      0.0000 
     17 N7         25.9300   38.7110   72.9350 N.2       1 S4M501      0.0000 
     18 C5         27.0520   39.2680   73.4700 C.ar      1 S4M501      0.0000 
     19 C6         27.6240   40.5480   73.3700 C.ar      1 S4M501      0.0000 
     20 N6         27.0800   41.5240   72.6210 N.pl3     1 S4M501      0.0000 
     21 C4         27.6630   38.3030   74.2850 C.ar      1 S4M501      0.0000 
     22 N3         28.8230   38.5710   74.9410 N.ar      1 S4M501      0.0000 
     23 C2         29.4080   39.8150   74.8280 C.ar      1 S4M501      0.0000 
     24 N1         28.7960   40.7820   74.0530 N.ar      1 S4M501      0.0000 
     25 H          29.2307   26.7016   72.5341 H         1 S4M501      0.0000 
     26 H          29.5488   28.0901   71.4800 H         1 S4M501      0.0000 
     27 H          28.0000   28.2702   74.1014 H         1 S4M501      0.0000 
     28 H          27.2255   27.9681   72.5365 H         1 S4M501      0.0000 
     29 H          27.0509   30.2904   72.4452 H         1 S4M501      0.0000 
     30 H          28.7961   30.3387   72.1419 H         1 S4M501      0.0000 
     31 H          26.4887   32.1782   73.5285 H         1 S4M501      0.0000 
     32 H          28.0159   32.5779   72.7237 H         1 S4M501      0.0000 
     33 H          28.5914   33.4686   75.2218 H         1 S4M501      0.0000 
     34 H          27.8559   36.0244   75.7233 H         1 S4M501      0.0000 
     35 H          25.2661   35.0994   74.5938 H         1 S4M501      0.0000 
     36 H          25.8198   33.0314   75.3389 H         1 S4M501      0.0000 
     37 H          25.1399   36.8100   73.1532 H         1 S4M501      0.0000 
     38 H          27.5931   42.3811   72.5749 H         1 S4M501      0.0000 
     39 H          26.2110   41.3054   72.1771 H         1 S4M501      0.0000 
     40 H          30.2885   40.0217   75.3138 H         1 S4M501      0.0000 
     41 H          31.3780   27.7365   73.0577 H         1 S4M501      0.0000 
     42 H          30.6842   29.1550   73.3623 H         1 S4M501      0.0000 
     43 H          30.3944   27.8960   74.3200 H         1 S4M501      0.0000 
     44 H          26.9007   29.2561   75.3420 H         1 S4M501      0.0000 
     45 H          27.0133   30.5465   76.2951 H         1 S4M501      0.0000 
     46 H          26.0196   30.5650   75.0308 H         1 S4M501      0.0000 
     47 H          26.1503   36.3715   76.8679 H         1 S4M501      0.0000 
     48 H          28.0267   33.9115   76.7998 H         1 S4M501      0.0000 
@<TRIPOS>BOND
     1    2    1 1    
     2    3    1 1    
     3   25    1 1    
     4   26    1 1    
     5   41    2 1    
     6   42    2 1    
     7   43    2 1    
     8    4    3 1    
     9   27    3 1    
    10   28    3 1    
    11    5    4 1    
    12   29    4 1    
    13   30    4 1    
    14    6    5 1    
    15    7    5 1    
    16   44    6 1    
    17   45    6 1    
    18   46    6 1    
    19    8    7 1    
    20   31    7 1    
    21   32    7 1    
    22    9    8 1    
    23   13    8 1    
    24   33    8 1    
    25   10    9 1    
    26   11   10 1    
    27   15   10 1    
    28   34   10 1    
    29   12   11 1    
    30   13   11 1    
    31   35   11 1    
    32   47   12 1    
    33   14   13 1    
    34   36   13 1    
    35   48   14 1    
    36   16   15 1    
    37   21   15 1    
    38   17   16 2    
    39   37   16 1    
    40   18   17 1    
    41   19   18 ar   
    42   21   18 ar   
    43   20   19 1    
    44   24   19 ar   
    45   38   20 1    
    46   39   20 1    
    47   22   21 ar   
    48   23   22 ar   
    49   24   23 ar   
    50   40   23 1    
@<TRIPOS>SUBSTRUCTURE
     1 S4M501      1 GROUP   
@<TRIPOS>SET

