#    Name: 4ivw_1GJ_2_INTS_M
#    Modification time : Tue Mar 25 04:44:52 2014

@<TRIPOS>MOLECULE
4ivw_1GJ_2_INTS_M
  102     0     9     0     0
SMALL
NO_CHARGES


@<TRIPOS>ATOM
      1 N           5.8065    7.9615   35.5055 N.am      2 SEC2        0.0000 
      2 N           6.4680    6.7990   35.2600 N.am      8 SEL2        0.0000 
      3 N           5.1450    9.1240   35.7510 N.am      5 SEP2        0.0000 
      4 O           6.3320    5.8200   36.0300 O.2       1 ALC1        0.0000 
      5 O           6.4680    6.7990   35.2600 O.2       7 ALL1        0.0000 
      6 O           6.1960    4.8410   36.8000 O.2       4 ALP1        0.0000 
      7 O           5.3145    6.1760   35.8440 O.2       1 ALC1        0.0000 
      8 O           4.1610    5.5530   36.4280 O.2       4 ALP1        0.0000 
      9 CA          7.2690    8.4510   32.6630 C.3       3 GLC5        0.0000 
     10 CA          7.9220    6.8150   33.2720 C.3       9 GLL5        0.0000 
     11 CA          6.6160   10.0870   32.0540 C.3       6 GLP5        0.0000 
     12 CA          9.1510    6.5350   30.4235 C.3       3 GLC5        0.0000 
     13 CA          9.2230    6.5440   32.6460 C.3       9 GLL5        0.0000 
     14 CA          9.0790    6.5260   28.2010 C.3       6 GLP5        0.0000 
     15 CA          9.1445    8.5465   32.4150 C.3       3 GLC5        0.0000 
     16 CA          9.0660   10.5490   32.1840 C.3       6 GLP5        0.0000 
     17 CA         11.1560    4.3020   31.2885 C.3       3 GLC5        0.0000 
     18 CA         11.6300    5.7130   32.7940 C.3       9 GLL5        0.0000 
     19 CA         10.6820    2.8910   29.7830 C.3       6 GLP5        0.0000 
     20 CA         11.3670    7.6570   33.8585 C.3       3 GLC5        0.0000 
     21 CA         11.1040    9.6010   34.9230 C.3       6 GLP5        0.0000 
     22 CA         12.1270    6.4900   29.9150 C.3       3 GLC5        0.0000 
     23 CA         12.4810    6.7190   32.0960 C.3       9 GLL5        0.0000 
     24 CA         11.7730    6.2610   27.7340 C.3       6 GLP5        0.0000 
     25 CA         10.7105    9.3830   32.0125 C.3       3 GLC5        0.0000 
     26 CA         12.3550    8.2170   31.8410 C.3       9 GLL5        0.0000 
     27 CA         13.7775    3.4475   28.7280 C.3       3 GLC5        0.0000 
     28 CA         15.4040    4.7380   29.5890 C.3       9 GLL5        0.0000 
     29 CA         12.1510    2.1570   27.8670 C.3       6 GLP5        0.0000 
     30 CA         13.5885    5.4995   28.6615 C.3       3 GLC5        0.0000 
     31 CA         15.8485    3.0500   30.2965 C.3       3 GLC5        0.0000 
     32 CA         16.2930    1.3620   31.0040 C.3       6 GLP5        0.0000 
     33 CA         17.3165    5.2305   33.4895 C.3       3 GLC5        0.0000 
     34 CA         16.6880    5.3440   31.3840 C.3       9 GLL5        0.0000 
     35 CA         17.9450    5.1170   35.5950 C.3       6 GLP5        0.0000 
     36 CA         16.6390    3.4990   31.9290 C.3       3 GLC5        0.0000 
     37 CA         16.5900    1.6540   32.4740 C.3       6 GLP5        0.0000 
     38 CA         10.9305    1.3150   32.5140 C.3       3 GLC5        0.0000 
     39 CA         11.7470    3.1420   33.2550 C.3       9 GLL5        0.0000 
     40 CA         10.1140   -0.5120   31.7730 C.3       6 GLP5        0.0000 
     41 CA         11.2145    3.0165   31.5190 C.3       3 GLC5        0.0000 
     42 CA          9.7945    2.6125   33.1795 C.3       3 GLC5        0.0000 
     43 CA          7.8420    2.0830   33.1040 C.3       6 GLP5        0.0000 
     44 CA         12.1025   -0.5385   34.6365 C.3       3 GLC5        0.0000 
     45 CA         13.1200    1.0360   34.1240 C.3       9 GLL5        0.0000 
     46 CA         11.0850   -2.1130   35.1490 C.3       6 GLP5        0.0000 
     47 CA         14.4840    0.2240   37.0230 C.3       3 GLC5        0.0000 
     48 CA         14.1970    0.4380   34.9300 C.3       9 GLL5        0.0000 
     49 CA         14.7710    0.0100   39.1160 C.3       6 GLP5        0.0000 
     50 CA         14.9790    1.4100   37.5260 C.3       3 GLC5        0.0000 
     51 CA         15.0770    1.3000   35.7290 C.3       9 GLL5        0.0000 
     52 CA         14.8810    1.5200   39.3230 C.3       6 GLP5        0.0000 
     53 CA         16.4150    3.9345   35.6635 C.3       3 GLC5        0.0000 
     54 CA         14.8850    2.7520   35.7320 C.3       9 GLL5        0.0000 
     55 O          11.4520    4.6355   36.8875 O.2       1 ALC1        0.0000 
     56 O          11.2660    5.1730   35.5660 O.2       7 ALL1        0.0000 
     57 O          11.6380    4.0980   38.2090 O.2       4 ALP1        0.0000 
     58 CA          8.4665    6.7495   37.3795 C.3       3 GLC5        0.0000 
     59 CA          8.8460    5.9700   35.4670 C.3       9 GLL5        0.0000 
     60 CA          8.0870    7.5290   39.2920 C.3       6 GLP5        0.0000 
     61 CA          7.5584    5.2035   32.5435 C.3       3 GLC5        0.0000 
     62 CA          7.7470    6.5330   34.6600 C.3       9 GLL5        0.0000 
     63 CA          6.5880    3.7980   31.7810 C.3       6 GLP5        0.0000 
     64 CA         13.2025    6.8400   29.2278 C.3       3 GLC5        0.0000 
     65 CA         14.5820    8.1600   30.5920 C.3       9 GLL5        0.0000 
     66 CA         12.6348    9.5946   30.0244 C.3       3 GLC5        0.0000 
     67 CA         11.5370   10.8260   29.0180 C.3       6 GLP5        0.0000 
     68 CA         15.9296    8.5225   31.2980 C.3       3 GLC5        0.0000 
     69 CA         13.4110    8.9160   31.0980 C.3       9 GLL5        0.0000 
     70 CA         17.5200    9.4370   31.7480 C.3       6 GLP5        0.0000 
     71 CA         14.4691    8.4130   29.0265 C.3       3 GLC5        0.0000 
     72 CA         14.5990    9.2180   27.2050 C.3       6 GLP5        0.0000 
     73 CA         17.3951    7.0394   31.3035 C.3       3 GLC5        0.0000 
     74 CA         15.9190    5.8130   30.3100 C.3       9 GLL5        0.0000 
     75 CA         18.3180    7.9820   32.4300 C.3       6 GLP5        0.0000 
     76 CA         16.7206    6.7281   28.3146 C.3       3 GLC5        0.0000 
     77 CA         16.6410    6.6150   29.5070 C.3       9 GLL5        0.0000 
     78 CA         17.2900    7.5110   26.9010 C.3       6 GLP5        0.0000 
     79 CA         15.8521    5.0456   28.1816 C.3       3 GLC5        0.0000 
     80 CA         15.5530    4.1460   26.6350 C.3       6 GLP5        0.0000 
     81 CA         18.1641    5.5769   30.3870 C.3       3 GLC5        0.0000 
     82 CA         19.8560    5.0570   30.5970 C.3       6 GLP5        0.0000 
     83 CA         11.2309    2.0029   35.1359 C.3       3 GLC5        0.0000 
     84 CA         12.9280    2.4850   34.1280 C.3       9 GLL5        0.0000 
     85 CA          9.7330    2.0810   36.3640 C.3       6 GLP5        0.0000 
     86 CA         13.7759    1.4769   32.3504 C.3       3 GLC5        0.0000 
     87 CA         14.8230    1.0290   30.7930 C.3       6 GLP5        0.0000 
     88 CA         15.6135    1.2615   33.9017 C.3       3 GLC5        0.0000 
     89 CA         15.7025   -0.4195   35.7572 C.3       3 GLC5        0.0000 
     90 CA         16.7680   -1.7080   36.1850 C.3       6 GLP5        0.0000 
     91 CA         13.4975   -0.4470   36.3132 C.3       3 GLC5        0.0000 
     92 CA         12.3580   -1.7630   37.2970 C.3       6 GLP5        0.0000 
     93 CA         16.8290    1.4845   35.5252 C.3       3 GLC5        0.0000 
     94 CA         18.6770    0.9430   35.3200 C.3       6 GLP5        0.0000 
     95 CA         14.1202    4.7355   36.4153 C.3       3 GLC5        0.0000 
     96 CA         13.8940    6.4190   37.5010 C.3       6 GLP5        0.0000 
     97 CA         13.9623    2.6310   37.1303 C.3       3 GLC5        0.0000 
     98 CA         13.8080    3.3520   34.9270 C.3       9 GLL5        0.0000 
     99 CA         13.5780    2.2100   38.9310 C.3       6 GLP5        0.0000 
    100 CA         15.4683    2.3530   33.9017 C.3       3 GLC5        0.0000 
    101 CA          9.6173    3.9598   35.7575 C.3       3 GLC5        0.0000 
    102 CA         10.1570    5.7070   34.8350 C.3       9 GLL5        0.0000 
@<TRIPOS>BOND
@<TRIPOS>SUBSTRUCTURE
     1 ALC1        4 GROUP        1 X    ALC  0     ROOT ALC X 1
     2 SEC2        1 GROUP        1 X    SEC  0     **** SEC X 2
     3 GLC5        9 GROUP        1 X    GLC  0     **** GLC X 6
     4 ALP1        6 GROUP        1 Y    ALP  0     ROOT ALP Y 8
     5 SEP2        3 GROUP        1 Y    SEP  0     **** SEP Y 9
     6 GLP5       11 GROUP        1 Y    GLP  0     **** GLP Y 13
     7 ALL1        5 GROUP        1 Z    ALL  0     ROOT ALL Z 15
     8 SEL2        2 GROUP        1 Z    SEL  0     **** SEL Z 16
     9 GLL5       10 GROUP        1 Z    GLL  0     **** GLL Z 20
@<TRIPOS>SET

