#    Name: 4ivw_1GJ_2_ligand
#    Modification time : Tue Mar 25 04:44:52 2014

@<TRIPOS>MOLECULE
4ivw_1GJ_2_ligand
   43    46     1     0     0
SMALL
NO_CHARGES


@<TRIPOS>ATOM
      1 O01         6.4680    6.7990   35.2600 O.3       1 1GJ601      0.0000 
      2 C02         7.7470    6.5330   34.6600 C.ar      1 1GJ601      0.0000 
      3 C03         7.9220    6.8150   33.2720 C.ar      1 1GJ601      0.0000 
      4 C04         9.2230    6.5440   32.6460 C.ar      1 1GJ601      0.0000 
      5 C05        10.3130    5.9940   33.4640 C.ar      1 1GJ601      0.0000 
      6 C06        11.6300    5.7130   32.7940 C.2       1 1GJ601      0.0000 
      7 C07        12.4810    6.7190   32.0960 C.ar      1 1GJ601      0.0000 
      8 C08        12.3550    8.2170   31.8410 C.ar      1 1GJ601      0.0000 
      9 C09        13.4110    8.9160   31.0980 C.ar      1 1GJ601      0.0000 
     10 C10        14.5820    8.1600   30.5920 C.ar      1 1GJ601      0.0000 
     11 C11        14.6820    6.6780   30.8510 C.ar      1 1GJ601      0.0000 
     12 C12        15.9190    5.8130   30.3100 C.3       1 1GJ601      0.0000 
     13 F13        15.4040    4.7380   29.5890 F         1 1GJ601      0.0000 
     14 F14        16.6880    5.3440   31.3840 F         1 1GJ601      0.0000 
     15 F15        16.6410    6.6150   29.5070 F         1 1GJ601      0.0000 
     16 C16        13.6420    5.9680   31.5910 C.ar      1 1GJ601      0.0000 
     17 N17        13.5100    4.5830   31.9580 N.2       1 1GJ601      0.0000 
     18 N18        12.2600    4.4310   32.6970 N.pl3     1 1GJ601      0.0000 
     19 C19        11.7470    3.1420   33.2550 C.3       1 1GJ601      0.0000 
     20 C20        12.9280    2.4850   34.1280 C.ar      1 1GJ601      0.0000 
     21 C21        13.1200    1.0360   34.1240 C.ar      1 1GJ601      0.0000 
     22 C22        14.1970    0.4380   34.9300 C.ar      1 1GJ601      0.0000 
     23 C23        15.0770    1.3000   35.7290 C.ar      1 1GJ601      0.0000 
     24 C24        14.8850    2.7520   35.7320 C.ar      1 1GJ601      0.0000 
     25 C25        13.8080    3.3520   34.9270 C.ar      1 1GJ601      0.0000 
     26 C26        10.1570    5.7070   34.8350 C.ar      1 1GJ601      0.0000 
     27 O27        11.2660    5.1730   35.5660 O.3       1 1GJ601      0.0000 
     28 C28         8.8460    5.9700   35.4670 C.ar      1 1GJ601      0.0000 
     29 H           7.1785    7.1932   32.7153 H         1 1GJ601      0.0000 
     30 H           9.3652    6.7309   31.6775 H         1 1GJ601      0.0000 
     31 H          11.5576    8.6924   32.1840 H         1 1GJ601      0.0000 
     32 H          13.3467    9.8987   30.9304 H         1 1GJ601      0.0000 
     33 H          15.3008    8.6164   30.0852 H         1 1GJ601      0.0000 
     34 H          11.5053    2.4446   32.4789 H         1 1GJ601      0.0000 
     35 H          10.9190    3.2999   33.9158 H         1 1GJ601      0.0000 
     36 H          12.5229    0.4476   33.5760 H         1 1GJ601      0.0000 
     37 H          14.3277   -0.5541   34.9322 H         1 1GJ601      0.0000 
     38 H          15.8142    0.8902   36.2759 H         1 1GJ601      0.0000 
     39 H          15.4838    3.3391   36.2799 H         1 1GJ601      0.0000 
     40 H          13.6761    4.3416   34.9237 H         1 1GJ601      0.0000 
     41 H           8.7075    5.7674   36.4331 H         1 1GJ601      0.0000 
     42 H           6.0977    5.8989   35.4893 H         1 1GJ601      0.0000 
     43 H          10.8851    4.8962   36.4482 H         1 1GJ601      0.0000 
@<TRIPOS>BOND
     1    2    1 1    
     2   42    1 1    
     3    3    2 ar   
     4   28    2 ar   
     5    4    3 ar   
     6   29    3 1    
     7    5    4 ar   
     8   30    4 1    
     9    6    5 1    
    10   26    5 ar   
    11    7    6 2    
    12   18    6 1    
    13    8    7 ar   
    14   16    7 ar   
    15    9    8 ar   
    16   31    8 1    
    17   10    9 ar   
    18   32    9 1    
    19   11   10 ar   
    20   33   10 1    
    21   12   11 1    
    22   16   11 ar   
    23   13   12 1    
    24   14   12 1    
    25   15   12 1    
    26   17   16 2    
    27   18   17 1    
    28   19   18 1    
    29   20   19 1    
    30   34   19 1    
    31   35   19 1    
    32   21   20 ar   
    33   25   20 ar   
    34   22   21 ar   
    35   36   21 1    
    36   23   22 ar   
    37   37   22 1    
    38   24   23 ar   
    39   38   23 1    
    40   25   24 ar   
    41   39   24 1    
    42   40   25 1    
    43   27   26 1    
    44   28   26 ar   
    45   43   27 1    
    46   41   28 1    
@<TRIPOS>SUBSTRUCTURE
     1 1GJ601      1 GROUP   
@<TRIPOS>SET

