#    Name: 3v7r_32G_1_INTS_M
#    Modification time : Tue Mar 25 00:07:19 2014

@<TRIPOS>MOLECULE
3v7r_32G_1_INTS_M
  101     0     9     0     0
SMALL
NO_CHARGES


@<TRIPOS>ATOM
      1 N          49.2440   25.9725   22.0455 N.am      2 SEC2        0.0000 
      2 N          50.5120   25.3200   21.8410 N.am      8 SEL2        0.0000 
      3 N          47.9760   26.6250   22.2500 N.am      5 SEP2        0.0000 
      4 CA         50.6810   25.9515   18.6140 C.3       3 GLC5        0.0000 
      5 CA         51.1550   25.5720   20.6830 C.3       9 GLL5        0.0000 
      6 CA         50.2070   26.3310   16.5450 C.3       6 GLP5        0.0000 
      7 CA         52.8625   25.9870   22.0785 C.3       3 GLC5        0.0000 
      8 CA         54.5700   26.4020   23.4740 C.3       6 GLP5        0.0000 
      9 CA         51.4840   27.5115   20.8100 C.3       3 GLC5        0.0000 
     10 CA         51.8130   29.4510   20.9370 C.3       6 GLP5        0.0000 
     11 O          50.3710   23.3600   25.1485 O.2       1 ALC1        0.0000 
     12 O          50.2710   24.2520   23.8500 O.2       7 ALL1        0.0000 
     13 O          50.4710   22.4680   26.4470 O.2       4 ALP1        0.0000 
     14 O          48.9550   24.9095   24.0035 O.2       1 ALC1        0.0000 
     15 O          47.6390   25.5670   24.1570 O.2       4 ALP1        0.0000 
     16 N          52.9135   22.1330   24.3810 N.am      2 SEC2        0.0000 
     17 N          52.8910   22.8640   23.1150 N.am      8 SEL2        0.0000 
     18 N          52.9360   21.4020   25.6470 N.am      5 SEP2        0.0000 
     19 N          49.5710   12.8980   26.8385 N.am      2 SEC2        0.0000 
     20 N          49.7860   13.7980   25.9290 N.am      8 SEL2        0.0000 
     21 N          49.3560   11.9980   27.7480 N.am      5 SEP2        0.0000 
     22 N          51.2430   14.2845   25.7175 N.am      2 SEC2        0.0000 
     23 N          52.7000   14.7710   25.5060 N.am      5 SEP2        0.0000 
     24 CA         49.4010   19.5730   17.7505 C.3       3 GLC5        0.0000 
     25 CA         51.5380   19.2260   17.5100 C.3       9 GLL5        0.0000 
     26 CA         47.2640   19.9200   17.9910 C.3       6 GLP5        0.0000 
     27 CA         48.3855   14.5380   18.9860 C.3       3 GLC5        0.0000 
     28 CA         48.8650   16.2170   19.8850 C.3       9 GLL5        0.0000 
     29 CA         47.9060   12.8590   18.0870 C.3       6 GLP5        0.0000 
     30 CA         50.4665   18.6400   20.3520 C.3       3 GLC5        0.0000 
     31 CA         50.0040   16.9500   19.2460 C.3       9 GLL5        0.0000 
     32 CA         50.9290   20.3300   21.4580 C.3       6 GLP5        0.0000 
     33 CA         49.3650   18.6725   21.8395 C.3       3 GLC5        0.0000 
     34 CA         48.3500   17.1500   20.9420 C.3       9 GLL5        0.0000 
     35 CA         50.3800   20.1950   22.7370 C.3       6 GLP5        0.0000 
     36 CA         55.6830   19.5690   18.3190 C.3       3 GLC5        0.0000 
     37 CA         54.2690   21.1600   18.7470 C.3       9 GLL5        0.0000 
     38 CA         57.0970   17.9780   17.8910 C.3       6 GLP5        0.0000 
     39 CA         53.2320   23.5050   17.3445 C.3       3 GLC5        0.0000 
     40 CA         54.2480   22.7020   18.8960 C.3       9 GLL5        0.0000 
     41 CA         52.2160   24.3080   15.7930 C.3       6 GLP5        0.0000 
     42 CA         51.1325   15.4145   16.7295 C.3       3 GLC5        0.0000 
     43 CA         50.1420   16.9780   17.7120 C.3       9 GLL5        0.0000 
     44 CA         52.1230   13.8510   15.7470 C.3       6 GLP5        0.0000 
     45 CA         48.7030   18.4490   17.8515 C.3       3 GLC5        0.0000 
     46 CA         47.9260   16.7590   17.7735 C.3       3 GLC5        0.0000 
     47 CA         45.7100   16.5400   17.8350 C.3       6 GLP5        0.0000 
     48 CA         49.6520   18.0445   23.0950 C.3       3 GLC5        0.0000 
     49 CA         48.5930   16.6760   22.3220 C.3       9 GLL5        0.0000 
     50 CA         50.7110   19.4130   23.8680 C.3       6 GLP5        0.0000 
     51 CA         52.8575   22.5425   16.6265 C.3       3 GLC5        0.0000 
     52 CA         53.4990   20.7770   17.4600 C.3       9 GLL5        0.0000 
     53 CA         55.9800   24.5715   20.8355 C.3       3 GLC5        0.0000 
     54 CA         54.9090   23.1910   20.1560 C.3       9 GLL5        0.0000 
     55 CA         57.0510   25.9520   21.5150 C.3       6 GLP5        0.0000 
     56 CA         44.9195   17.2455   26.2700 C.3       3 GLC5        0.0000 
     57 CA         46.0020   15.9050   25.2360 C.3       9 GLL5        0.0000 
     58 CA         43.8370   18.5860   27.3040 C.3       6 GLP5        0.0000 
     59 CA         43.8370   15.8010   25.7655 C.3       3 GLC5        0.0000 
     60 CA         41.6720   15.6970   26.2950 C.3       6 GLP5        0.0000 
     61 N          52.9280   15.9665   18.1430 N.am      2 SEC2        0.0000 
     62 N          52.6830   17.4340   17.8410 N.am      8 SEL2        0.0000 
     63 N          53.1730   14.4990   18.4450 N.am      5 SEP2        0.0000 
     64 N          54.4810   18.0245   16.6640 N.am      2 SEC2        0.0000 
     65 N          53.4660   18.4060   17.7720 N.am      8 SEL2        0.0000 
     66 N          55.4960   17.6430   15.5560 N.am      5 SEP2        0.0000 
     67 O          46.1750   13.7205   26.5665 O.2       1 ALC1        0.0000 
     68 O          47.5570   14.0480   25.7160 O.2       7 ALL1        0.0000 
     69 O          44.7930   13.3930   27.4170 O.2       4 ALP1        0.0000 
     70 O          50.1565   14.5375   23.5090 O.2       1 ALC1        0.0000 
     71 O          48.8520   14.6490   24.0360 O.2       7 ALL1        0.0000 
     72 O          51.4610   14.4260   22.9820 O.2       4 ALP1        0.0000 
     73 CA         48.4470   18.4575   24.7155 C.3       3 GLC5        0.0000 
     74 CA         47.1000   17.1910   24.5970 C.3       9 GLL5        0.0000 
     75 CA         49.7940   19.7240   24.8340 C.3       6 GLP5        0.0000 
     76 CA         46.5655   19.1440   25.4580 C.3       3 GLC5        0.0000 
     77 CA         46.0310   21.0970   26.3190 C.3       6 GLP5        0.0000 
     78 CA         51.6270   16.2860   16.1055 C.3       3 GLC5        0.0000 
     79 CA         51.4350   17.8890   17.6540 C.3       9 GLL5        0.0000 
     80 CA         51.8190   14.6830   14.5570 C.3       6 GLP5        0.0000 
     81 CA         45.3500   16.5610   22.2260 C.3       3 GLC5        0.0000 
     82 CA         47.2890   16.3210   23.0290 C.3       9 GLL5        0.0000 
     83 CA         43.4110   16.8010   21.4230 C.3       6 GLP5        0.0000 
     84 CA         47.1590   12.4915   24.9485 C.3       3 GLC5        0.0000 
     85 CA         46.6130   14.5850   24.7390 C.3       9 GLL5        0.0000 
     86 CA         47.7050   10.3980   25.1580 C.3       6 GLP5        0.0000 
     87 CA         52.3195   23.8923   24.5385 C.3       3 GLC5        0.0000 
     88 CA         52.1570   23.7770   22.4710 C.3       9 GLL5        0.0000 
     89 CA         53.0760   23.6790   26.4670 C.3       6 GLP5        0.0000 
     90 CA         53.1484   25.2860   22.8910 C.3       3 GLC5        0.0000 
     91 CA         51.0063   15.9432   20.0988 C.3       3 GLC5        0.0000 
     92 CA         52.5780   15.3030   20.6320 C.3       6 GLP5        0.0000 
     93 CA         47.1587   16.6118   19.1242 C.3       3 GLC5        0.0000 
     94 CA         48.0781   18.3934   19.1224 C.3       3 GLC5        0.0000 
     95 CA         52.1040   21.0978   19.3287 C.3       3 GLC5        0.0000 
     96 CA         50.3240   21.2270   20.5540 C.3       6 GLP5        0.0000 
     97 CA         51.6833   16.3683   19.1575 C.3       3 GLC5        0.0000 
     98 CA         46.1557   18.2905   23.3875 C.3       3 GLC5        0.0000 
     99 CA         45.1170   19.8250   22.9620 C.3       6 GLP5        0.0000 
    100 CA         45.7545   14.1330   22.9340 C.3       3 GLC5        0.0000 
    101 CA         44.5080   13.1760   21.8580 C.3       6 GLP5        0.0000 
@<TRIPOS>BOND
@<TRIPOS>SUBSTRUCTURE
     1 ALC1       11 GROUP        1 X    ALC  0     ROOT ALC X 1
     2 SEC2        1 GROUP        1 X    SEC  0     **** SEC X 2
     3 GLC5        4 GROUP        1 X    GLC  0     **** GLC X 6
     4 ALP1       13 GROUP        1 Y    ALP  0     ROOT ALP Y 8
     5 SEP2        3 GROUP        1 Y    SEP  0     **** SEP Y 9
     6 GLP5        6 GROUP        1 Y    GLP  0     **** GLP Y 13
     7 ALL1       12 GROUP        1 Z    ALL  0     ROOT ALL Z 15
     8 SEL2        2 GROUP        1 Z    SEL  0     **** SEL Z 16
     9 GLL5        5 GROUP        1 Z    GLL  0     **** GLL Z 20
@<TRIPOS>SET

