#    Name: 3v7r_32G_1_ligand
#    Modification time : Tue Mar 25 00:07:19 2014

@<TRIPOS>MOLECULE
3v7r_32G_1_ligand
   63    67     1     0     0
SMALL
NO_CHARGES


@<TRIPOS>ATOM
      1 N1         50.5120   25.3200   21.8410 N.ar      1 32G500      0.0000 
      2 C2         51.1550   25.5720   20.6830 C.ar      1 32G500      0.0000 
      3 N3         52.3030   24.9160   20.3780 N.ar      1 32G500      0.0000 
      4 C4         52.8120   24.0350   21.2630 C.ar      1 32G500      0.0000 
      5 C5         52.1570   23.7770   22.4710 C.ar      1 32G500      0.0000 
      6 C6         50.9690   24.4340   22.7490 C.ar      1 32G500      0.0000 
      7 N6         50.2710   24.2520   23.8500 N.pl3     1 32G500      0.0000 
      8 N7         52.8910   22.8640   23.1150 N.2       1 32G500      0.0000 
      9 C8         53.9670   22.5380   22.3940 C.2       1 32G500      0.0000 
     10 N9         53.9030   23.2550   21.2500 N.pl3     1 32G500      0.0000 
     11 OAB        49.7860   13.7980   25.9290 O.2       1 32G500      0.0000 
     12 CAE        51.5380   19.2260   17.5100 C.2       1 32G500      0.0000 
     13 CAF        48.8650   16.2170   19.8850 C.3       1 32G500      0.0000 
     14 CAG        50.0040   16.9500   19.2460 C.3       1 32G500      0.0000 
     15 CAH        48.3500   17.1500   20.9420 C.3       1 32G500      0.0000 
     16 CAI        54.2690   21.1600   18.7470 C.3       1 32G500      0.0000 
     17 CAJ        54.2480   22.7020   18.8960 C.3       1 32G500      0.0000 
     18 CAK        50.1420   16.9780   17.7120 C.3       1 32G500      0.0000 
     19 CAL        48.5930   16.6760   22.3220 C.3       1 32G500      0.0000 
     20 CAM        53.4990   20.7770   17.4600 C.3       1 32G500      0.0000 
     21 CAN        54.9090   23.1910   20.1560 C.3       1 32G500      0.0000 
     22 CAO        46.0020   15.9050   25.2360 C.3       1 32G500      0.0000 
     23 NAS        52.6830   17.4340   17.8410 N.2       1 32G500      0.0000 
     24 NAT        53.4660   18.4060   17.7720 N.2       1 32G500      0.0000 
     25 NAU        47.5570   14.0480   25.7160 N.am      1 32G500      0.0000 
     26 NAV        48.8520   14.6490   24.0360 N.am      1 32G500      0.0000 
     27 SAW        47.1000   17.1910   24.5970 S.3       1 32G500      0.0000 
     28 CAX        48.7970   14.1290   25.2560 C.2       1 32G500      0.0000 
     29 CAY        51.4350   17.8890   17.6540 C.2       1 32G500      0.0000 
     30 CBC        47.2890   16.3210   23.0290 C.3       1 32G500      0.0000 
     31 NBD        52.8510   19.4670   17.6020 N.pl3     1 32G500      0.0000 
     32 CBF        46.6130   14.5850   24.7390 C.3       1 32G500      0.0000 
     33 CBG        47.4890   14.8690   23.5330 C.3       1 32G500      0.0000 
     34 H          50.7705   26.2753   20.0145 H         1 32G500      0.0000 
     35 H          49.4615   24.8290   23.9582 H         1 32G500      0.0000 
     36 H          50.6138   23.5533   24.4779 H         1 32G500      0.0000 
     37 H          54.6563   21.9173   22.6329 H         1 32G500      0.0000 
     38 H          50.8400   19.8441   17.3755 H         1 32G500      0.0000 
     39 H          49.2170   15.3118   20.3365 H         1 32G500      0.0000 
     40 H          48.0987   16.0254   19.1617 H         1 32G500      0.0000 
     41 H          50.9783   16.5517   19.6645 H         1 32G500      0.0000 
     42 H          49.9957   18.0250   19.6030 H         1 32G500      0.0000 
     43 H          47.2622   17.3014   20.7857 H         1 32G500      0.0000 
     44 H          48.8207   18.1445   20.8009 H         1 32G500      0.0000 
     45 H          53.7843   20.7150   19.5970 H         1 32G500      0.0000 
     46 H          55.2873   20.8255   18.6649 H         1 32G500      0.0000 
     47 H          53.1990   23.0336   18.8710 H         1 32G500      0.0000 
     48 H          54.7486   23.1372   18.0179 H         1 32G500      0.0000 
     49 H          49.3577   17.4903   17.2894 H         1 32G500      0.0000 
     50 H          50.3795   16.0441   17.3549 H         1 32G500      0.0000 
     51 H          49.1054   17.4509   22.9062 H         1 32G500      0.0000 
     52 H          49.2361   15.7868   22.3116 H         1 32G500      0.0000 
     53 H          54.2140   20.7727   16.6311 H         1 32G500      0.0000 
     54 H          52.7598   21.5609   17.2666 H         1 32G500      0.0000 
     55 H          55.7139   22.5086   20.4291 H         1 32G500      0.0000 
     56 H          55.3324   24.1799   19.9806 H         1 32G500      0.0000 
     57 H          45.0925   16.1365   24.7904 H         1 32G500      0.0000 
     58 H          46.0704   16.0340   26.2646 H         1 32G500      0.0000 
     59 H          47.2458   13.6992   26.5597 H         1 32G500      0.0000 
     60 H          49.6138   14.8733   23.5027 H         1 32G500      0.0000 
     61 H          46.4459   16.4407   22.5409 H         1 32G500      0.0000 
     62 H          45.8756   13.8987   24.4851 H         1 32G500      0.0000 
     63 H          47.2554   14.1794   22.7664 H         1 32G500      0.0000 
@<TRIPOS>BOND
     1    2    1 ar   
     2    6    1 ar   
     3    3    2 ar   
     4   34    2 1    
     5    4    3 ar   
     6    5    4 ar   
     7   10    4 1    
     8    6    5 ar   
     9    8    5 1    
    10    7    6 1    
    11   35    7 1    
    12   36    7 1    
    13    9    8 2    
    14   10    9 1    
    15   37    9 1    
    16   21   10 1    
    17   28   11 2    
    18   29   12 2    
    19   31   12 1    
    20   38   12 1    
    21   14   13 1    
    22   15   13 1    
    23   39   13 1    
    24   40   13 1    
    25   18   14 1    
    26   41   14 1    
    27   42   14 1    
    28   19   15 1    
    29   43   15 1    
    30   44   15 1    
    31   17   16 1    
    32   20   16 1    
    33   45   16 1    
    34   46   16 1    
    35   21   17 1    
    36   47   17 1    
    37   48   17 1    
    38   29   18 1    
    39   49   18 1    
    40   50   18 1    
    41   30   19 1    
    42   51   19 1    
    43   52   19 1    
    44   31   20 1    
    45   53   20 1    
    46   54   20 1    
    47   55   21 1    
    48   56   21 1    
    49   27   22 1    
    50   32   22 1    
    51   57   22 1    
    52   58   22 1    
    53   24   23 2    
    54   29   23 1    
    55   31   24 1    
    56   28   25 am   
    57   32   25 1    
    58   59   25 1    
    59   28   26 am   
    60   33   26 1    
    61   60   26 1    
    62   30   27 1    
    63   33   30 1    
    64   61   30 1    
    65   33   32 1    
    66   62   32 1    
    67   63   33 1    
@<TRIPOS>SUBSTRUCTURE
     1 32G500      1 GROUP   
@<TRIPOS>SET

