#    Name: 1ozh_HE3_4_INTS_M
#    Modification time : Mon Mar 24 20:51:52 2014

@<TRIPOS>MOLECULE
1ozh_HE3_4_INTS_M
   84     0    12     0     0
SMALL
NO_CHARGES


@<TRIPOS>ATOM
      1 CA         14.8420  -29.5370  -36.6575 C.3       4 GLC5        0.0000 
      2 CA         15.1410  -29.3400  -34.8380 C.3      12 GLL5        0.0000 
      3 CA         14.5430  -29.7340  -38.4770 C.3       8 GLP5        0.0000 
      4 CA         16.9465  -30.3785  -34.3635 C.3       4 GLC5        0.0000 
      5 CA         18.7520  -31.4170  -33.8890 C.3       8 GLP5        0.0000 
      6 CA         12.4990  -28.6040  -34.0715 C.3       4 GLC5        0.0000 
      7 CA         13.9950  -29.8140  -33.9460 C.3      12 GLL5        0.0000 
      8 CA         11.0030  -27.3940  -34.1970 C.3       8 GLP5        0.0000 
      9 O          11.6000  -30.6155  -32.9240 O.2       1 ALC1        0.0000 
     10 O          12.6320  -31.2870  -32.6670 O.2       9 ALL1        0.0000 
     11 O          10.5680  -29.9440  -33.1810 O.2       5 ALP1        0.0000 
     12 N          10.4390  -32.5410  -31.5150 N.am      2 SEC2        0.0000 
     13 N          11.6880  -32.2000  -30.5920 N.am     10 SEL2        0.0000 
     14 N           9.1900  -32.8820  -32.4380 N.am      6 SEP2        0.0000 
     15 CA         10.8670  -30.8145  -28.9960 C.3       4 GLC5        0.0000 
     16 CA         11.7300  -32.6710  -29.2600 C.3      12 GLL5        0.0000 
     17 CA         10.0040  -28.9580  -28.7320 C.3       8 GLP5        0.0000 
     18 CA          9.8245  -31.4435  -28.2610 C.3       4 GLC5        0.0000 
     19 CA         10.4970  -33.1070  -28.7070 C.3      12 GLL5        0.0000 
     20 CA          9.1520  -29.7800  -27.8150 C.3       8 GLP5        0.0000 
     21 CA          8.5900  -32.4810  -29.4855 C.3       4 GLC5        0.0000 
     22 CA          6.6830  -31.8550  -30.2640 C.3       8 GLP5        0.0000 
     23 CA         15.6875  -33.5950  -29.0920 C.3       4 GLC5        0.0000 
     24 CA         14.2960  -32.1890  -29.2370 C.3      12 GLL5        0.0000 
     25 CA         17.0790  -35.0010  -28.9470 C.3       8 GLP5        0.0000 
     26 CA         13.6530  -31.2835  -27.3115 C.3       4 GLC5        0.0000 
     27 CA         13.0100  -30.3780  -25.3860 C.3       8 GLP5        0.0000 
     28 CA         17.1535  -30.1470  -31.0010 C.3       4 GLC5        0.0000 
     29 CA         15.4910  -31.1880  -31.3900 C.3      12 GLL5        0.0000 
     30 CA         18.8160  -29.1060  -30.6120 C.3       8 GLP5        0.0000 
     31 CA         15.5860  -29.9835  -29.7615 C.3       4 GLC5        0.0000 
     32 CA         15.6810  -28.7790  -28.1330 C.3       8 GLP5        0.0000 
     33 CA         17.1215  -31.3025  -32.6395 C.3       4 GLC5        0.0000 
     34 CA         16.7540  -34.5120  -30.6985 C.3       4 GLC5        0.0000 
     35 CA         16.4290  -34.0230  -32.4500 C.3      12 GLL5        0.0000 
     36 CA         16.8265  -35.7290  -32.9310 C.3       4 GLC5        0.0000 
     37 CA         17.2240  -37.4350  -33.4120 C.3       8 GLP5        0.0000 
     38 Zn         16.0945  -38.9760  -37.9135 Zn        3 ZIC7        0.0000 
     39 Zn         15.2950  -38.7170  -37.2710 Zn       11 ZIL7        0.0000 
     40 Zn         16.8940  -39.2350  -38.5560 Zn        7 ZIP7        0.0000 
     41 N          14.7350  -39.6285  -36.4420 N.am      2 SEC2        0.0000 
     42 N          15.2950  -38.7170  -37.2710 N.am     10 SEL2        0.0000 
     43 N          14.1750  -40.5400  -35.6130 N.am      6 SEP2        0.0000 
     44 N          12.6605  -38.1100  -35.6945 N.am      2 SEC2        0.0000 
     45 N          13.3150  -37.2840  -36.6690 N.am     10 SEL2        0.0000 
     46 N          12.0060  -38.9360  -34.7200 N.am      6 SEP2        0.0000 
     47 N          12.0250  -37.0780  -36.9765 N.am      2 SEC2        0.0000 
     48 N          10.7350  -36.8720  -37.2840 N.am      6 SEP2        0.0000 
     49 N          15.5295  -36.8835  -42.1830 N.am      2 SEC2        0.0000 
     50 N          15.4150  -36.8790  -40.8590 N.am     10 SEL2        0.0000 
     51 N          15.6440  -36.8880  -43.5070 N.am      6 SEP2        0.0000 
     52 N          15.4190  -38.2600  -40.5050 N.am      2 SEC2        0.0000 
     53 N          15.4230  -39.6410  -40.1510 N.am      6 SEP2        0.0000 
     54 N          15.6475  -34.0365  -40.3730 N.am      2 SEC2        0.0000 
     55 N          16.3510  -34.9740  -39.6230 N.am     10 SEL2        0.0000 
     56 N          14.9440  -33.0990  -41.1230 N.am      6 SEP2        0.0000 
     57 N          17.4180  -34.0825  -39.2465 N.am      2 SEC2        0.0000 
     58 N          18.4850  -33.1910  -38.8700 N.am      6 SEP2        0.0000 
     59 Zn         17.0075  -38.2380  -38.8175 Zn        3 ZIC7        0.0000 
     60 Zn         17.1210  -37.2410  -39.0790 Zn       11 ZIL7        0.0000 
     61 N          18.2500  -36.5860  -38.5945 N.am      2 SEC2        0.0000 
     62 N          17.1210  -37.2410  -39.0790 N.am     10 SEL2        0.0000 
     63 N          19.3790  -35.9310  -38.1100 N.am      6 SEP2        0.0000 
     64 CA         12.3460  -31.3405  -35.8295 C.3       4 GLC5        0.0000 
     65 CA         13.6400  -32.2050  -35.0410 C.3      12 GLL5        0.0000 
     66 CA         11.0520  -30.4760  -36.6180 C.3       8 GLP5        0.0000 
     67 CA         13.4925  -32.7165  -37.1590 C.3       4 GLC5        0.0000 
     68 CA         13.3450  -33.2280  -39.2770 C.3       8 GLP5        0.0000 
     69 CA         12.1650  -33.4640  -34.0415 C.3       4 GLC5        0.0000 
     70 CA         10.6900  -34.7230  -33.0420 C.3       8 GLP5        0.0000 
     71 CA         14.0915  -30.9695  -36.7590 C.3       4 GLC5        0.0000 
     72 CA         12.5170  -30.5252  -35.1830 C.3       4 GLC5        0.0000 
     73 CA         11.1028  -34.0190  -30.3128 C.3       4 GLC5        0.0000 
     74 CA         11.0920  -35.1490  -31.6420 C.3       8 GLP5        0.0000 
     75 CA         14.9830  -30.3605  -29.0300 C.3       4 GLC5        0.0000 
     76 CA         13.4040  -33.7122  -30.7745 C.3       4 GLC5        0.0000 
     77 CA         12.8660  -35.4710  -31.4690 C.3       8 GLP5        0.0000 
     78 CA         14.4062  -34.5192  -32.1585 C.3       4 GLC5        0.0000 
     79 CA         15.4640  -33.1120  -33.2460 C.3      12 GLL5        0.0000 
     80 CA         17.3492  -32.4922  -33.3685 C.3       4 GLC5        0.0000 
     81 CA         13.7193  -34.8195  -33.0517 C.3       4 GLC5        0.0000 
     82 CA         14.5880  -33.4940  -34.3840 C.3      12 GLL5        0.0000 
     83 CA         16.1370  -36.2525  -34.3992 C.3       4 GLC5        0.0000 
     84 CA         14.5570  -34.8420  -34.8850 C.3      12 GLL5        0.0000 
@<TRIPOS>BOND
@<TRIPOS>SUBSTRUCTURE
     1 ALC1        9 GROUP        1 X    ALC  0     ROOT ALC X 1
     2 SEC2       12 GROUP        1 X    SEC  0     **** SEC X 2
     3 ZIC7       38 GROUP        1 X    ZIC  0     **** ZIC X 5
     4 GLC5        1 GROUP        1 X    GLC  0     **** GLC X 6
     5 ALP1       11 GROUP        1 Y    ALP  0     ROOT ALP Y 8
     6 SEP2       14 GROUP        1 Y    SEP  0     **** SEP Y 9
     7 ZIP7       40 GROUP        1 Y    ZIP  0     **** ZIP Y 12
     8 GLP5        3 GROUP        1 Y    GLP  0     **** GLP Y 13
     9 ALL1       10 GROUP        1 Z    ALL  0     ROOT ALL Z 15
    10 SEL2       13 GROUP        1 Z    SEL  0     **** SEL Z 16
    11 ZIL7       39 GROUP        1 Z    ZIL  0     **** ZIL Z 19
    12 GLL5        2 GROUP        1 Z    GLL  0     **** GLL Z 20
@<TRIPOS>SET

