#    Name: 1ozh_HE3_4_ligand
#    Modification time : Mon Mar 24 20:51:52 2014

@<TRIPOS>MOLECULE
1ozh_HE3_4_ligand
   49    51     1     0     0
SMALL
NO_CHARGES


@<TRIPOS>ATOM
      1 C9         15.1410  -29.3400  -34.8380 C.3       1 HE31433     0.0000 
      2 C8         13.9950  -29.8140  -33.9460 C.3       1 HE31433     0.0000 
      3 O9         14.2370  -28.6770  -32.9580 O.3       1 HE31433     0.0000 
      4 C2         13.9690  -31.3350  -33.5500 C.3       1 HE31433     0.0000 
      5 N4'        12.6320  -31.2870  -32.6670 N.pl3     1 HE31433     0.0000 
      6 C4'        12.9020  -31.7410  -31.2290 C.ar      1 HE31433     0.0000 
      7 N3'        11.6880  -32.2000  -30.5920 N.ar      1 HE31433     0.0000 
      8 C2'        11.7300  -32.6710  -29.2600 C.ar      1 HE31433     0.0000 
      9 CM2        10.4970  -33.1070  -28.7070 C.3       1 HE31433     0.0000 
     10 N1'        13.0300  -32.6590  -28.5990 N.ar      1 HE31433     0.0000 
     11 C6'        14.2960  -32.1890  -29.2370 C.ar      1 HE31433     0.0000 
     12 C5'        14.2740  -31.6950  -30.6170 C.ar      1 HE31433     0.0000 
     13 C7'        15.4910  -31.1880  -31.3900 C.3       1 HE31433     0.0000 
     14 N3         15.3670  -31.6230  -32.8510 N.4       1 HE31433     0.0000 
     15 C4         15.4640  -33.1120  -33.2460 C.2       1 HE31433     0.0000 
     16 CM4        16.4290  -34.0230  -32.4500 C.3       1 HE31433     0.0000 
     17 C5         14.5880  -33.4940  -34.3840 C.2       1 HE31433     0.0000 
     18 C6         14.5570  -34.8420  -34.8850 C.3       1 HE31433     0.0000 
     19 C7         15.5430  -35.2980  -35.8880 C.3       1 HE31433     0.0000 
     20 O7         15.5140  -36.6310  -36.3820 O.3       1 HE31433     0.0000 
     21 PA         14.6720  -37.4410  -37.2510 P.3       1 HE31433     0.0000 
     22 O2A        15.2950  -38.7170  -37.2710 O.co2     1 HE31433     0.0000 
     23 O3A        13.3150  -37.2840  -36.6690 O.co2     1 HE31433     0.0000 
     24 O1A        14.8310  -36.6150  -38.6260 O.3       1 HE31433     0.0000 
     25 PB         16.0110  -36.4260  -39.6450 P.3       1 HE31433     0.0000 
     26 O1B        15.4150  -36.8790  -40.8590 O.co2     1 HE31433     0.0000 
     27 O2B        16.3510  -34.9740  -39.6230 O.co2     1 HE31433     0.0000 
     28 O3B        17.1210  -37.2410  -39.0790 O.co2     1 HE31433     0.0000 
     29 S1         13.6400  -32.2050  -35.0410 S.3       1 HE31433     0.0000 
     30 H          13.0889  -29.5277  -34.5074 H         1 HE31433     0.0000 
     31 H          11.8402  -31.0214  -33.0071 H         1 HE31433     0.0000 
     32 H          15.1454  -32.2159  -28.7169 H         1 HE31433     0.0000 
     33 H          16.3895  -31.6111  -30.9644 H         1 HE31433     0.0000 
     34 H          15.5264  -30.1093  -31.3383 H         1 HE31433     0.0000 
     35 H          16.0873  -31.0963  -33.4988 H         1 HE31433     0.0000 
     36 H          13.5105  -35.0637  -35.3022 H         1 HE31433     0.0000 
     37 H          14.5996  -35.5726  -34.0003 H         1 HE31433     0.0000 
     38 H          16.5888  -35.0678  -35.4684 H         1 HE31433     0.0000 
     39 H          15.4985  -34.5616  -36.7703 H         1 HE31433     0.0000 
     40 H          16.0320  -29.4928  -34.4105 H         1 HE31433     0.0000 
     41 H          15.1510  -29.8191  -35.7157 H         1 HE31433     0.0000 
     42 H          15.0758  -28.3624  -35.0383 H         1 HE31433     0.0000 
     43 H          10.6039  -33.4235  -27.7644 H         1 HE31433     0.0000 
     44 H           9.8159  -32.3749  -28.6949 H         1 HE31433     0.0000 
     45 H          10.1037  -33.8647  -29.2277 H         1 HE31433     0.0000 
     46 H          17.3748  -33.7037  -32.5092 H         1 HE31433     0.0000 
     47 H          16.1914  -34.0573  -31.4792 H         1 HE31433     0.0000 
     48 H          16.4155  -34.9639  -32.7885 H         1 HE31433     0.0000 
     49 H          13.4355  -28.6789  -32.3601 H         1 HE31433     0.0000 
@<TRIPOS>BOND
     1    2    1 1    
     2   40    1 1    
     3   41    1 1    
     4   42    1 1    
     5    3    2 1    
     6    4    2 1    
     7   30    2 1    
     8   49    3 1    
     9    5    4 1    
    10   14    4 1    
    11   29    4 1    
    12    6    5 1    
    13   31    5 1    
    14    7    6 ar   
    15   12    6 ar   
    16    8    7 ar   
    17    9    8 1    
    18   10    8 ar   
    19   43    9 1    
    20   44    9 1    
    21   45    9 1    
    22   11   10 ar   
    23   12   11 ar   
    24   32   11 1    
    25   13   12 1    
    26   14   13 1    
    27   33   13 1    
    28   34   13 1    
    29   15   14 1    
    30   35   14 1    
    31   16   15 1    
    32   17   15 2    
    33   46   16 1    
    34   47   16 1    
    35   48   16 1    
    36   18   17 1    
    37   29   17 1    
    38   19   18 1    
    39   36   18 1    
    40   37   18 1    
    41   20   19 1    
    42   38   19 1    
    43   39   19 1    
    44   21   20 1    
    45   22   21 ar   
    46   23   21 ar   
    47   24   21 1    
    48   25   24 1    
    49   26   25 ar   
    50   27   25 ar   
    51   28   25 ar   
@<TRIPOS>SUBSTRUCTURE
     1 HE31433     1 GROUP   
@<TRIPOS>SET

