#    Name: 4mcc_21X_2_INTS_M
#    Modification time : Tue Mar 25 12:08:36 2014

@<TRIPOS>MOLECULE
4mcc_21X_2_INTS_M
   46     0    12     0     0
SMALL
NO_CHARGES


@<TRIPOS>ATOM
      1 CA          0.3810   38.8165    2.9895 C.3       4 GLC5        0.0000 
      2 CA          0.2010   36.8900    3.5230 C.3      12 GLL5        0.0000 
      3 CA          0.5610   40.7430    2.4560 C.3       8 GLP5        0.0000 
      4 N           6.6660   34.1005   -0.3250 N.am      2 SEC2        0.0000 
      5 N           6.1920   35.5600    0.1760 N.am     10 SEL2        0.0000 
      6 N           7.1400   32.6410   -0.8260 N.am      6 SEP2        0.0000 
      7 N           7.3655   35.3075   -0.9060 N.am      2 SEC2        0.0000 
      8 N           8.5390   35.0550   -1.9880 N.am      6 SEP2        0.0000 
      9 O           6.2930   34.7900    3.6375 O.2       1 ALC1        0.0000 
     10 O           5.7940   35.3720    2.5090 O.2       9 ALL1        0.0000 
     11 O           6.7920   34.2080    4.7660 O.2       5 ALP1        0.0000 
     12 OD1        -3.7625   31.9595    6.1790 O.co2     3 ASC3        0.0000 
     13 OD1        -2.2160   31.5970    6.4730 O.co2    11 ASL3        0.0000 
     14 OD1        -5.3090   32.3220    5.8850 O.co2     7 ASP3        0.0000 
     15 O          -3.7625   31.9595    6.1790 O.2       1 ALC1        0.0000 
     16 O          -2.2160   31.5970    6.4730 O.2       9 ALL1        0.0000 
     17 O          -5.3090   32.3220    5.8850 O.2       5 ALP1        0.0000 
     18 N           4.1465   36.4730    4.7495 N.am      2 SEC2        0.0000 
     19 N           3.7780   35.8890    3.5000 N.am     10 SEL2        0.0000 
     20 N           4.5150   37.0570    5.9990 N.am      6 SEP2        0.0000 
     21 CA          2.7870   35.2425   -2.0500 C.3       4 GLC5        0.0000 
     22 CA          4.2250   36.4230   -1.4020 C.3      12 GLL5        0.0000 
     23 CA          1.3490   34.0620   -2.6980 C.3       8 GLP5        0.0000 
     24 CA          3.6450   34.4870   -0.4870 C.3       4 GLC5        0.0000 
     25 CA          3.0650   32.5510    0.4280 C.3       8 GLP5        0.0000 
     26 CA          1.5648   34.4558    6.4837 C.3       4 GLC5        0.0000 
     27 CA          0.1360   33.5440    5.2940 C.3      12 GLL5        0.0000 
     28 CA          2.7910   34.7370    7.8740 C.3       8 GLP5        0.0000 
     29 CA          3.0750   37.5028   -2.7843 C.3       4 GLC5        0.0000 
     30 CA          2.7370   36.8220   -0.6530 C.3      12 GLL5        0.0000 
     31 CA          2.6690   38.3830   -4.5410 C.3       8 GLP5        0.0000 
     32 CA          2.0388   35.3985   -1.3325 C.3       4 GLC5        0.0000 
     33 CA          1.7843   35.1310    0.1505 C.3       4 GLC5        0.0000 
     34 CA          0.8400   33.5270    0.2680 C.3       8 GLP5        0.0000 
     35 CA          2.3498   38.6365   -0.5090 C.3       4 GLC5        0.0000 
     36 CA          2.7200   36.6480    0.7190 C.3      12 GLL5        0.0000 
     37 CA          1.9710   40.5380   -1.0510 C.3       8 GLP5        0.0000 
     38 CA          3.7560   34.3120    0.5350 C.3       4 GLC5        0.0000 
     39 CA          4.9000   35.9950    0.1220 C.3      12 GLL5        0.0000 
     40 CA          5.6643   34.9335   -1.8290 C.3       4 GLC5        0.0000 
     41 CA          6.7660   33.6580   -3.0180 C.3       8 GLP5        0.0000 
     42 CA          4.8517   37.9333   -0.5606 C.3       4 GLC5        0.0000 
     43 CA          5.7970   39.4530   -0.5890 C.3       8 GLP5        0.0000 
     44 CA          0.1702   33.5205    2.9791 C.3       4 GLC5        0.0000 
     45 CA          0.5410   34.8050    4.8930 C.3      12 GLL5        0.0000 
     46 CA          0.9760   32.7750    1.5440 C.3       8 GLP5        0.0000 
@<TRIPOS>BOND
@<TRIPOS>SUBSTRUCTURE
     1 ALC1        9 GROUP        1 X    ALC  0     ROOT ALC X 1
     2 SEC2        4 GROUP        1 X    SEC  0     **** SEC X 2
     3 ASC3       12 GROUP        1 X    ASC  0     **** ASC X 3
     4 GLC5        1 GROUP        1 X    GLC  0     **** GLC X 6
     5 ALP1       11 GROUP        1 Y    ALP  0     ROOT ALP Y 8
     6 SEP2        6 GROUP        1 Y    SEP  0     **** SEP Y 9
     7 ASP3       14 GROUP        1 Y    ASP  0     **** ASP Y 10
     8 GLP5        3 GROUP        1 Y    GLP  0     **** GLP Y 13
     9 ALL1       10 GROUP        1 Z    ALL  0     ROOT ALL Z 15
    10 SEL2        5 GROUP        1 Z    SEL  0     **** SEL Z 16
    11 ASL3       13 GROUP        1 Z    ASL  0     **** ASL Z 17
    12 GLL5        2 GROUP        1 Z    GLL  0     **** GLL Z 20
@<TRIPOS>SET

