#    Name: 4mcc_21X_2_ligand
#    Modification time : Tue Mar 25 12:08:36 2014

@<TRIPOS>MOLECULE
4mcc_21X_2_ligand
   37    39     1     0     0
SMALL
NO_CHARGES


@<TRIPOS>ATOM
      1 C1          0.1360   33.5440    5.2940 C.ar      1 21X301      0.0000 
      2 C5         -1.8170   33.7310    3.9450 C.ar      1 21X301      0.0000 
      3 C2          0.5410   34.8050    4.8930 C.ar      1 21X301      0.0000 
      4 C4         -1.4050   34.9820    3.5400 C.ar      1 21X301      0.0000 
      5 C14         2.7370   36.8220   -0.6530 C.2       1 21X301      0.0000 
      6 C17         3.9940   36.1510    1.1620 C.2       1 21X301      0.0000 
      7 C13         2.7200   36.6480    0.7190 C.2       1 21X301      0.0000 
      8 C6         -1.0460   33.0030    4.8210 C.ar      1 21X301      0.0000 
      9 C3         -0.2240   35.5300    4.0000 C.ar      1 21X301      0.0000 
     10 C16         4.9000   35.9950    0.1220 C.2       1 21X301      0.0000 
     11 C21         6.5900   35.2580    1.3800 C.2       1 21X301      0.0000 
     12 C18         4.4680   35.8090    2.4900 C.2       1 21X301      0.0000 
     13 C11         1.4680   36.9620    1.4120 C.2       1 21X301      0.0000 
     14 C7         -1.4830   31.6290    5.2250 C.3       1 21X301      0.0000 
     15 C9          0.2010   36.8900    3.5230 C.3       1 21X301      0.0000 
     16 N22         6.1920   35.5600    0.1760 N.2       1 21X301      0.0000 
     17 N20         5.7940   35.3720    2.5090 N.am      1 21X301      0.0000 
     18 N8         -2.2160   31.5970    6.4730 N.4       1 21X301      0.0000 
     19 N10         1.4270   36.8340    2.7500 N.am      1 21X301      0.0000 
     20 O19         3.7780   35.8890    3.5000 O.2       1 21X301      0.0000 
     21 O12         0.5110   37.3340    0.7450 O.2       1 21X301      0.0000 
     22 S15         4.2250   36.4230   -1.4020 S.3       1 21X301      0.0000 
     23 H           0.7214   33.0023    5.9521 H         1 21X301      0.0000 
     24 H          -2.7052   33.3409    3.5900 H         1 21X301      0.0000 
     25 H           1.4182   35.2045    5.2632 H         1 21X301      0.0000 
     26 H          -1.9936   35.5246    2.8755 H         1 21X301      0.0000 
     27 H           2.0806   37.1213   -1.2639 H         1 21X301      0.0000 
     28 H           7.5853   34.8974    1.5420 H         1 21X301      0.0000 
     29 H          -0.5816   30.9790    5.2891 H         1 21X301      0.0000 
     30 H          -2.1000   31.2014    4.4031 H         1 21X301      0.0000 
     31 H           0.3263   37.5466    4.4028 H         1 21X301      0.0000 
     32 H          -0.6185   37.3220    2.9206 H         1 21X301      0.0000 
     33 H           6.2128   35.1131    3.4441 H         1 21X301      0.0000 
     34 H           2.3078   36.6838    3.3054 H         1 21X301      0.0000 
     35 H          -1.9272   32.3272    7.0922 H         1 21X301      0.0000 
     36 H          -3.1995   31.7067    6.3290 H         1 21X301      0.0000 
     37 H          -2.0855   30.7325    6.9583 H         1 21X301      0.0000 
@<TRIPOS>BOND
     1    3    1 ar   
     2    8    1 ar   
     3   23    1 1    
     4    4    2 ar   
     5    8    2 ar   
     6   24    2 1    
     7    9    3 ar   
     8   25    3 1    
     9    9    4 ar   
    10   26    4 1    
    11    7    5 2    
    12   22    5 1    
    13   27    5 1    
    14    7    6 1    
    15   10    6 2    
    16   12    6 1    
    17   13    7 1    
    18   14    8 1    
    19   15    9 1    
    20   16   10 1    
    21   22   10 1    
    22   16   11 2    
    23   17   11 1    
    24   28   11 1    
    25   17   12 am   
    26   20   12 2    
    27   19   13 am   
    28   21   13 2    
    29   18   14 1    
    30   29   14 1    
    31   30   14 1    
    32   19   15 1    
    33   31   15 1    
    34   32   15 1    
    35   33   17 1    
    36   35   18 1    
    37   36   18 1    
    38   37   18 1    
    39   34   19 1    
@<TRIPOS>SUBSTRUCTURE
     1 21X301      1 GROUP   
@<TRIPOS>SET

