#    Name: 4lj7_MNT_1_INTS_M
#    Modification time : Tue Apr  8 00:02:29 2014

@<TRIPOS>MOLECULE
4lj7_MNT_1_INTS_M
   90     0    12     0     0
SMALL
NO_CHARGES


@<TRIPOS>ATOM
      1 N         -10.3285  -14.6865  -25.9375 N.am      2 SEC2        0.0000 
      2 N          -9.0480  -14.8440  -25.1960 N.am     10 SEL2        0.0000 
      3 N         -11.6090  -14.5290  -26.6790 N.am      6 SEP2        0.0000 
      4 N         -10.0560  -15.9680  -25.5330 N.am      2 SEC2        0.0000 
      5 N         -11.0640  -17.0920  -25.8700 N.am      6 SEP2        0.0000 
      6 N          -8.7150  -16.2480  -25.2445 N.am      2 SEC2        0.0000 
      7 N          -8.3820  -17.6520  -25.2930 N.am      6 SEP2        0.0000 
      8 NZ         -8.0425  -11.4035  -23.4645 N.4       3 LYC4        0.0000 
      9 NZ         -8.1720  -12.5480  -24.5830 N.4      11 LYL4        0.0000 
     10 NZ         -7.9130  -10.2590  -22.3460 N.4       7 LYP4        0.0000 
     11 N          -9.2740  -12.2620  -25.3800 N.am      2 SEC2        0.0000 
     12 N          -8.1720  -12.5480  -24.5830 N.am     10 SEL2        0.0000 
     13 N         -10.3760  -11.9760  -26.1770 N.am      6 SEP2        0.0000 
     14 N          -6.9125  -15.8815  -23.2340 N.am      2 SEC2        0.0000 
     15 N          -7.1920  -14.5990  -23.4870 N.am     10 SEL2        0.0000 
     16 N          -6.6330  -17.1640  -22.9810 N.am      6 SEP2        0.0000 
     17 N          -6.5270  -14.7565  -22.3710 N.am      2 SEC2        0.0000 
     18 N          -5.8620  -14.9140  -21.2550 N.am      6 SEP2        0.0000 
     19 N          -9.0005  -17.5230  -22.0580 N.am      2 SEC2        0.0000 
     20 N          -9.7690  -16.3820  -22.8620 N.am     10 SEL2        0.0000 
     21 N          -8.2320  -18.6640  -21.2540 N.am      6 SEP2        0.0000 
     22 N          -9.3355  -12.2425  -22.6395 N.am      2 SEC2        0.0000 
     23 N          -9.4820  -13.8500  -22.9460 N.am     10 SEL2        0.0000 
     24 N          -9.1890  -10.6350  -22.3330 N.am      6 SEP2        0.0000 
     25 CA        -11.8750  -13.2065  -23.3455 C.3       4 GLC5        0.0000 
     26 CA        -12.3150  -13.8910  -21.3620 C.3      12 GLL5        0.0000 
     27 CA        -11.4350  -12.5220  -25.3290 C.3       8 GLP5        0.0000 
     28 CA        -11.9640  -12.2035  -21.6870 C.3       4 GLC5        0.0000 
     29 CA        -11.6130  -10.5160  -22.0120 C.3       8 GLP5        0.0000 
     30 CA        -13.7425  -12.4855  -20.8650 C.3       4 GLC5        0.0000 
     31 CA        -13.4580  -14.4870  -20.5380 C.3      12 GLL5        0.0000 
     32 CA        -14.0270  -10.4840  -21.1920 C.3       8 GLP5        0.0000 
     33 CA        -11.8760  -18.2250  -20.7055 C.3       4 GLC5        0.0000 
     34 CA        -13.2400  -16.8630  -20.2950 C.3      12 GLL5        0.0000 
     35 CA        -10.5120  -19.5870  -21.1160 C.3       8 GLP5        0.0000 
     36 CA        -16.3435  -17.4280  -21.3155 C.3       4 GLC5        0.0000 
     37 CA        -14.4160  -16.5380  -21.2080 C.3      12 GLL5        0.0000 
     38 CA        -18.2710  -18.3180  -21.4230 C.3       8 GLP5        0.0000 
     39 CA        -15.5325  -15.1085  -22.5300 C.3       4 GLC5        0.0000 
     40 CA        -16.6490  -13.6790  -23.8520 C.3       8 GLP5        0.0000 
     41 CA        -15.2855  -17.3980  -25.8415 C.3       4 GLC5        0.0000 
     42 CA        -14.3110  -18.5650  -24.2990 C.3      12 GLL5        0.0000 
     43 CA        -16.2600  -16.2310  -27.3840 C.3       8 GLP5        0.0000 
     44 CA        -13.0345  -21.5230  -25.0080 C.3       4 GLC5        0.0000 
     45 CA        -14.4520  -19.9060  -24.9100 C.3      12 GLL5        0.0000 
     46 CA        -11.6170  -23.1400  -25.1060 C.3       8 GLP5        0.0000 
     47 CA        -15.8915  -21.3420  -25.2830 C.3       4 GLC5        0.0000 
     48 CA        -17.3310  -22.7780  -25.6560 C.3       8 GLP5        0.0000 
     49 O         -14.5955  -21.1525  -26.8855 O.2       1 ALC1        0.0000 
     50 O         -14.2990  -20.0720  -26.2450 O.2       9 ALL1        0.0000 
     51 O         -14.8920  -22.2330  -27.5260 O.2       5 ALP1        0.0000 
     52 O         -13.2755  -19.0505  -26.8920 O.2       1 ALC1        0.0000 
     53 O         -12.2520  -18.0290  -27.5390 O.2       5 ALP1        0.0000 
     54 N         -14.8890  -22.2015  -24.5205 N.am      2 SEC2        0.0000 
     55 N         -14.7350  -20.9430  -24.0890 N.am     10 SEL2        0.0000 
     56 N         -15.0430  -23.4600  -24.9520 N.am      6 SEP2        0.0000 
     57 CA        -14.0750  -22.4385  -23.0990 C.3       4 GLC5        0.0000 
     58 CA        -14.8910  -20.7760  -22.7610 C.3      12 GLL5        0.0000 
     59 CA        -13.2590  -24.1010  -23.4370 C.3       8 GLP5        0.0000 
     60 CA        -16.3965  -21.9615  -23.5300 C.3       4 GLC5        0.0000 
     61 CA        -17.9020  -23.1470  -24.2990 C.3       8 GLP5        0.0000 
     62 CA        -13.1875  -20.6680  -21.6000 C.3       4 GLC5        0.0000 
     63 CA        -11.4840  -20.5600  -20.4390 C.3       8 GLP5        0.0000 
     64 CA        -16.5595  -20.0995  -23.2090 C.3       4 GLC5        0.0000 
     65 CA        -18.2280  -19.4230  -23.6570 C.3       8 GLP5        0.0000 
     66 CA        -12.9910  -19.5095  -21.6415 C.3       4 GLC5        0.0000 
     67 CA        -14.4980  -18.4590  -22.8440 C.3      12 GLL5        0.0000 
     68 CA        -13.6630  -14.4200  -13.2030 C.3       4 GLC5        0.0000 
     69 CA        -13.3830  -16.4790  -12.8940 C.3      12 GLL5        0.0000 
     70 CA        -13.9430  -12.3610  -13.5120 C.3       8 GLP5        0.0000 
     71 CA        -18.4440  -15.2245  -18.0090 C.3       4 GLC5        0.0000 
     72 CA        -17.3220  -15.3530  -16.1290 C.3      12 GLL5        0.0000 
     73 CA        -19.5660  -15.0960  -19.8890 C.3       8 GLP5        0.0000 
     74 CA        -12.5412  -18.8008  -24.9312 C.3       4 GLC5        0.0000 
     75 CA        -10.7010  -18.3660  -25.2580 C.3       8 GLP5        0.0000 
     76 CA        -16.0824  -18.5911  -24.1516 C.3       4 GLC5        0.0000 
     77 CA        -17.7250  -18.3350  -24.5790 C.3       8 GLP5        0.0000 
     78 CA        -15.6590  -13.7508  -15.8782 C.3       4 GLC5        0.0000 
     79 CA        -16.1430  -15.4290  -16.9100 C.3      12 GLL5        0.0000 
     80 CA        -15.7990  -11.9280  -15.1310 C.3       8 GLP5        0.0000 
     81 CA        -15.4207  -14.1448  -14.1440 C.3       4 GLC5        0.0000 
     82 CA        -14.7800  -15.9470  -14.9320 C.3      12 GLL5        0.0000 
     83 CA        -15.4430  -12.3870  -13.7290 C.3       8 GLP5        0.0000 
     84 CA        -17.2812  -13.6887  -15.4350 C.3       4 GLC5        0.0000 
     85 CA        -17.3000  -11.9140  -15.4200 C.3       8 GLP5        0.0000 
     86 CA        -19.3582  -15.2802  -15.7130 C.3       4 GLC5        0.0000 
     87 CA        -21.4540  -15.0970  -15.9760 C.3       8 GLP5        0.0000 
     88 CA        -17.8349  -16.9721  -16.5750 C.3       4 GLC5        0.0000 
     89 CA        -17.2030  -15.5740  -14.7710 C.3      12 GLL5        0.0000 
     90 CA        -18.9670  -18.4980  -16.9700 C.3       8 GLP5        0.0000 
@<TRIPOS>BOND
@<TRIPOS>SUBSTRUCTURE
     1 ALC1       49 GROUP        1 X    ALC  0     ROOT ALC X 1
     2 SEC2        1 GROUP        1 X    SEC  0     **** SEC X 2
     3 LYC4        8 GROUP        1 X    LYC  0     **** LYC X 4
     4 GLC5       25 GROUP        1 X    GLC  0     **** GLC X 6
     5 ALP1       51 GROUP        1 Y    ALP  0     ROOT ALP Y 8
     6 SEP2        3 GROUP        1 Y    SEP  0     **** SEP Y 9
     7 LYP4       10 GROUP        1 Y    LYP  0     **** LYP Y 11
     8 GLP5       27 GROUP        1 Y    GLP  0     **** GLP Y 13
     9 ALL1       50 GROUP        1 Z    ALL  0     ROOT ALL Z 15
    10 SEL2        2 GROUP        1 Z    SEL  0     **** SEL Z 16
    11 LYL4        9 GROUP        1 Z    LYL  0     **** LYL Z 18
    12 GLL5       26 GROUP        1 Z    GLL  0     **** GLL Z 20
@<TRIPOS>SET

