#    Name: 4lj7_MNT_1_ligand
#    Modification time : Tue Apr  8 00:02:29 2014

@<TRIPOS>MOLECULE
4lj7_MNT_1_ligand
   55    58     1     0     0
SMALL
NO_CHARGES


@<TRIPOS>ATOM
      1 PB         -8.3970  -13.9760  -24.1410 P.3       1 MNT901      0.0000 
      2 O1B        -9.0480  -14.8440  -25.1960 O.co2     1 MNT901      0.0000 
      3 O2B        -8.1720  -12.5480  -24.5830 O.co2     1 MNT901      0.0000 
      4 O3B        -7.1920  -14.5990  -23.4870 O.co2     1 MNT901      0.0000 
      5 PA        -10.0910  -15.1040  -22.1250 P.3       1 MNT901      0.0000 
      6 O1A        -9.7690  -16.3820  -22.8620 O.co2     1 MNT901      0.0000 
      7 O2A        -9.6820  -14.9710  -20.6730 O.co2     1 MNT901      0.0000 
      8 O3A        -9.4820  -13.8500  -22.9460 O.3       1 MNT901      0.0000 
      9 O5'       -11.6840  -14.8550  -22.2090 O.3       1 MNT901      0.0000 
     10 C5B       -12.3150  -13.8910  -21.3620 C.3       1 MNT901      0.0000 
     11 C4B       -13.4580  -14.4870  -20.5380 C.3       1 MNT901      0.0000 
     12 O4'       -14.4250  -15.1160  -21.3800 O.3       1 MNT901      0.0000 
     13 C3B       -13.0220  -15.5550  -19.5580 C.3       1 MNT901      0.0000 
     14 O3'       -13.9740  -15.5400  -18.5040 O.3       1 MNT901      0.0000 
     15 C2B       -13.2400  -16.8630  -20.2950 C.3       1 MNT901      0.0000 
     16 C1B       -14.4160  -16.5380  -21.2080 C.3       1 MNT901      0.0000 
     17 N9        -14.3200  -17.1690  -22.5470 N.pl3     1 MNT901      0.0000 
     18 C8        -14.0630  -16.5000  -23.6820 C.2       1 MNT901      0.0000 
     19 N7        -14.0530  -17.3290  -24.7480 N.2       1 MNT901      0.0000 
     20 C5        -14.3110  -18.5650  -24.2990 C.ar      1 MNT901      0.0000 
     21 C6        -14.4520  -19.9060  -24.9100 C.ar      1 MNT901      0.0000 
     22 N6        -14.2990  -20.0720  -26.2450 N.pl3     1 MNT901      0.0000 
     23 N1        -14.7350  -20.9430  -24.0890 N.ar      1 MNT901      0.0000 
     24 C2        -14.8910  -20.7760  -22.7610 C.ar      1 MNT901      0.0000 
     25 N3        -14.7800  -19.5850  -22.1430 N.ar      1 MNT901      0.0000 
     26 C4        -14.4980  -18.4590  -22.8440 C.ar      1 MNT901      0.0000 
     27 C'        -13.6930  -15.7810  -17.2350 C.2       1 MNT901      0.0000 
     28 O1'       -12.5410  -16.0270  -16.8510 O.2       1 MNT901      0.0000 
     29 C1'       -14.8950  -15.7180  -16.3410 C.ar      1 MNT901      0.0000 
     30 C2'       -14.7800  -15.9470  -14.9320 C.ar      1 MNT901      0.0000 
     31 N2'       -13.5820  -16.2340  -14.3170 N.pl3     1 MNT901      0.0000 
     32 CM'       -13.3830  -16.4790  -12.8940 C.3       1 MNT901      0.0000 
     33 C3'       -16.0170  -15.8580  -14.1860 C.ar      1 MNT901      0.0000 
     34 C4'       -17.2030  -15.5740  -14.7710 C.ar      1 MNT901      0.0000 
     35 C5'       -17.3220  -15.3530  -16.1290 C.ar      1 MNT901      0.0000 
     36 C6'       -16.1430  -15.4290  -16.9100 C.ar      1 MNT901      0.0000 
     37 H         -12.7331  -13.0492  -21.9490 H         1 MNT901      0.0000 
     38 H         -11.5924  -13.4427  -20.6514 H         1 MNT901      0.0000 
     39 H         -13.9327  -13.6892  -19.9702 H         1 MNT901      0.0000 
     40 H         -12.0572  -15.4401  -19.2811 H         1 MNT901      0.0000 
     41 H         -13.5150  -17.6228  -19.6130 H         1 MNT901      0.0000 
     42 H         -12.3890  -17.0984  -20.8767 H         1 MNT901      0.0000 
     43 H         -15.3232  -16.8518  -20.7161 H         1 MNT901      0.0000 
     44 H         -13.9019  -15.5295  -23.7352 H         1 MNT901      0.0000 
     45 H         -13.7222  -19.3995  -26.7088 H         1 MNT901      0.0000 
     46 H         -14.7764  -20.8523  -26.6489 H         1 MNT901      0.0000 
     47 H         -15.1145  -21.6342  -22.1676 H         1 MNT901      0.0000 
     48 H         -12.6998  -16.2891  -14.9103 H         1 MNT901      0.0000 
     49 H         -15.9497  -16.0263  -13.1571 H         1 MNT901      0.0000 
     50 H         -18.0725  -15.5167  -14.1811 H         1 MNT901      0.0000 
     51 H         -18.2074  -15.1443  -16.5640 H         1 MNT901      0.0000 
     52 H         -16.2114  -15.2654  -17.9304 H         1 MNT901      0.0000 
     53 H         -12.4244  -16.6667  -12.6800 H         1 MNT901      0.0000 
     54 H         -13.6587  -15.6936  -12.3398 H         1 MNT901      0.0000 
     55 H         -13.9138  -17.2640  -12.5745 H         1 MNT901      0.0000 
@<TRIPOS>BOND
     1    2    1 ar   
     2    3    1 ar   
     3    4    1 ar   
     4    8    1 1    
     5    6    5 ar   
     6    7    5 ar   
     7    8    5 1    
     8    9    5 1    
     9   10    9 1    
    10   11   10 1    
    11   37   10 1    
    12   38   10 1    
    13   12   11 1    
    14   13   11 1    
    15   39   11 1    
    16   16   12 1    
    17   14   13 1    
    18   15   13 1    
    19   40   13 1    
    20   27   14 1    
    21   16   15 1    
    22   41   15 1    
    23   42   15 1    
    24   17   16 1    
    25   43   16 1    
    26   18   17 1    
    27   26   17 1    
    28   19   18 2    
    29   44   18 1    
    30   20   19 1    
    31   21   20 ar   
    32   26   20 ar   
    33   22   21 1    
    34   23   21 ar   
    35   45   22 1    
    36   46   22 1    
    37   24   23 ar   
    38   25   24 ar   
    39   47   24 1    
    40   26   25 ar   
    41   28   27 2    
    42   29   27 1    
    43   30   29 ar   
    44   36   29 ar   
    45   31   30 1    
    46   33   30 ar   
    47   32   31 1    
    48   48   31 1    
    49   53   32 1    
    50   54   32 1    
    51   55   32 1    
    52   34   33 ar   
    53   49   33 1    
    54   35   34 ar   
    55   50   34 1    
    56   36   35 ar   
    57   51   35 1    
    58   52   36 1    
@<TRIPOS>SUBSTRUCTURE
     1 MNT901      1 GROUP   
@<TRIPOS>SET

