#    Name: 3d83_GK6_1_INTS_M
#    Modification time : Mon Mar 24 22:51:46 2014

@<TRIPOS>MOLECULE
3d83_GK6_1_INTS_M
   99     0     9     0     0
SMALL
NO_CHARGES


@<TRIPOS>ATOM
      1 N          46.0885   36.0690   31.8605 N.am      2 SEC2        0.0000 
      2 N          46.2930   34.8180   30.9770 N.am      8 SEL2        0.0000 
      3 N          45.8840   37.3200   32.7440 N.am      5 SEP2        0.0000 
      4 CA         47.2055   33.6275   27.3610 C.3       3 GLC5        0.0000 
      5 CA         47.9870   33.6210   29.0970 C.3       9 GLL5        0.0000 
      6 CA         46.4240   33.6340   25.6250 C.3       6 GLP5        0.0000 
      7 CA         46.9350   35.5580   28.9900 C.3       3 GLC5        0.0000 
      8 CA         45.8830   37.4950   28.8830 C.3       6 GLP5        0.0000 
      9 CA         48.4510   33.0495   26.9455 C.3       3 GLC5        0.0000 
     10 CA         49.0690   32.5610   28.8470 C.3       9 GLL5        0.0000 
     11 CA         47.8330   33.5380   25.0440 C.3       6 GLP5        0.0000 
     12 CA         48.4895   31.8365   31.6065 C.3       3 GLC5        0.0000 
     13 CA         49.7130   32.0970   30.1540 C.3       9 GLL5        0.0000 
     14 CA         47.2660   31.5760   33.0590 C.3       6 GLP5        0.0000 
     15 CA         43.1135   30.3360   29.1510 C.3       3 GLC5        0.0000 
     16 CA         43.2190   31.0710   31.0750 C.3       9 GLL5        0.0000 
     17 CA         43.0080   29.6010   27.2270 C.3       6 GLP5        0.0000 
     18 CA         40.9295   34.2995   32.9715 C.3       3 GLC5        0.0000 
     19 CA         42.6540   33.0280   32.3520 C.3       9 GLL5        0.0000 
     20 CA         39.2050   35.5710   33.5910 C.3       6 GLP5        0.0000 
     21 CA         41.1755   33.9745   30.0185 C.3       3 GLC5        0.0000 
     22 CA         40.0470   32.5660   30.5520 C.3       9 GLL5        0.0000 
     23 CA         42.3040   35.3830   29.4850 C.3       6 GLP5        0.0000 
     24 CA         42.7515   30.8595   34.4615 C.3       3 GLC5        0.0000 
     25 CA         40.9900   30.1500   33.3360 C.3       9 GLL5        0.0000 
     26 CA         44.5130   31.5690   35.5870 C.3       6 GLP5        0.0000 
     27 CA         36.8495   29.4380   32.2420 C.3       3 GLC5        0.0000 
     28 CA         38.5790   30.0370   32.9910 C.3       9 GLL5        0.0000 
     29 CA         35.1200   28.8390   31.4930 C.3       6 GLP5        0.0000 
     30 CA         36.9135   31.0945   31.2090 C.3       3 GLC5        0.0000 
     31 CA         38.7050   30.9950   31.9660 C.3       9 GLL5        0.0000 
     32 CA         35.1220   31.1940   30.4520 C.3       6 GLP5        0.0000 
     33 O          38.6755   27.7695   34.0530 O.2       1 ALC1        0.0000 
     34 O          39.5810   28.6850   34.6690 O.2       7 ALL1        0.0000 
     35 O          37.7700   26.8540   33.4370 O.2       4 ALP1        0.0000 
     36 N          42.3230   28.8550   36.9545 N.am      2 SEC2        0.0000 
     37 N          41.1200   29.4700   36.1680 N.am      8 SEL2        0.0000 
     38 N          43.5260   28.2400   37.7410 N.am      5 SEP2        0.0000 
     39 CA         40.0730   30.0225   38.5335 C.3       3 GLC5        0.0000 
     40 CA         40.1000   27.9850   38.3110 C.3       9 GLL5        0.0000 
     41 CA         40.0460   32.0600   38.7560 C.3       6 GLP5        0.0000 
     42 CA         41.8845   29.0910   38.7360 C.3       3 GLC5        0.0000 
     43 CA         43.6690   30.1970   39.1610 C.3       6 GLP5        0.0000 
     44 CA         37.9675   26.2560   40.0485 C.3       3 GLC5        0.0000 
     45 CA         39.7450   27.0410   39.2980 C.3       9 GLL5        0.0000 
     46 CA         36.1900   25.4710   40.7990 C.3       6 GLP5        0.0000 
     47 CA         37.5255   25.5340   39.2110 C.3       3 GLC5        0.0000 
     48 CA         38.8610   25.5970   37.6230 C.3       9 GLL5        0.0000 
     49 CA         39.5275   26.8845   45.1130 C.3       3 GLC5        0.0000 
     50 CA         39.8540   26.6370   43.0270 C.3       9 GLL5        0.0000 
     51 CA         39.2010   27.1320   47.1990 C.3       6 GLP5        0.0000 
     52 CA         38.4495   25.7950   44.0585 C.3       3 GLC5        0.0000 
     53 CA         37.0450   24.9530   45.0900 C.3       6 GLP5        0.0000 
     54 CA         38.4615   29.3695   42.8875 C.3       3 GLC5        0.0000 
     55 CA         40.3550   28.8400   42.5260 C.3       9 GLL5        0.0000 
     56 CA         36.5680   29.8990   43.2490 C.3       6 GLP5        0.0000 
     57 CA         39.8975   30.6340   42.9535 C.3       3 GLC5        0.0000 
     58 CA         39.4400   32.4280   43.3810 C.3       6 GLP5        0.0000 
     59 CA         40.5655   29.3375   44.3345 C.3       3 GLC5        0.0000 
     60 CA         40.7760   29.8350   46.1430 C.3       6 GLP5        0.0000 
     61 CA         42.3470   29.2165   42.9795 C.3       3 GLC5        0.0000 
     62 CA         44.3390   29.5930   43.4330 C.3       6 GLP5        0.0000 
     63 CA         40.3190   30.3325   39.8940 C.3       3 GLC5        0.0000 
     64 CA         40.5920   28.6050   41.0320 C.3       9 GLL5        0.0000 
     65 CA         42.1305   29.4010   40.0965 C.3       3 GLC5        0.0000 
     66 CA         43.8430   32.2373   28.9578 C.3       3 GLC5        0.0000 
     67 CA         44.3990   31.7120   30.6360 C.3       9 GLL5        0.0000 
     68 CA         43.1300   32.1160   27.0700 C.3       6 GLP5        0.0000 
     69 CA         43.4300   33.8708   30.1653 C.3       3 GLC5        0.0000 
     70 CA         44.0235   34.5627   33.4847 C.3       3 GLC5        0.0000 
     71 CA         43.8320   33.6670   31.9150 C.3       9 GLL5        0.0000 
     72 CA         44.8040   35.7780   34.8360 C.3       6 GLP5        0.0000 
     73 CA         42.5493   33.9589   30.7619 C.3       3 GLC5        0.0000 
     74 CA         43.6538   32.0519   33.8129 C.3       3 GLC5        0.0000 
     75 CA         39.4812   30.9825   29.6077 C.3       3 GLC5        0.0000 
     76 CA         39.9640   31.5260   31.6450 C.3       9 GLL5        0.0000 
     77 CA         38.9570   29.9190   28.1170 C.3       6 GLP5        0.0000 
     78 CA         39.3120   33.1258   32.5005 C.3       3 GLC5        0.0000 
     79 CA         38.3290   34.3050   33.7300 C.3       6 GLP5        0.0000 
     80 CA         39.6740   28.7767   31.9340 C.3       3 GLC5        0.0000 
     81 CA         38.9910   27.6720   30.3620 C.3       6 GLP5        0.0000 
     82 CA         38.8165   29.0940   31.4202 C.3       3 GLC5        0.0000 
     83 CA         38.4855   32.4105   33.1043 C.3       3 GLC5        0.0000 
     84 CA         37.3291   30.0235   33.8299 C.3       3 GLC5        0.0000 
     85 CA         35.7300   29.6370   35.0100 C.3       6 GLP5        0.0000 
     86 CA         41.4371   26.6340   38.0470 C.3       3 GLC5        0.0000 
     87 CA         39.7990   27.7130   36.9570 C.3       9 GLL5        0.0000 
     88 CA         43.0270   25.8230   37.6280 C.3       6 GLP5        0.0000 
     89 CA         37.3960   26.0898   35.8153 C.3       3 GLC5        0.0000 
     90 CA         39.1850   26.5000   36.6040 C.3       9 GLL5        0.0000 
     91 CA         35.7690   26.1310   34.5170 C.3       6 GLP5        0.0000 
     92 CA         41.0250   25.9357   37.3708 C.3       3 GLC5        0.0000 
     93 CA         38.1701   28.6953   37.1550 C.3       3 GLC5        0.0000 
     94 CA         36.7730   30.2160   37.1910 C.3       6 GLP5        0.0000 
     95 CA         38.0545   25.9313   41.5523 C.3       3 GLC5        0.0000 
     96 CA         39.9840   26.1460   41.5840 C.3       9 GLL5        0.0000 
     97 CA         41.7800   26.2802   42.5243 C.3       3 GLC5        0.0000 
     98 CA         43.6410   26.1690   42.7430 C.3       6 GLP5        0.0000 
     99 CA         42.0572   27.4458   42.2610 C.3       3 GLC5        0.0000 
@<TRIPOS>BOND
@<TRIPOS>SUBSTRUCTURE
     1 ALC1       33 GROUP        1 X    ALC  0     ROOT ALC X 1
     2 SEC2        1 GROUP        1 X    SEC  0     **** SEC X 2
     3 GLC5        4 GROUP        1 X    GLC  0     **** GLC X 6
     4 ALP1       35 GROUP        1 Y    ALP  0     ROOT ALP Y 8
     5 SEP2        3 GROUP        1 Y    SEP  0     **** SEP Y 9
     6 GLP5        6 GROUP        1 Y    GLP  0     **** GLP Y 13
     7 ALL1       34 GROUP        1 Z    ALL  0     ROOT ALL Z 15
     8 SEL2        2 GROUP        1 Z    SEL  0     **** SEL Z 16
     9 GLL5        5 GROUP        1 Z    GLL  0     **** GLL Z 20
@<TRIPOS>SET

