#    Name: 3d83_GK6_1_ligand
#    Modification time : Mon Mar 24 22:51:46 2014

@<TRIPOS>MOLECULE
3d83_GK6_1_ligand
   65    69     1     0     0
SMALL
NO_CHARGES


@<TRIPOS>ATOM
      1 O3         46.2930   34.8180   30.9770 O.2       1 GK6401      0.0000 
      2 C24        46.0010   33.6850   30.5740 C.2       1 GK6401      0.0000 
      3 N4         46.7750   33.0420   29.6770 N.am      1 GK6401      0.0000 
      4 C25        47.9870   33.6210   29.0970 C.3       1 GK6401      0.0000 
      5 C26        49.0690   32.5610   28.8470 C.3       1 GK6401      0.0000 
      6 C28        50.4230   33.1260   29.2810 C.3       1 GK6401      0.0000 
      7 C27        49.7130   32.0970   30.1540 C.3       1 GK6401      0.0000 
      8 C21        44.7130   33.0050   31.0550 C.ar      1 GK6401      0.0000 
      9 C20        44.3990   31.7120   30.6360 C.ar      1 GK6401      0.0000 
     10 C19        43.2190   31.0710   31.0750 C.ar      1 GK6401      0.0000 
     11 C22        43.8320   33.6670   31.9150 C.ar      1 GK6401      0.0000 
     12 C23        42.6540   33.0280   32.3520 C.ar      1 GK6401      0.0000 
     13 C18        42.3460   31.7220   31.9440 C.ar      1 GK6401      0.0000 
     14 C17        41.1220   31.1280   32.3350 C.ar      1 GK6401      0.0000 
     15 C2         39.9640   31.5260   31.6450 C.ar      1 GK6401      0.0000 
     16 C1         40.0470   32.5660   30.5520 C.3       1 GK6401      0.0000 
     17 C16        40.9900   30.1500   33.3360 C.ar      1 GK6401      0.0000 
     18 C5         39.7240   29.6130   33.6760 C.ar      1 GK6401      0.0000 
     19 C4         38.5790   30.0370   32.9910 C.ar      1 GK6401      0.0000 
     20 C3         38.7050   30.9950   31.9660 C.ar      1 GK6401      0.0000 
     21 N1         39.5810   28.6850   34.6690 N.am      1 GK6401      0.0000 
     22 C6         40.2020   28.7100   35.8760 C.2       1 GK6401      0.0000 
     23 O1         41.1200   29.4700   36.1680 O.2       1 GK6401      0.0000 
     24 C7         39.7990   27.7130   36.9570 C.ar      1 GK6401      0.0000 
     25 C11        40.1000   27.9850   38.3110 C.ar      1 GK6401      0.0000 
     26 C10        39.7450   27.0410   39.2980 C.ar      1 GK6401      0.0000 
     27 N2         39.1500   25.8840   38.9140 N.ar      1 GK6401      0.0000 
     28 C9         38.8610   25.5970   37.6230 C.ar      1 GK6401      0.0000 
     29 C8         39.1850   26.5000   36.6040 C.ar      1 GK6401      0.0000 
     30 N3         40.0600   27.2770   40.6590 N.3       1 GK6401      0.0000 
     31 C15        39.9840   26.1460   41.5840 C.3       1 GK6401      0.0000 
     32 C14        39.8540   26.6370   43.0270 C.3       1 GK6401      0.0000 
     33 O2         40.7740   27.6980   43.2700 O.3       1 GK6401      0.0000 
     34 C13        40.3550   28.8400   42.5260 C.3       1 GK6401      0.0000 
     35 C12        40.5920   28.6050   41.0320 C.3       1 GK6401      0.0000 
     36 H          46.5362   32.0752   29.3478 H         1 GK6401      0.0000 
     37 H          48.4114   34.3873   29.7634 H         1 GK6401      0.0000 
     38 H          47.7650   34.1110   28.1368 H         1 GK6401      0.0000 
     39 H          49.1664   31.9675   28.2073 H         1 GK6401      0.0000 
     40 H          50.2668   33.9786   29.6581 H         1 GK6401      0.0000 
     41 H          51.0905   32.6726   28.7887 H         1 GK6401      0.0000 
     42 H          50.1141   31.2566   29.9906 H         1 GK6401      0.0000 
     43 H          49.2904   32.5626   30.8600 H         1 GK6401      0.0000 
     44 H          45.0327   31.2099   29.9962 H         1 GK6401      0.0000 
     45 H          43.0115   30.1206   30.7471 H         1 GK6401      0.0000 
     46 H          44.0385   34.6199   32.2317 H         1 GK6401      0.0000 
     47 H          42.0111   33.5309   32.9810 H         1 GK6401      0.0000 
     48 H          41.8268   29.8143   33.8345 H         1 GK6401      0.0000 
     49 H          37.6633   29.6594   33.2282 H         1 GK6401      0.0000 
     50 H          37.8727   31.3041   31.4539 H         1 GK6401      0.0000 
     51 H          38.9143   27.8603   34.4728 H         1 GK6401      0.0000 
     52 H          40.5659   28.8493   38.5692 H         1 GK6401      0.0000 
     53 H          38.3961   24.7065   37.3662 H         1 GK6401      0.0000 
     54 H          38.9826   26.2861   35.6347 H         1 GK6401      0.0000 
     55 H          40.8828   25.5239   41.5142 H         1 GK6401      0.0000 
     56 H          39.1177   25.5149   41.3583 H         1 GK6401      0.0000 
     57 H          40.0364   25.7791   43.6877 H         1 GK6401      0.0000 
     58 H          38.8140   26.9560   43.1771 H         1 GK6401      0.0000 
     59 H          40.9111   29.7408   42.8129 H         1 GK6401      0.0000 
     60 H          39.2870   29.0481   42.6642 H         1 GK6401      0.0000 
     61 H          40.0885   29.3906   40.4741 H         1 GK6401      0.0000 
     62 H          41.6605   28.6585   40.8386 H         1 GK6401      0.0000 
     63 H          40.4026   33.4360   30.8934 H         1 GK6401      0.0000 
     64 H          40.6483   32.2754   29.8077 H         1 GK6401      0.0000 
     65 H          39.1512   32.7535   30.1489 H         1 GK6401      0.0000 
@<TRIPOS>BOND
     1    2    1 2    
     2    3    2 am   
     3    8    2 1    
     4    4    3 1    
     5   36    3 1    
     6    5    4 1    
     7   37    4 1    
     8   38    4 1    
     9    6    5 1    
    10    7    5 1    
    11   39    5 1    
    12    7    6 1    
    13   40    6 1    
    14   41    6 1    
    15   42    7 1    
    16   43    7 1    
    17    9    8 ar   
    18   11    8 ar   
    19   10    9 ar   
    20   44    9 1    
    21   13   10 ar   
    22   45   10 1    
    23   12   11 ar   
    24   46   11 1    
    25   13   12 ar   
    26   47   12 1    
    27   14   13 1    
    28   15   14 ar   
    29   17   14 ar   
    30   16   15 1    
    31   20   15 ar   
    32   63   16 1    
    33   64   16 1    
    34   65   16 1    
    35   18   17 ar   
    36   48   17 1    
    37   19   18 ar   
    38   21   18 1    
    39   20   19 ar   
    40   49   19 1    
    41   50   20 1    
    42   22   21 am   
    43   51   21 1    
    44   23   22 2    
    45   24   22 1    
    46   25   24 ar   
    47   29   24 ar   
    48   26   25 ar   
    49   52   25 1    
    50   27   26 ar   
    51   30   26 1    
    52   28   27 ar   
    53   29   28 ar   
    54   53   28 1    
    55   54   29 1    
    56   31   30 1    
    57   35   30 1    
    58   32   31 1    
    59   55   31 1    
    60   56   31 1    
    61   33   32 1    
    62   57   32 1    
    63   58   32 1    
    64   34   33 1    
    65   35   34 1    
    66   59   34 1    
    67   60   34 1    
    68   61   35 1    
    69   62   35 1    
@<TRIPOS>SUBSTRUCTURE
     1 GK6401      1 GROUP   
@<TRIPOS>SET

