#    Name: 1qyx_ASD_1_INTS_M
#    Modification time : Tue Mar 25 00:08:33 2014

@<TRIPOS>MOLECULE
1qyx_ASD_1_INTS_M
   54     0     6     0     0
SMALL
NO_CHARGES


@<TRIPOS>ATOM
      1 CA         12.1320    6.4780  -15.4880 C.3       2 GLC5        0.0000 
      2 CA         12.6820    6.6370  -13.3280 C.3       6 GLL5        0.0000 
      3 CA         11.5820    6.3190  -17.6480 C.3       4 GLP5        0.0000 
      4 CA         11.1410    7.2865  -15.9800 C.3       2 GLC5        0.0000 
      5 CA         10.7000    8.2540  -14.3120 C.3       6 GLL5        0.0000 
      6 CA         11.1615    8.5975  -16.4170 C.3       2 GLC5        0.0000 
      7 CA         10.0980    9.4980  -14.8940 C.3       6 GLL5        0.0000 
      8 CA         12.2250    7.6970  -17.9400 C.3       4 GLP5        0.0000 
      9 CA         11.4375   10.9445  -15.7310 C.3       2 GLC5        0.0000 
     10 CA         12.7770   12.3910  -16.5680 C.3       4 GLP5        0.0000 
     11 CA          7.5105   10.4315  -11.2615 C.3       2 GLC5        0.0000 
     12 CA          9.0770   11.4870  -11.7710 C.3       6 GLL5        0.0000 
     13 CA          5.9440    9.3760  -10.7520 C.3       4 GLP5        0.0000 
     14 CA          8.0525   14.4275  -12.0950 C.3       2 GLC5        0.0000 
     15 CA          8.9100   12.6080  -12.8390 C.3       6 GLL5        0.0000 
     16 CA          7.1950   16.2470  -11.3510 C.3       4 GLP5        0.0000 
     17 CA          6.9175   13.1250  -12.6605 C.3       2 GLC5        0.0000 
     18 CA          4.9250   13.6420  -12.4820 C.3       4 GLP5        0.0000 
     19 CA          6.8685    9.5995  -12.3910 C.3       2 GLC5        0.0000 
     20 CA          7.7930    9.8230  -14.0300 C.3       6 GLL5        0.0000 
     21 CA          7.6060    7.9820  -15.1000 C.3       2 GLC5        0.0000 
     22 CA          7.4190    6.1410  -16.1700 C.3       4 GLP5        0.0000 
     23 CA          6.2515   11.2475  -13.9825 C.3       2 GLC5        0.0000 
     24 CA          4.7100   12.6720  -13.9350 C.3       4 GLP5        0.0000 
     25 CA          6.6300   10.3385  -15.5645 C.3       2 GLC5        0.0000 
     26 CA          5.4670   10.8540  -17.0990 C.3       4 GLP5        0.0000 
     27 CA          8.8155    6.7485  -11.1630 C.3       2 GLC5        0.0000 
     28 CA         10.4030    6.1690  -12.2020 C.3       6 GLL5        0.0000 
     29 CA          7.2280    7.3280  -10.1240 C.3       4 GLP5        0.0000 
     30 CA         15.6160    5.8855  -13.1275 C.3       2 GLC5        0.0000 
     31 CA         13.4720    5.4360  -12.8760 C.3       6 GLL5        0.0000 
     32 CA         17.7600    6.3350  -13.3790 C.3       4 GLP5        0.0000 
     33 CA          9.3735    7.7570  -10.0405 C.3       2 GLC5        0.0000 
     34 CA         11.5190    8.1860   -9.9570 C.3       6 GLL5        0.0000 
     35 CA         12.0040   11.3565  -10.4410 C.3       2 GLC5        0.0000 
     36 CA         11.2860    9.5660  -10.6440 C.3       6 GLL5        0.0000 
     37 CA         12.7220   13.1470  -10.2380 C.3       4 GLP5        0.0000 
     38 CA          8.8150    8.3180  -11.0260 C.3       2 GLC5        0.0000 
     39 CA         10.4020    9.3080  -11.9280 C.3       6 GLL5        0.0000 
     40 N           9.1325   12.4340  -16.5015 N.am      1 SEC2        0.0000 
     41 N           8.8090   12.5650  -15.2250 N.am      5 SEL2        0.0000 
     42 N           9.4560   12.3030  -17.7780 N.am      3 SEP2        0.0000 
     43 CA          8.9090    7.5085  -15.3865 C.3       2 GLC5        0.0000 
     44 CA          9.4853   10.4915  -16.3368 C.3       2 GLC5        0.0000 
     45 CA          9.3120   11.0280  -18.2610 C.3       4 GLP5        0.0000 
     46 CA         10.3747   12.7806  -11.5744 C.3       2 GLC5        0.0000 
     47 CA         11.5330   13.7430  -10.6270 C.3       4 GLP5        0.0000 
     48 CA         14.5220    7.6857  -10.7553 C.3       2 GLC5        0.0000 
     49 CA         12.2060    7.2280  -10.8950 C.3       6 GLL5        0.0000 
     50 CA         16.2890    8.5100  -10.8080 C.3       4 GLP5        0.0000 
     51 CA         10.9228    9.2990   -8.8012 C.3       2 GLC5        0.0000 
     52 CA         10.4430    9.7220   -7.3020 C.3       4 GLP5        0.0000 
     53 CA         13.2383    9.5045   -9.9282 C.3       2 GLC5        0.0000 
     54 CA         15.0740   10.1330   -9.5560 C.3       4 GLP5        0.0000 
@<TRIPOS>BOND
@<TRIPOS>SUBSTRUCTURE
     1 SEC2       40 GROUP        1 X    SEC  0     ROOT SEC X 2
     2 GLC5        1 GROUP        1 X    GLC  0     **** GLC X 6
     3 SEP2       42 GROUP        1 Y    SEP  0     ROOT SEP Y 9
     4 GLP5        3 GROUP        1 Y    GLP  0     **** GLP Y 13
     5 SEL2       41 GROUP        1 Z    SEL  0     ROOT SEL Z 16
     6 GLL5        2 GROUP        1 Z    GLL  0     **** GLL Z 20
@<TRIPOS>SET

