#    Name: 1qyx_ASD_1_ligand
#    Modification time : Tue Mar 25 00:08:33 2014

@<TRIPOS>MOLECULE
1qyx_ASD_1_ligand
   47    50     1     0     0
SMALL
NO_CHARGES


@<TRIPOS>ATOM
      1 C1         12.6820    6.6370  -13.3280 C.3       1 ASD500      0.0000 
      2 C10        11.6230    7.1250  -12.3090 C.3       1 ASD500      0.0000 
      3 C11        10.7000    8.2540  -14.3120 C.3       1 ASD500      0.0000 
      4 C12        10.0980    9.4980  -14.8940 C.3       1 ASD500      0.0000 
      5 C13         9.2190   10.4120  -13.9310 C.3       1 ASD500      0.0000 
      6 C14         9.9690   10.5700  -12.6380 C.3       1 ASD500      0.0000 
      7 C15         9.0770   11.4870  -11.7710 C.3       1 ASD500      0.0000 
      8 C16         8.9100   12.6080  -12.8390 C.3       1 ASD500      0.0000 
      9 C17         8.9680   11.8890  -14.2240 C.2       1 ASD500      0.0000 
     10 C18         7.7930    9.8230  -14.0300 C.3       1 ASD500      0.0000 
     11 C19        10.4030    6.1690  -12.2020 C.3       1 ASD500      0.0000 
     12 C2         13.4720    5.4360  -12.8760 C.3       1 ASD500      0.0000 
     13 C3         13.9540    5.5870  -11.4550 C.2       1 ASD500      0.0000 
     14 C4         13.3040    6.4950  -10.5100 C.2       1 ASD500      0.0000 
     15 C5         12.2060    7.2280  -10.8950 C.2       1 ASD500      0.0000 
     16 C6         11.5190    8.1860   -9.9570 C.3       1 ASD500      0.0000 
     17 C7         11.2860    9.5660  -10.6440 C.3       1 ASD500      0.0000 
     18 C8         10.4020    9.3080  -11.9280 C.3       1 ASD500      0.0000 
     19 C9         11.2420    8.5130  -12.8800 C.3       1 ASD500      0.0000 
     20 O1         14.9130    4.9130  -11.1460 O.2       1 ASD500      0.0000 
     21 O2          8.8090   12.5650  -15.2250 O.2       1 ASD500      0.0000 
     22 H          13.3682    7.4765  -13.5370 H         1 ASD500      0.0000 
     23 H          12.1643    6.4066  -14.2757 H         1 ASD500      0.0000 
     24 H          11.5279    7.9083  -14.9318 H         1 ASD500      0.0000 
     25 H           9.9521    7.4626  -14.2548 H         1 ASD500      0.0000 
     26 H           9.4505    9.2399  -15.7651 H         1 ASD500      0.0000 
     27 H          10.8990   10.1536  -15.3102 H         1 ASD500      0.0000 
     28 H          10.8725   11.1863  -12.8630 H         1 ASD500      0.0000 
     29 H           9.6146   11.8492  -10.9747 H         1 ASD500      0.0000 
     30 H           8.1700   11.0367  -11.6017 H         1 ASD500      0.0000 
     31 H           9.7188   13.2910  -12.7643 H         1 ASD500      0.0000 
     32 H           7.9612   13.0689  -12.7226 H         1 ASD500      0.0000 
     33 H          14.3352    5.2982  -13.5390 H         1 ASD500      0.0000 
     34 H          12.8453    4.5388  -12.9529 H         1 ASD500      0.0000 
     35 H          13.6968    6.5576   -9.5688 H         1 ASD500      0.0000 
     36 H          12.1284    8.3472   -9.0700 H         1 ASD500      0.0000 
     37 H          10.5516    7.7896   -9.6554 H         1 ASD500      0.0000 
     38 H          12.2204    9.9764  -10.9481 H         1 ASD500      0.0000 
     39 H          10.7520   10.2085   -9.9838 H         1 ASD500      0.0000 
     40 H           9.5564    8.7272  -11.6399 H         1 ASD500      0.0000 
     41 H          12.2278    9.0334  -13.0193 H         1 ASD500      0.0000 
     42 H           7.7654    8.8664  -13.7401 H         1 ASD500      0.0000 
     43 H           7.1443   10.3222  -13.4556 H         1 ASD500      0.0000 
     44 H           7.4417    9.8560  -14.9657 H         1 ASD500      0.0000 
     45 H          10.6749    5.2507  -11.9143 H         1 ASD500      0.0000 
     46 H           9.7311    6.4972  -11.5381 H         1 ASD500      0.0000 
     47 H           9.9281    6.0735  -13.0769 H         1 ASD500      0.0000 
@<TRIPOS>BOND
     1    2    1 1    
     2   12    1 1    
     3   22    1 1    
     4   23    1 1    
     5   11    2 1    
     6   15    2 1    
     7   19    2 1    
     8    4    3 1    
     9   19    3 1    
    10   24    3 1    
    11   25    3 1    
    12    5    4 1    
    13   26    4 1    
    14   27    4 1    
    15    6    5 1    
    16    9    5 1    
    17   10    5 1    
    18    7    6 1    
    19   18    6 1    
    20   28    6 1    
    21    8    7 1    
    22   29    7 1    
    23   30    7 1    
    24    9    8 1    
    25   31    8 1    
    26   32    8 1    
    27   21    9 2    
    28   42   10 1    
    29   43   10 1    
    30   44   10 1    
    31   45   11 1    
    32   46   11 1    
    33   47   11 1    
    34   13   12 1    
    35   33   12 1    
    36   34   12 1    
    37   14   13 1    
    38   20   13 2    
    39   15   14 2    
    40   35   14 1    
    41   16   15 1    
    42   17   16 1    
    43   36   16 1    
    44   37   16 1    
    45   18   17 1    
    46   38   17 1    
    47   39   17 1    
    48   19   18 1    
    49   40   18 1    
    50   41   19 1    
@<TRIPOS>SUBSTRUCTURE
     1 ASD500      1 GROUP   
@<TRIPOS>SET

