#    Name: 1loo_GTP_1_INTS_M
#    Modification time : Tue Mar 25 11:12:05 2014

@<TRIPOS>MOLECULE
1loo_GTP_1_INTS_M
   45     0    12     0     0
SMALL
NO_CHARGES


@<TRIPOS>ATOM
      1 NZ         63.1785   56.4625   37.3655 N.4       3 LYC4        0.0000 
      2 NZ         61.7670   57.0560   36.9960 N.4      11 LYL4        0.0000 
      3 NZ         64.5900   55.8690   37.7350 N.4       7 LYP4        0.0000 
      4 N          62.1710   56.8910   35.5380 N.am      2 SEC2        0.0000 
      5 N          61.7670   57.0560   36.9960 N.am     10 SEL2        0.0000 
      6 N          62.5750   56.7260   34.0800 N.am      6 SEP2        0.0000 
      7 N          63.1785   56.4625   37.3655 N.am      2 SEC2        0.0000 
      8 N          64.5900   55.8690   37.7350 N.am      6 SEP2        0.0000 
      9 NZ         62.6670   55.6280   38.1675 N.4       3 LYC4        0.0000 
     10 NZ         60.7440   55.3870   38.6000 N.4      11 LYL4        0.0000 
     11 NZ         63.7535   54.6100   37.1810 N.4       3 LYC4        0.0000 
     12 NZ         62.9170   53.3510   36.6270 N.4      11 LYL4        0.0000 
     13 N          63.5325   52.6805   35.3665 N.am      2 SEC2        0.0000 
     14 N          62.9170   53.3510   36.6270 N.am     10 SEL2        0.0000 
     15 N          64.1480   52.0100   34.1060 N.am      6 SEP2        0.0000 
     16 N          63.7730   52.3230   36.6570 N.am      2 SEC2        0.0000 
     17 N          64.6290   51.2950   36.6870 N.am      6 SEP2        0.0000 
     18 N          63.7535   54.6100   37.1810 N.am      2 SEC2        0.0000 
     19 CA         60.1825   50.2775   30.7045 C.3       4 GLC5        0.0000 
     20 CA         58.8470   50.1010   32.4350 C.3      12 GLL5        0.0000 
     21 CA         61.5180   50.4540   28.9740 C.3       8 GLP5        0.0000 
     22 CA         60.5895   49.2885   30.2405 C.3       4 GLC5        0.0000 
     23 CA         59.6610   48.1230   31.5070 C.3      12 GLL5        0.0000 
     24 CA         63.1485   45.3975   32.4400 C.3       4 GLC5        0.0000 
     25 CA         62.6740   46.4010   30.5080 C.3      12 GLL5        0.0000 
     26 CA         63.6230   44.3940   34.3720 C.3       8 GLP5        0.0000 
     27 CA         63.1495   47.8470   29.3465 C.3       4 GLC5        0.0000 
     28 CA         63.6250   49.2930   28.1850 C.3       8 GLP5        0.0000 
     29 N          65.2515   46.3315   28.9335 N.am      2 SEC2        0.0000 
     30 N          64.5370   45.2080   29.6100 N.am     10 SEL2        0.0000 
     31 N          65.9660   47.4550   28.2570 N.am      6 SEP2        0.0000 
     32 N          63.9605   43.7800   29.0575 N.am      2 SEC2        0.0000 
     33 N          63.3840   42.3520   28.5050 N.am      6 SEP2        0.0000 
     34 O          63.2725   44.9685   27.2330 O.2       1 ALC1        0.0000 
     35 O          62.6170   45.3950   28.4160 O.2       9 ALL1        0.0000 
     36 O          63.9280   44.5420   26.0500 O.2       5 ALP1        0.0000 
     37 O          61.3710   44.8585   26.0495 O.2       1 ALC1        0.0000 
     38 O          60.7510   45.4870   27.0540 O.2       9 ALL1        0.0000 
     39 O          61.9910   44.2300   25.0450 O.2       5 ALP1        0.0000 
     40 O          62.3395   45.0145   26.5520 O.2       1 ALC1        0.0000 
     41 CA         61.4480   48.6180   29.6005 C.3       4 GLC5        0.0000 
     42 CA         61.3780   46.7820   30.2270 C.3      12 GLL5        0.0000 
     43 CA         59.5585   45.6185   30.1820 C.3       4 GLC5        0.0000 
     44 CA         57.7390   44.4550   30.1370 C.3       8 GLP5        0.0000 
     45 CA         58.5350   46.1942   31.1530 C.3       4 GLC5        0.0000 
@<TRIPOS>BOND
@<TRIPOS>SUBSTRUCTURE
     1 ALC1       34 GROUP        1 X    ALC  0     ROOT ALC X 1
     2 SEC2        4 GROUP        1 X    SEC  0     **** SEC X 2
     3 LYC4        1 GROUP        1 X    LYC  0     **** LYC X 4
     4 GLC5       19 GROUP        1 X    GLC  0     **** GLC X 6
     5 ALP1       36 GROUP        1 Y    ALP  0     ROOT ALP Y 8
     6 SEP2        6 GROUP        1 Y    SEP  0     **** SEP Y 9
     7 LYP4        3 GROUP        1 Y    LYP  0     **** LYP Y 11
     8 GLP5       21 GROUP        1 Y    GLP  0     **** GLP Y 13
     9 ALL1       35 GROUP        1 Z    ALL  0     ROOT ALL Z 15
    10 SEL2        5 GROUP        1 Z    SEL  0     **** SEL Z 16
    11 LYL4        2 GROUP        1 Z    LYL  0     **** LYL Z 18
    12 GLL5       20 GROUP        1 Z    GLL  0     **** GLL Z 20
@<TRIPOS>SET

