#    Name: 1loo_GTP_1_ligand
#    Modification time : Tue Mar 25 11:12:05 2014

@<TRIPOS>MOLECULE
1loo_GTP_1_ligand
   44    46     1     0     0
SMALL
NO_CHARGES


@<TRIPOS>ATOM
      1 PG         60.6810   56.0140   37.2170 P.3       1 GTP458      0.0000 
      2 O1G        61.7670   57.0560   36.9960 O.co2     1 GTP458      0.0000 
      3 O2G        60.7440   55.3870   38.6000 O.co2     1 GTP458      0.0000 
      4 O3G        59.2920   56.5210   36.8800 O.co2     1 GTP458      0.0000 
      5 O3B        60.9790   54.8310   36.1330 O.3       1 GTP458      0.0000 
      6 PB         61.4070   53.2990   36.4910 P.3       1 GTP458      0.0000 
      7 O1B        62.9170   53.3510   36.6270 O.co2     1 GTP458      0.0000 
      8 O2B        60.7040   53.0540   37.8150 O.co2     1 GTP458      0.0000 
      9 O3A        61.0800   52.0050   35.5570 O.3       1 GTP458      0.0000 
     10 PA         60.1570   50.7130   35.9460 P.3       1 GTP458      0.0000 
     11 O1A        60.9860   49.4940   35.8520 O.co2     1 GTP458      0.0000 
     12 O2A        59.4020   50.9660   37.1940 O.co2     1 GTP458      0.0000 
     13 O5'        59.1070   50.6620   34.7510 O.3       1 GTP458      0.0000 
     14 C5'        59.4680   51.0500   33.4280 C.3       1 GTP458      0.0000 
     15 C4'        58.8470   50.1010   32.4350 C.3       1 GTP458      0.0000 
     16 O4'        59.8660   49.5160   31.5850 O.3       1 GTP458      0.0000 
     17 C3'        58.0880   48.9400   33.0690 C.3       1 GTP458      0.0000 
     18 O3'        56.7860   48.8050   32.5030 O.3       1 GTP458      0.0000 
     19 C2'        59.0010   47.7440   32.8310 C.3       1 GTP458      0.0000 
     20 O2'        58.3110   46.5180   32.7200 O.3       1 GTP458      0.0000 
     21 C1'        59.6610   48.1230   31.5070 C.3       1 GTP458      0.0000 
     22 N9         60.9600   47.4870   31.3250 N.pl3     1 GTP458      0.0000 
     23 C8         62.0150   47.4970   32.2050 C.2       1 GTP458      0.0000 
     24 N7         63.0610   46.8600   31.7580 N.2       1 GTP458      0.0000 
     25 C5         62.6740   46.4010   30.5080 C.2       1 GTP458      0.0000 
     26 C6         63.3870   45.6410   29.5460 C.2       1 GTP458      0.0000 
     27 O6         64.5370   45.2080   29.6100 O.2       1 GTP458      0.0000 
     28 N1         62.6170   45.3950   28.4160 N.am      1 GTP458      0.0000 
     29 C2         61.3270   45.8240   28.2280 C.2       1 GTP458      0.0000 
     30 N2         60.7510   45.4870   27.0540 N.pl3     1 GTP458      0.0000 
     31 N3         60.6480   46.5320   29.1200 N.2       1 GTP458      0.0000 
     32 C4         61.3780   46.7820   30.2270 C.2       1 GTP458      0.0000 
     33 H          60.5565   51.0319   33.2855 H         1 GTP458      0.0000 
     34 H          59.1198   52.0652   33.1965 H         1 GTP458      0.0000 
     35 H          58.1412   50.6513   31.8092 H         1 GTP458      0.0000 
     36 H          58.0675   49.1267   34.1331 H         1 GTP458      0.0000 
     37 H          59.7623   47.7592   33.5771 H         1 GTP458      0.0000 
     38 H          58.9917   47.8794   30.7153 H         1 GTP458      0.0000 
     39 H          61.9502   47.9573   33.0911 H         1 GTP458      0.0000 
     40 H          63.0716   44.8256   27.6345 H         1 GTP458      0.0000 
     41 H          61.3019   44.9219   26.4398 H         1 GTP458      0.0000 
     42 H          59.8248   45.8325   26.9031 H         1 GTP458      0.0000 
     43 H          56.1603   49.1257   33.2141 H         1 GTP458      0.0000 
     44 H          57.3687   46.7704   32.5002 H         1 GTP458      0.0000 
@<TRIPOS>BOND
     1    2    1 ar   
     2    3    1 ar   
     3    4    1 ar   
     4    5    1 1    
     5    6    5 1    
     6    7    6 ar   
     7    8    6 ar   
     8    9    6 1    
     9   10    9 1    
    10   11   10 ar   
    11   12   10 ar   
    12   13   10 1    
    13   14   13 1    
    14   15   14 1    
    15   33   14 1    
    16   34   14 1    
    17   16   15 1    
    18   17   15 1    
    19   35   15 1    
    20   21   16 1    
    21   18   17 1    
    22   19   17 1    
    23   36   17 1    
    24   43   18 1    
    25   20   19 1    
    26   21   19 1    
    27   37   19 1    
    28   44   20 1    
    29   22   21 1    
    30   38   21 1    
    31   23   22 1    
    32   32   22 1    
    33   24   23 2    
    34   39   23 1    
    35   25   24 1    
    36   26   25 1    
    37   32   25 2    
    38   27   26 2    
    39   28   26 am   
    40   29   28 1    
    41   40   28 1    
    42   30   29 1    
    43   31   29 2    
    44   41   30 1    
    45   42   30 1    
    46   32   31 1    
@<TRIPOS>SUBSTRUCTURE
     1 GTP458      1 GROUP   
@<TRIPOS>SET

