#    Name: 4ejv_LCL_1_INTS_M
#    Modification time : Mon Mar 24 18:06:27 2014

@<TRIPOS>MOLECULE
4ejv_LCL_1_INTS_M
   24     0     3     0     0
SMALL
NO_CHARGES


@<TRIPOS>ATOM
      1 CA        -12.3585  -34.6575   -0.4495 C.3       1 GLC5        0.0000 
      2 CA        -13.9480  -36.2090   -0.6570 C.3       3 GLL5        0.0000 
      3 CA        -10.7690  -33.1060   -0.2420 C.3       2 GLP5        0.0000 
      4 CA        -11.8850  -38.8360   -3.6660 C.3       1 GLC5        0.0000 
      5 CA        -13.3550  -38.4720   -2.5370 C.3       3 GLL5        0.0000 
      6 CA        -10.4150  -39.2000   -4.7950 C.3       2 GLP5        0.0000 
      7 CA        -16.4125  -35.0295   -2.6545 C.3       1 GLC5        0.0000 
      8 CA        -15.9880  -37.1540   -2.6670 C.3       3 GLL5        0.0000 
      9 CA        -16.8370  -32.9050   -2.6420 C.3       2 GLP5        0.0000 
     10 CA        -19.3775  -38.8825   -2.3490 C.3       1 GLC5        0.0000 
     11 CA        -17.2600  -39.3450   -2.9040 C.3       3 GLL5        0.0000 
     12 CA        -21.4950  -38.4200   -1.7940 C.3       2 GLP5        0.0000 
     13 CA        -12.0460  -40.8120   -4.9175 C.3       1 GLC5        0.0000 
     14 CA        -13.8530  -41.0190   -4.5520 C.3       3 GLL5        0.0000 
     15 CA        -10.2390  -40.6050   -5.2830 C.3       2 GLP5        0.0000 
     16 CA        -12.5095  -39.6600   -5.0470 C.3       1 GLC5        0.0000 
     17 CA        -14.6040  -40.1200   -5.2990 C.3       3 GLL5        0.0000 
     18 CA        -18.4207  -40.9123   -3.4812 C.3       1 GLC5        0.0000 
     19 CA        -16.1890  -40.0020   -3.4930 C.3       3 GLL5        0.0000 
     20 CA        -20.1170  -42.1510   -3.7640 C.3       2 GLP5        0.0000 
     21 CA        -16.1193  -40.2373   -6.6355 C.3       1 GLC5        0.0000 
     22 CA        -17.0440  -40.6070   -8.2370 C.3       2 GLP5        0.0000 
     23 CA        -14.4380  -42.1725   -5.4832 C.3       1 GLC5        0.0000 
     24 CA        -14.5440  -43.6730   -6.3560 C.3       2 GLP5        0.0000 
@<TRIPOS>BOND
@<TRIPOS>SUBSTRUCTURE
     1 GLC5        1 GROUP        1 X    GLC  0     ROOT GLC X 6
     2 GLP5        3 GROUP        1 Y    GLP  0     ROOT GLP Y 13
     3 GLL5        2 GROUP        1 Z    GLL  0     ROOT GLL Z 20
@<TRIPOS>SET

