#    Name: 4ejv_LCL_1_ligand
#    Modification time : Mon Mar 24 18:06:27 2014

@<TRIPOS>MOLECULE
4ejv_LCL_1_ligand
   31    31     1     0     0
SMALL
NO_CHARGES


@<TRIPOS>ATOM
      1 C1        -13.7360  -37.9790   -0.8630 C.2       1 LCL201      0.0000 
      2 CL1       -13.9480  -36.2090   -0.6570 Cl        1 LCL201      0.0000 
      3 CL2       -13.3550  -38.4720   -2.5370 Cl        1 LCL201      0.0000 
      4 C2        -14.8590  -38.8210   -0.2460 C.2       1 LCL201      0.0000 
      5 O2        -14.6280  -39.3580    0.8420 O.2       1 LCL201      0.0000 
      6 N2        -16.0990  -38.8610   -0.7660 N.am      1 LCL201      0.0000 
      7 C3        -16.7640  -38.2530   -1.9380 C.3       1 LCL201      0.0000 
      8 C4        -15.9880  -37.1540   -2.6670 C.3       1 LCL201      0.0000 
      9 O4        -16.9090  -36.3490   -3.4150 O.3       1 LCL201      0.0000 
     10 C5        -17.2600  -39.3450   -2.9040 C.3       1 LCL201      0.0000 
     11 O5        -18.0840  -38.8160   -3.9510 O.3       1 LCL201      0.0000 
     12 C6        -16.1890  -40.0020   -3.4930 C.ar      1 LCL201      0.0000 
     13 C7        -15.4510  -40.9270   -2.7590 C.ar      1 LCL201      0.0000 
     14 C8        -14.2670  -41.4290   -3.2920 C.ar      1 LCL201      0.0000 
     15 C9        -13.8530  -41.0190   -4.5520 C.ar      1 LCL201      0.0000 
     16 N9        -12.8590  -41.6700   -5.1570 N.pl3     1 LCL201      0.0000 
     17 O9A       -11.8140  -41.9870   -4.1770 O.2       1 LCL201      0.0000 
     18 O9B       -12.3390  -40.8510   -6.2600 O.2       1 LCL201      0.0000 
     19 C10       -14.6040  -40.1200   -5.2990 C.ar      1 LCL201      0.0000 
     20 C11       -15.7850  -39.6150   -4.7690 C.ar      1 LCL201      0.0000 
     21 H         -16.8406  -39.5042   -0.1984 H         1 LCL201      0.0000 
     22 H         -17.7195  -37.7610   -1.5595 H         1 LCL201      0.0000 
     23 H         -15.2530  -37.6364   -3.3151 H         1 LCL201      0.0000 
     24 H         -15.4540  -36.5669   -1.9166 H         1 LCL201      0.0000 
     25 H         -17.8513  -40.0503   -2.3016 H         1 LCL201      0.0000 
     26 H         -15.7751  -41.2339   -1.8392 H         1 LCL201      0.0000 
     27 H         -13.7046  -42.0983   -2.7551 H         1 LCL201      0.0000 
     28 H         -14.2906  -39.8325   -6.2303 H         1 LCL201      0.0000 
     29 H         -16.3576  -38.9606   -5.3130 H         1 LCL201      0.0000 
     30 H         -17.5843  -36.9937   -3.7732 H         1 LCL201      0.0000 
     31 H         -17.5390  -38.9142   -4.7836 H         1 LCL201      0.0000 
@<TRIPOS>BOND
     1    2    1 1    
     2    3    1 1    
     3    4    1 1    
     4    5    4 2    
     5    6    4 am   
     6    7    6 1    
     7   21    6 1    
     8    8    7 1    
     9   10    7 1    
    10   22    7 1    
    11    9    8 1    
    12   23    8 1    
    13   24    8 1    
    14   30    9 1    
    15   11   10 1    
    16   12   10 1    
    17   25   10 1    
    18   31   11 1    
    19   13   12 ar   
    20   20   12 ar   
    21   14   13 ar   
    22   26   13 1    
    23   15   14 ar   
    24   27   14 1    
    25   16   15 1    
    26   19   15 ar   
    27   17   16 2    
    28   18   16 2    
    29   20   19 ar   
    30   28   19 1    
    31   29   20 1    
@<TRIPOS>SUBSTRUCTURE
     1 LCL201      1 GROUP   
@<TRIPOS>SET

