#    Name: 3IES_1_CAVITY_N1_ALL.mol2
#    Modification time : Tue Mar 11 02:20:54 2014

@<TRIPOS>MOLECULE
3IES_1_CAVITY_N1_ALL.mol2
   89     0     7     0     0
SMALL
NO_CHARGES


@<TRIPOS>ATOM
      1 CA        -32.0474   12.7683  -19.8876 C.3       6 GLY6        0.0000 
      2 N         -33.4097   12.8293  -19.2628 N.2       2 ALA2        0.0000 
      3 CA        -32.2898   11.3400  -20.2766 C.3       6 GLY6        0.0000 
      4 N         -33.6521   11.4010  -19.6518 N.2       2 ALA2        0.0000 
      5 CA        -32.5882   13.8032  -17.5667 C.3       6 GLY6        0.0000 
      6 CA        -31.4683   12.3139  -18.5805 C.3       6 GLY6        0.0000 
      7 NZ        -32.8306   12.3750  -17.9558 N.2       4 LYS4        0.0000 
      8 CA        -31.7107   10.8857  -18.9696 C.3       6 GLY6        0.0000 
      9 CA        -33.0730   10.9467  -18.3448 C.3       6 GLY6        0.0000 
     10 CA        -31.9531    9.4575  -19.3586 C.3       6 GLY6        0.0000 
     11 CA        -30.6468   13.2879  -16.8845 C.3       6 GLY6        0.0000 
     12 CA        -32.0092   13.3489  -16.2597 C.3       6 GLY6        0.0000 
     13 CA        -30.8892   11.8596  -17.2735 C.3       6 GLY6        0.0000 
     14 NZ        -32.2516   11.9207  -16.6488 N.2       4 LYS4        0.0000 
     15 CA        -31.1317   10.4314  -17.6626 C.3       6 GLY6        0.0000 
     16 CA        -32.4940   10.4924  -17.0378 C.3       6 GLY6        0.0000 
     17 CA        -31.3741    9.0032  -18.0516 C.3       6 GLY6        0.0000 
     18 CA        -31.6165    7.5749  -18.4407 C.3       6 GLY6        0.0000 
     19 O         -37.5145   17.4846  -10.6617 O.2       2 ALA2        0.0000 
     20 O         -37.7569   16.0563  -11.0507 O.2       2 ALA2        0.0000 
     21 O         -32.5500   14.3839  -13.9389 O.2       2 ALA2        0.0000 
     22 CA        -31.4301   12.8946  -14.9527 C.3       6 GLY6        0.0000 
     23 NZ        -32.7924   12.9557  -14.3279 N.2       4 LYS4        0.0000 
     24 CA        -30.3102   11.4053  -15.9665 C.3       6 GLY6        0.0000 
     25 NZ        -31.6725   11.4664  -15.3417 N.2       4 LYS4        0.0000 
     26 CA        -30.5526    9.9771  -16.3556 C.3       6 GLY6        0.0000 
     27 NZ        -31.9149   10.0381  -15.7308 N.2       4 LYS4        0.0000 
     28 NZ        -33.2772   10.0992  -15.1060 N.2       4 LYS4        0.0000 
     29 CA        -30.7950    8.5489  -16.7446 C.3       6 GLY6        0.0000 
     30 CZ        -32.1573    8.6099  -16.1198 C.ar      5 PHE5        0.0000 
     31 N         -31.0374    7.1206  -17.1336 N.2       2 ALA2        0.0000 
     32 CZ        -32.3997    7.1816  -16.5089 C.ar      5 PHE5        0.0000 
     33 O         -35.5731   16.9692   -9.9794 O.2       2 ALA2        0.0000 
     34 O         -36.9354   17.0302   -9.3546 O.2       2 ALA2        0.0000 
     35 CA        -38.2977   17.0913   -8.7299 C.3       6 GLY6        0.0000 
     36 N         -37.1778   15.6020   -9.7437 N.2       2 ALA2        0.0000 
     37 OD1       -31.9709   13.9296  -12.6319 O.3       3 ASP3        0.0000 
     38 O         -33.3333   13.9906  -12.0071 O.2       2 ALA2        0.0000 
     39 O         -34.6956   14.0517  -11.3823 O.2       2 ALA2        0.0000 
     40 N         -36.0579   14.1127  -10.7575 N.2       2 ALA2        0.0000 
     41 DU        -30.8510   12.4403  -13.6457 H         7 CUB7        0.0000 
     42 NZ        -32.2134   12.5014  -13.0209 N.2       4 LYS4        0.0000 
     43 O         -33.5757   12.5624  -12.3961 O.2       2 ALA2        0.0000 
     44 CA        -29.7311   10.9510  -14.6595 C.3       6 GLY6        0.0000 
     45 N         -31.0934   11.0121  -14.0347 N.2       2 ALA2        0.0000 
     46 NZ        -32.4558   11.0731  -13.4099 N.2       4 LYS4        0.0000 
     47 CA        -29.9735    9.5228  -15.0485 C.3       6 GLY6        0.0000 
     48 CZ        -31.3359    9.5838  -14.4238 C.ar      5 PHE5        0.0000 
     49 CZ        -32.6982    9.6449  -13.7990 C.ar      5 PHE5        0.0000 
     50 O         -30.2160    8.0945  -15.4376 O.2       2 ALA2        0.0000 
     51 CZ        -31.5783    8.1556  -14.8128 C.ar      5 PHE5        0.0000 
     52 N         -30.4584    6.6663  -15.8266 N.2       2 ALA2        0.0000 
     53 OG        -36.1139   18.0042   -7.6586 O.2       1 SER1        0.0000 
     54 DU        -34.9940   16.5149   -8.6724 H         7 CUB7        0.0000 
     55 OG        -36.3564   16.5759   -8.0476 O.2       1 SER1        0.0000 
     56 OG        -37.7187   16.6370   -7.4229 O.2       1 SER1        0.0000 
     57 O         -33.8741   15.0256   -9.6862 O.2       2 ALA2        0.0000 
     58 CA        -35.2364   15.0867   -9.0615 C.3       6 GLY6        0.0000 
     59 CA        -36.5988   15.1477   -8.4367 C.3       6 GLY6        0.0000 
     60 DU        -32.7542   13.5363  -10.7001 H         7 CUB7        0.0000 
     61 CA        -34.1165   13.5974  -10.0753 C.3       6 GLY6        0.0000 
     62 N         -30.2720   11.9860  -12.3387 N.2       2 ALA2        0.0000 
     63 DU        -31.6343   12.0471  -11.7139 H         7 CUB7        0.0000 
     64 CA        -32.9966   12.1081  -11.0891 C.3       6 GLY6        0.0000 
     65 N         -30.5144   10.5578  -12.7277 N.2       2 ALA2        0.0000 
     66 N         -31.8767   10.6188  -12.1029 N.2       2 ALA2        0.0000 
     67 CA        -33.2390   10.6798  -11.4781 C.3       6 GLY6        0.0000 
     68 N         -30.7568    9.1295  -13.1167 N.2       2 ALA2        0.0000 
     69 N         -32.1191    9.1906  -12.4920 N.2       2 ALA2        0.0000 
     70 CZ        -30.9992    7.7013  -13.5058 C.ar      5 PHE5        0.0000 
     71 NZ        -34.1726   17.4888   -6.9763 N.2       4 LYS4        0.0000 
     72 NZ        -33.0527   15.9996   -7.9902 N.2       4 LYS4        0.0000 
     73 NZ        -34.4150   16.0606   -7.3654 N.2       4 LYS4        0.0000 
     74 DU        -31.9327   14.5103   -9.0040 H         7 CUB7        0.0000 
     75 NZ        -33.2951   14.5713   -8.3792 N.2       4 LYS4        0.0000 
     76 NZ        -34.6574   14.6324   -7.7544 N.2       4 LYS4        0.0000 
     77 DU        -32.1752   13.0820   -9.3930 H         7 CUB7        0.0000 
     78 CA        -33.5375   13.1431   -8.7683 C.3       6 GLY6        0.0000 
     79 N         -29.6929   11.5317  -11.0316 N.2       2 ALA2        0.0000 
     80 N         -31.0552   11.5928  -10.4069 N.2       2 ALA2        0.0000 
     81 CA        -32.4176   11.6538   -9.7821 C.3       6 GLY6        0.0000 
     82 N         -29.9353   10.1035  -11.4207 N.2       2 ALA2        0.0000 
     83 N         -31.2977   10.1645  -10.7959 N.2       2 ALA2        0.0000 
     84 N         -31.1113   15.4842   -7.3079 N.2       2 ALA2        0.0000 
     85 OG        -32.4736   15.5453   -6.6832 O.2       1 SER1        0.0000 
     86 N         -31.3537   14.0560   -7.6970 N.2       2 ALA2        0.0000 
     87 NZ        -32.7160   14.1170   -7.0722 N.2       4 LYS4        0.0000 
     88 O         -31.5961   12.6277   -8.0860 O.2       2 ALA2        0.0000 
     89 OG        -30.7746   13.6017   -6.3900 O.2       1 SER1        0.0000 
@<TRIPOS>BOND
@<TRIPOS>SUBSTRUCTURE
     1 SER1       53 GROUP   
     2 ALA2        2 GROUP   
     3 ASP3       37 GROUP   
     4 LYS4        7 GROUP   
     5 PHE5       30 GROUP   
     6 GLY6        1 GROUP   
     7 CUB7       41 GROUP   
@<TRIPOS>SET

