#    Name: 3ies_M24_1_INTS_M
#    Modification time : Tue Mar 25 16:23:05 2014

@<TRIPOS>MOLECULE
3ies_M24_1_INTS_M
   90     0     9     0     0
SMALL
NO_CHARGES


@<TRIPOS>ATOM
      1 CA        -29.6095    8.2150  -18.2345 C.3       3 GLC5        0.0000 
      2 CA        -30.8850    7.8810  -17.2360 C.3       9 GLL5        0.0000 
      3 CA        -28.3340    8.5490  -19.2330 C.3       6 GLP5        0.0000 
      4 CA        -32.6250    8.1685  -18.0845 C.3       3 GLC5        0.0000 
      5 CA        -34.3650    8.4560  -18.9330 C.3       6 GLP5        0.0000 
      6 CA        -28.7820    7.6160  -13.3870 C.3       3 GLC5        0.0000 
      7 CA        -30.4320    7.1890  -14.6300 C.3       9 GLL5        0.0000 
      8 CA        -27.1320    8.0430  -12.1440 C.3       6 GLP5        0.0000 
      9 CA        -31.3805    5.5905  -13.6220 C.3       3 GLC5        0.0000 
     10 CA        -32.3290    3.9920  -12.6140 C.3       6 GLP5        0.0000 
     11 CA        -31.8490    5.2065  -14.7220 C.3       3 GLC5        0.0000 
     12 CA        -30.3230    6.1970  -15.7140 C.3       9 GLL5        0.0000 
     13 CA        -33.3750    4.2160  -13.7300 C.3       6 GLP5        0.0000 
     14 CA        -31.1815    4.7090  -16.5160 C.3       3 GLC5        0.0000 
     15 CA        -32.0400    3.2210  -17.3180 C.3       6 GLP5        0.0000 
     16 O         -29.2410    3.8360  -16.4830 O.2       1 ALC1        0.0000 
     17 O         -30.0150    4.8960  -15.4330 O.2       7 ALL1        0.0000 
     18 O         -28.4670    2.7760  -17.5330 O.2       4 ALP1        0.0000 
     19 O         -29.8715    4.0695  -14.3325 O.2       1 ALC1        0.0000 
     20 O         -29.7280    3.2430  -13.2320 O.2       4 ALP1        0.0000 
     21 N         -28.8095    6.8985  -12.9490 N.am      2 SEC2        0.0000 
     22 N         -30.2800    7.1350  -13.2780 N.am      8 SEL2        0.0000 
     23 N         -27.3390    6.6620  -12.6200 N.am      5 SEP2        0.0000 
     24 CA        -29.2720   10.0230  -14.7110 C.3       3 GLC5        0.0000 
     25 CA        -31.0760   10.6270  -13.7640 C.3       9 GLL5        0.0000 
     26 CA        -27.4680    9.4190  -15.6580 C.3       6 GLP5        0.0000 
     27 N         -27.5010   11.4070   -7.4050 N.am      2 SEC2        0.0000 
     28 N         -28.5000   12.1110   -8.0910 N.am      8 SEL2        0.0000 
     29 N         -26.5020   10.7030   -6.7190 N.am      5 SEP2        0.0000 
     30 O         -33.9720   12.1775  -15.0000 O.2       1 ALC1        0.0000 
     31 O         -32.7170   12.1550  -14.5040 O.2       7 ALL1        0.0000 
     32 O         -35.2270   12.2000  -15.4960 O.2       4 ALP1        0.0000 
     33 CA        -30.9655    8.8430   -5.5535 C.3       3 GLC5        0.0000 
     34 CA        -29.8300    7.5370   -6.8320 C.3       9 GLL5        0.0000 
     35 CA        -32.1010   10.1490   -4.2750 C.3       6 GLP5        0.0000 
     36 CA        -34.2025   10.1040  -11.2195 C.3       3 GLC5        0.0000 
     37 CA        -32.9830   11.1000  -12.3980 C.3       9 GLL5        0.0000 
     38 CA        -35.4220    9.1080  -10.0410 C.3       6 GLP5        0.0000 
     39 O         -34.6655   12.0980  -13.9035 O.2       1 ALC1        0.0000 
     40 O         -34.1040   11.9960  -12.3110 O.2       7 ALL1        0.0000 
     41 O         -34.9985   11.3145  -13.1750 O.2       1 ALC1        0.0000 
     42 O         -35.8930   10.6330  -14.0390 O.2       4 ALP1        0.0000 
     43 CA        -28.0315    7.2965  -10.4790 C.3       3 GLC5        0.0000 
     44 CA        -28.9310    6.5500   -8.8140 C.3       9 GLL5        0.0000 
     45 N         -31.6825   11.0815   -6.4905 N.am      2 SEC2        0.0000 
     46 N         -31.0030   12.1060   -7.2900 N.am      8 SEL2        0.0000 
     47 N         -32.3620   10.0570   -5.6910 N.am      5 SEP2        0.0000 
     48 N         -30.6270   11.8645   -5.9760 N.am      2 SEC2        0.0000 
     49 N         -30.2510   11.6230   -4.6620 N.am      5 SEP2        0.0000 
     50 N         -31.8845   13.2885   -6.9520 N.am      2 SEC2        0.0000 
     51 N         -32.7660   14.4710   -6.6140 N.am      5 SEP2        0.0000 
     52 CA        -30.1760   -2.0690   -8.4565 C.3       3 GLC5        0.0000 
     53 CA        -28.0770   -1.4940   -8.2690 C.3       9 GLL5        0.0000 
     54 CA        -32.2750   -2.6440   -8.6440 C.3       6 GLP5        0.0000 
     55 CA        -32.4410   10.1730   -8.9835 C.3       3 GLC5        0.0000 
     56 CA        -31.6050   11.2750  -10.2860 C.3       9 GLL5        0.0000 
     57 CA        -33.2770    9.0710   -7.6810 C.3       6 GLP5        0.0000 
     58 CA        -29.3558    9.1035  -16.4682 C.3       3 GLC5        0.0000 
     59 CA        -30.7600    8.4780  -14.9700 C.3       9 GLL5        0.0000 
     60 CA        -28.9637    8.2171  -15.4575 C.3       3 GLC5        0.0000 
     61 CA        -33.7758    9.3912  -13.6075 C.3       3 GLC5        0.0000 
     62 CA        -32.5700   10.9110  -13.8360 C.3       9 GLL5        0.0000 
     63 CA        -34.7750    7.7770  -14.0980 C.3       6 GLP5        0.0000 
     64 CA        -31.4333    8.3385   -7.5823 C.3       3 GLC5        0.0000 
     65 CA        -29.3490    7.6750   -8.1350 C.3       9 GLL5        0.0000 
     66 CA        -28.6650    7.0170   -4.8048 C.3       3 GLC5        0.0000 
     67 CA        -27.4610    7.1170   -3.0830 C.3       6 GLP5        0.0000 
     68 CA        -27.7610    5.3678   -6.1770 C.3       3 GLC5        0.0000 
     69 CA        -29.9080    6.2970   -6.2210 C.3       9 GLL5        0.0000 
     70 CA        -25.8290    5.0000   -5.7960 C.3       6 GLP5        0.0000 
     71 CA        -30.8100    4.5482   -5.5935 C.3       3 GLC5        0.0000 
     72 CA        -29.4780    5.1740   -6.8950 C.3       9 GLL5        0.0000 
     73 CA        -31.9270    3.3610   -4.6290 C.3       6 GLP5        0.0000 
     74 CA        -27.1193    5.7443   -7.8105 C.3       3 GLC5        0.0000 
     75 CA        -29.0160    5.3030   -8.1840 C.3       9 GLL5        0.0000 
     76 CA        -25.2650    5.5620   -7.1220 C.3       6 GLP5        0.0000 
     77 CA        -31.1295    5.9714   -8.8756 C.3       3 GLC5        0.0000 
     78 CA        -33.1810    5.7350   -9.4220 C.3       6 GLP5        0.0000 
     79 CA        -25.3833   -1.3545  -11.2915 C.3       3 GLC5        0.0000 
     80 CA        -27.2860   -0.0490  -10.5170 C.3       9 GLL5        0.0000 
     81 CA        -23.5620   -1.9700  -12.0810 C.3       6 GLP5        0.0000 
     82 CA        -28.7249    0.1777  -11.4791 C.3       3 GLC5        0.0000 
     83 CA        -27.1230   -1.4290  -10.4870 C.3       9 GLL5        0.0000 
     84 CA        -30.1150    0.9390  -12.7340 C.3       6 GLP5        0.0000 
     85 CA        -26.8682   -0.1008   -6.7506 C.3       3 GLC5        0.0000 
     86 CA        -28.2190   -0.1240   -8.3000 C.3       9 GLL5        0.0000 
     87 CA        -25.2920   -0.0910   -5.7130 C.3       6 GLP5        0.0000 
     88 CA        -30.0650    0.7926   -8.5008 C.3       3 GLC5        0.0000 
     89 CA        -28.7410    0.5880   -7.2920 C.3       9 GLL5        0.0000 
     90 CA        -31.7530    1.1790   -8.9290 C.3       6 GLP5        0.0000 
@<TRIPOS>BOND
@<TRIPOS>SUBSTRUCTURE
     1 ALC1       16 GROUP        1 X    ALC  0     ROOT ALC X 1
     2 SEC2       21 GROUP        1 X    SEC  0     **** SEC X 2
     3 GLC5        1 GROUP        1 X    GLC  0     **** GLC X 6
     4 ALP1       18 GROUP        1 Y    ALP  0     ROOT ALP Y 8
     5 SEP2       23 GROUP        1 Y    SEP  0     **** SEP Y 9
     6 GLP5        3 GROUP        1 Y    GLP  0     **** GLP Y 13
     7 ALL1       17 GROUP        1 Z    ALL  0     ROOT ALL Z 15
     8 SEL2       22 GROUP        1 Z    SEL  0     **** SEL Z 16
     9 GLL5        2 GROUP        1 Z    GLL  0     **** GLL Z 20
@<TRIPOS>SET

