#    Name: 3ies_M24_1_ligand
#    Modification time : Tue Mar 25 16:23:05 2014

@<TRIPOS>MOLECULE
3ies_M24_1_ligand
   63    68     1     0     0
SMALL
NO_CHARGES


@<TRIPOS>ATOM
      1 P         -29.9490   11.6760   -8.2560 P.3       1 M24552      0.0000 
      2 N1        -30.5710    6.5980  -16.9790 N.ar      1 M24552      0.0000 
      3 C2        -30.8850    7.8810  -17.2360 C.ar      1 M24552      0.0000 
      4 N3        -30.9680    8.8080  -16.2720 N.ar      1 M24552      0.0000 
      5 C4        -30.7600    8.4780  -14.9700 C.ar      1 M24552      0.0000 
      6 C5        -30.4320    7.1890  -14.6300 C.ar      1 M24552      0.0000 
      7 C6        -30.3230    6.1970  -15.7140 C.ar      1 M24552      0.0000 
      8 N6        -30.0150    4.8960  -15.4330 N.pl3     1 M24552      0.0000 
      9 N7        -30.2800    7.1350  -13.2780 N.2       1 M24552      0.0000 
     10 C8        -30.4860    8.3880  -12.8200 C.2       1 M24552      0.0000 
     11 N9        -30.7910    9.1840  -13.8450 N.pl3     1 M24552      0.0000 
     12 C1'       -31.0760   10.6270  -13.7640 C.3       1 M24552      0.0000 
     13 O1P       -28.5000   12.1110   -8.0910 O.co2     1 M24552      0.0000 
     14 C2'       -32.5700   10.9110  -13.8360 C.3       1 M24552      0.0000 
     15 O2'       -32.7170   12.1550  -14.5040 O.3       1 M24552      0.0000 
     16 C24       -29.3110    9.0710   -8.7260 C.2       1 M24552      0.0000 
     17 O25       -28.7160    9.3800   -9.7440 O.2       1 M24552      0.0000 
     18 C26       -29.3490    7.6750   -8.1350 C.ar      1 M24552      0.0000 
     19 C27       -29.8300    7.5370   -6.8320 C.ar      1 M24552      0.0000 
     20 C28       -29.9080    6.2970   -6.2210 C.ar      1 M24552      0.0000 
     21 C29       -29.4780    5.1740   -6.8950 C.ar      1 M24552      0.0000 
     22 O2P       -30.0290   10.0780   -8.0060 O.3       1 M24552      0.0000 
     23 C3'       -32.9830   11.1000  -12.3980 C.3       1 M24552      0.0000 
     24 O3'       -34.1040   11.9960  -12.3110 O.3       1 M24552      0.0000 
     25 C30       -29.0160    5.3030   -8.1840 C.ar      1 M24552      0.0000 
     26 C31       -28.9310    6.5500   -8.8140 C.ar      1 M24552      0.0000 
     27 C32       -28.5770    4.0720   -8.8740 C.2       1 M24552      0.0000 
     28 N33       -28.1660    4.0820  -10.1370 N.2       1 M24552      0.0000 
     29 O34       -27.8380    2.8190  -10.4220 O.3       1 M24552      0.0000 
     30 C35       -28.0300    2.0150   -9.3780 C.2       1 M24552      0.0000 
     31 N36       -28.4910    2.7990   -8.3740 N.2       1 M24552      0.0000 
     32 C37       -27.8070    0.5730   -9.4060 C.ar      1 M24552      0.0000 
     33 C38       -27.2860   -0.0490  -10.5170 C.ar      1 M24552      0.0000 
     34 C39       -27.1230   -1.4290  -10.4870 C.ar      1 M24552      0.0000 
     35 O3P       -31.0030   12.1060   -7.2900 O.co2     1 M24552      0.0000 
     36 C4'       -31.7240   11.6650  -11.7510 C.3       1 M24552      0.0000 
     37 O4'       -30.6180   11.1190  -12.5050 O.3       1 M24552      0.0000 
     38 C40       -27.5140   -2.1450   -9.3600 C.ar      1 M24552      0.0000 
     39 C41       -28.0770   -1.4940   -8.2690 C.ar      1 M24552      0.0000 
     40 C42       -28.2190   -0.1240   -8.3000 C.ar      1 M24552      0.0000 
     41 F43       -28.7410    0.5880   -7.2920 F         1 M24552      0.0000 
     42 C5'       -31.6050   11.2750  -10.2860 C.3       1 M24552      0.0000 
     43 O5'       -30.3700   11.8180   -9.8030 O.3       1 M24552      0.0000 
     44 H         -31.0735    8.1669  -18.2402 H         1 M24552      0.0000 
     45 H         -29.8868    4.6730  -14.4667 H         1 M24552      0.0000 
     46 H         -29.9448    4.2809  -16.2184 H         1 M24552      0.0000 
     47 H         -30.4200    8.6579  -11.8870 H         1 M24552      0.0000 
     48 H         -30.5955   11.1486  -14.5700 H         1 M24552      0.0000 
     49 H         -33.0629   10.1227  -14.2639 H         1 M24552      0.0000 
     50 H         -30.1341    8.3838   -6.3148 H         1 M24552      0.0000 
     51 H         -30.2862    6.2168   -5.2668 H         1 M24552      0.0000 
     52 H         -29.5029    4.2542   -6.4396 H         1 M24552      0.0000 
     53 H         -33.1735   10.1416  -11.9780 H         1 M24552      0.0000 
     54 H         -28.5623    6.6159   -9.7656 H         1 M24552      0.0000 
     55 H         -27.0236    0.4839  -11.3461 H         1 M24552      0.0000 
     56 H         -26.7162   -1.9181  -11.2922 H         1 M24552      0.0000 
     57 H         -31.7464   12.7322  -11.8414 H         1 M24552      0.0000 
     58 H         -27.3844   -3.1689   -9.3347 H         1 M24552      0.0000 
     59 H         -28.3822   -2.0331   -7.4511 H         1 M24552      0.0000 
     60 H         -31.6227   10.1914  -10.2200 H         1 M24552      0.0000 
     61 H         -32.4600   11.6823   -9.7551 H         1 M24552      0.0000 
     62 H         -33.6581   12.1574  -14.8422 H         1 M24552      0.0000 
     63 H         -34.8006   11.5975  -12.9076 H         1 M24552      0.0000 
@<TRIPOS>BOND
     1   13    1 ar   
     2   22    1 1    
     3   35    1 ar   
     4   43    1 1    
     5    3    2 ar   
     6    7    2 ar   
     7    4    3 ar   
     8   44    3 1    
     9    5    4 ar   
    10    6    5 ar   
    11   11    5 1    
    12    7    6 ar   
    13    9    6 1    
    14    8    7 1    
    15   45    8 1    
    16   46    8 1    
    17   10    9 2    
    18   11   10 1    
    19   47   10 1    
    20   12   11 1    
    21   14   12 1    
    22   37   12 1    
    23   48   12 1    
    24   15   14 1    
    25   23   14 1    
    26   49   14 1    
    27   62   15 1    
    28   17   16 2    
    29   18   16 1    
    30   22   16 1    
    31   19   18 ar   
    32   26   18 ar   
    33   20   19 ar   
    34   50   19 1    
    35   21   20 ar   
    36   51   20 1    
    37   25   21 ar   
    38   52   21 1    
    39   24   23 1    
    40   36   23 1    
    41   53   23 1    
    42   63   24 1    
    43   26   25 ar   
    44   27   25 1    
    45   54   26 1    
    46   28   27 2    
    47   31   27 1    
    48   29   28 1    
    49   30   29 1    
    50   31   30 2    
    51   32   30 1    
    52   33   32 ar   
    53   40   32 ar   
    54   34   33 ar   
    55   55   33 1    
    56   38   34 ar   
    57   56   34 1    
    58   37   36 1    
    59   42   36 1    
    60   57   36 1    
    61   39   38 ar   
    62   58   38 1    
    63   40   39 ar   
    64   59   39 1    
    65   41   40 1    
    66   43   42 1    
    67   60   42 1    
    68   61   42 1    
@<TRIPOS>SUBSTRUCTURE
     1 M24552      1 GROUP   
@<TRIPOS>SET

