#    Name: 3r5w_F42_1_INTS_M
#    Modification time : Tue Mar 25 10:58:35 2014

@<TRIPOS>MOLECULE
3r5w_F42_1_INTS_M
  111     0    12     0     0
SMALL
NO_CHARGES


@<TRIPOS>ATOM
      1 N          -4.2520  -35.4180  -17.5140 N.am      2 SEC2        0.0000 
      2 N          -3.3020  -34.6370  -16.9030 N.am     10 SEL2        0.0000 
      3 N          -5.2020  -36.1990  -18.1250 N.am      6 SEP2        0.0000 
      4 O          -4.0690  -32.6215  -15.6860 O.2       1 ALC1        0.0000 
      5 O          -3.5350  -32.3870  -17.0430 O.2       9 ALL1        0.0000 
      6 O          -4.6030  -32.8560  -14.3290 O.2       5 ALP1        0.0000 
      7 N          -2.8245  -28.8995  -16.9905 N.am      2 SEC2        0.0000 
      8 N          -3.7640  -30.1190  -17.2310 N.am     10 SEL2        0.0000 
      9 N          -1.8850  -27.6800  -16.7500 N.am      6 SEP2        0.0000 
     10 N          -4.9335  -29.4305  -16.7370 N.am      2 SEC2        0.0000 
     11 N          -6.1030  -28.7420  -16.2430 N.am      6 SEP2        0.0000 
     12 CA         -3.4745  -28.5195  -19.3935 C.3       4 GLC5        0.0000 
     13 CA         -2.1410  -29.9690  -19.4930 C.3      12 GLL5        0.0000 
     14 CA         -4.8080  -27.0700  -19.2940 C.3       8 GLP5        0.0000 
     15 N           2.0115  -29.3985  -24.6945 N.am      2 SEC2        0.0000 
     16 N           1.3870  -30.3130  -23.7910 N.am     10 SEL2        0.0000 
     17 N           2.6360  -28.4840  -25.5980 N.am      6 SEP2        0.0000 
     18 CA          0.2565  -33.2115  -17.7995 C.3       4 GLC5        0.0000 
     19 CA          0.5400  -34.1520  -19.6020 C.3      12 GLL5        0.0000 
     20 CA         -0.0270  -32.2710  -15.9970 C.3       8 GLP5        0.0000 
     21 O           1.5500  -32.1015  -19.0530 O.2       1 ALC1        0.0000 
     22 O           1.7180  -33.3100  -19.7090 O.2       9 ALL1        0.0000 
     23 O           1.3820  -30.8930  -18.3970 O.2       5 ALP1        0.0000 
     24 N          -0.2535  -36.0200  -16.8885 N.am      2 SEC2        0.0000 
     25 N          -0.8470  -36.1260  -18.2430 N.am     10 SEL2        0.0000 
     26 N           0.3400  -35.9140  -15.5340 N.am      6 SEP2        0.0000 
     27 N           2.7240  -39.3710  -15.2885 N.am      2 SEC2        0.0000 
     28 N           2.9650  -39.1960  -16.7440 N.am     10 SEL2        0.0000 
     29 N           2.4830  -39.5460  -13.8330 N.am      6 SEP2        0.0000 
     30 NZ          0.0565  -40.9290  -19.1420 N.4       3 LYC4        0.0000 
     31 NZ          1.2310  -40.6110  -17.9800 N.4      11 LYL4        0.0000 
     32 NZ         -1.1180  -41.2470  -20.3040 N.4       7 LYP4        0.0000 
     33 N           0.0565  -40.9290  -19.1420 N.am      2 SEC2        0.0000 
     34 N           1.2310  -40.6110  -17.9800 N.am     10 SEL2        0.0000 
     35 N          -1.1180  -41.2470  -20.3040 N.am      6 SEP2        0.0000 
     36 N           1.1035  -40.9275  -16.6710 N.am      2 SEC2        0.0000 
     37 N           0.9760  -41.2440  -15.3620 N.am      6 SEP2        0.0000 
     38 CA          4.4520  -41.4475  -22.5505 C.3       4 GLC5        0.0000 
     39 CA          3.2470  -40.6620  -21.2370 C.3      12 GLL5        0.0000 
     40 CA          5.6570  -42.2330  -23.8640 C.3       8 GLP5        0.0000 
     41 CA          7.3560  -40.9670  -21.3805 C.3       4 GLC5        0.0000 
     42 CA          7.3270  -41.4430  -19.4910 C.3      12 GLL5        0.0000 
     43 CA          7.3850  -40.4910  -23.2700 C.3       8 GLP5        0.0000 
     44 CA          8.9750  -40.6090  -16.8760 C.3       4 GLC5        0.0000 
     45 CA          7.6810  -41.4370  -17.9960 C.3      12 GLL5        0.0000 
     46 CA         10.2690  -39.7810  -15.7560 C.3       8 GLP5        0.0000 
     47 CA          4.9920  -42.3595  -16.3690 C.3       4 GLC5        0.0000 
     48 CA          6.7840  -42.4010  -17.2340 C.3      12 GLL5        0.0000 
     49 CA          3.2000  -42.3180  -15.5040 C.3       8 GLP5        0.0000 
     50 N           6.6770  -40.9600  -13.6640 N.am      2 SEC2        0.0000 
     51 N           6.8950  -41.4580  -15.0710 N.am     10 SEL2        0.0000 
     52 N           6.4590  -40.4620  -12.2570 N.am      6 SEP2        0.0000 
     53 CA          8.7070  -43.0290  -12.4010 C.3       4 GLC5        0.0000 
     54 CA          7.7960  -43.9950  -13.9520 C.3      12 GLL5        0.0000 
     55 CA          9.6180  -42.0630  -10.8500 C.3       8 GLP5        0.0000 
     56 NZ         10.9780  -43.2615  -15.3620 N.4       3 LYC4        0.0000 
     57 NZ         10.2160  -43.4970  -14.1030 N.4      11 LYL4        0.0000 
     58 NZ         11.3700  -41.7590  -16.7420 N.4       7 LYP4        0.0000 
     59 N          10.4725  -42.3315  -14.9220 N.am      2 SEC2        0.0000 
     60 N          10.2160  -43.4970  -14.1030 N.am     10 SEL2        0.0000 
     61 N          10.7290  -41.1660  -15.7410 N.am      6 SEP2        0.0000 
     62 N          11.4445  -43.6855  -13.5405 N.am      2 SEC2        0.0000 
     63 N          12.6730  -43.8740  -12.9780 N.am      6 SEP2        0.0000 
     64 N          10.9780  -43.2615  -15.3620 N.am      2 SEC2        0.0000 
     65 N          11.7400  -43.0260  -16.6210 N.am      6 SEP2        0.0000 
     66 N           9.3385  -45.4950  -11.1980 N.am      2 SEC2        0.0000 
     67 N           9.5360  -44.8090  -12.4760 N.am     10 SEL2        0.0000 
     68 N           9.1410  -46.1810   -9.9200 N.am      6 SEP2        0.0000 
     69 N          10.6320  -45.4540  -11.8500 N.am      2 SEC2        0.0000 
     70 N          11.7280  -46.0990  -11.2240 N.am      6 SEP2        0.0000 
     71 N          11.1045  -44.3415  -12.7270 N.am      2 SEC2        0.0000 
     72 CA          7.4970  -46.8720  -12.6165 C.3       4 GLC5        0.0000 
     73 CA          7.0720  -45.3330  -13.8050 C.3      12 GLL5        0.0000 
     74 CA          7.9220  -48.4110  -11.4280 C.3       8 GLP5        0.0000 
     75 CA          3.9380  -45.1290  -14.7790 C.3       4 GLC5        0.0000 
     76 CA          5.5520  -45.2310  -13.9410 C.3      12 GLL5        0.0000 
     77 CA          2.3240  -45.0270  -15.6170 C.3       8 GLP5        0.0000 
     78 NZ          3.3855  -47.4940  -11.7585 N.4       3 LYC4        0.0000 
     79 NZ          4.4090  -46.8550  -12.6200 N.4      11 LYL4        0.0000 
     80 NZ          2.7920  -47.2900   -9.9640 N.4       7 LYP4        0.0000 
     81 NZ          5.0305  -48.5740  -12.1695 N.4       3 LYC4        0.0000 
     82 NZ          5.6520  -50.2930  -11.7190 N.4       7 LYP4        0.0000 
     83 N           4.1425  -46.7050  -11.4050 N.am      2 SEC2        0.0000 
     84 N           4.4090  -46.8550  -12.6200 N.am     10 SEL2        0.0000 
     85 N           3.8760  -46.5550  -10.1900 N.am      6 SEP2        0.0000 
     86 N           3.3855  -47.4940  -11.7585 N.am      2 SEC2        0.0000 
     87 N           2.3620  -48.1330  -10.8970 N.am      6 SEP2        0.0000 
     88 CA         -0.8762  -29.7456  -18.2881 C.3       4 GLC5        0.0000 
     89 CA         -2.4190  -31.1620  -18.8000 C.3      12 GLL5        0.0000 
     90 CA          0.0090  -29.1650  -16.7070 C.3       8 GLP5        0.0000 
     91 CA          0.2035  -27.3405  -20.9657 C.3       4 GLC5        0.0000 
     92 CA         -0.8820  -28.9360  -21.3000 C.3      12 GLL5        0.0000 
     93 CA          0.8590  -25.6990  -20.0830 C.3       8 GLP5        0.0000 
     94 CA          1.9300  -30.0065  -21.5913 C.3       4 GLC5        0.0000 
     95 CA         -0.0220  -29.0280  -22.3970 C.3      12 GLL5        0.0000 
     96 CA          3.6250  -30.3730  -20.6000 C.3       8 GLP5        0.0000 
     97 CA          0.4360  -29.4315  -24.6807 C.3       4 GLC5        0.0000 
     98 CA          0.4920  -30.2520  -22.7680 C.3      12 GLL5        0.0000 
     99 CA          0.6370  -29.2230  -26.7790 C.3       8 GLP5        0.0000 
    100 CA          2.1015  -28.6865  -22.7702 C.3       4 GLC5        0.0000 
    101 CA          3.9680  -27.7330  -22.9580 C.3       8 GLP5        0.0000 
    102 CA          1.6723  -30.8712  -21.0575 C.3       4 GLC5        0.0000 
    103 CA          0.1650  -31.4230  -22.0580 C.3      12 GLL5        0.0000 
    104 CA         -1.6295  -38.2133  -19.4997 C.3       4 GLC5        0.0000 
    105 CA         -0.1730  -36.5540  -19.4190 C.3      12 GLL5        0.0000 
    106 CA         -3.3300  -39.1550  -19.6570 C.3       8 GLP5        0.0000 
    107 CA         -0.5405  -38.1227  -17.6283 C.3       4 GLC5        0.0000 
    108 CA          0.3150  -37.9890  -19.2660 C.3      12 GLL5        0.0000 
    109 CA         -1.1520  -38.9740  -15.9140 C.3       8 GLP5        0.0000 
    110 CA          0.9466  -36.8033  -17.3844 C.3       4 GLC5        0.0000 
    111 CA          1.5330  -36.5730  -15.3700 C.3       8 GLP5        0.0000 
@<TRIPOS>BOND
@<TRIPOS>SUBSTRUCTURE
     1 ALC1        4 GROUP        1 X    ALC  0     ROOT ALC X 1
     2 SEC2        1 GROUP        1 X    SEC  0     **** SEC X 2
     3 LYC4       30 GROUP        1 X    LYC  0     **** LYC X 4
     4 GLC5       12 GROUP        1 X    GLC  0     **** GLC X 6
     5 ALP1        6 GROUP        1 Y    ALP  0     ROOT ALP Y 8
     6 SEP2        3 GROUP        1 Y    SEP  0     **** SEP Y 9
     7 LYP4       32 GROUP        1 Y    LYP  0     **** LYP Y 11
     8 GLP5       14 GROUP        1 Y    GLP  0     **** GLP Y 13
     9 ALL1        5 GROUP        1 Z    ALL  0     ROOT ALL Z 15
    10 SEL2        2 GROUP        1 Z    SEL  0     **** SEL Z 16
    11 LYL4       31 GROUP        1 Z    LYL  0     **** LYL Z 18
    12 GLL5       13 GROUP        1 Z    GLL  0     **** GLL Z 20
@<TRIPOS>SET

