#    Name: 3r5w_F42_1_ligand
#    Modification time : Tue Mar 25 10:58:35 2014

@<TRIPOS>MOLECULE
3r5w_F42_1_ligand
   85    87     1     0     0
SMALL
NO_CHARGES


@<TRIPOS>ATOM
      1 N1         -2.2050  -33.5700  -18.5560 N.2       1 F42201      0.0000 
      2 C2         -3.0440  -33.5480  -17.4810 C.2       1 F42201      0.0000 
      3 O2         -3.3020  -34.6370  -16.9030 O.2       1 F42201      0.0000 
      4 N3         -3.5350  -32.3870  -17.0430 N.am      1 F42201      0.0000 
      5 C4         -3.3020  -31.2080  -17.6170 C.2       1 F42201      0.0000 
      6 O4         -3.7640  -30.1190  -17.2310 O.2       1 F42201      0.0000 
      7 C4A        -2.4190  -31.1620  -18.8000 C.2       1 F42201      0.0000 
      8 C5         -2.1410  -29.9690  -19.4930 C.2       1 F42201      0.0000 
      9 C5A        -1.2430  -30.0870  -20.5920 C.ar      1 F42201      0.0000 
     10 C6         -0.8820  -28.9360  -21.3000 C.ar      1 F42201      0.0000 
     11 C7         -0.0220  -29.0280  -22.3970 C.ar      1 F42201      0.0000 
     12 C8          0.4920  -30.2520  -22.7680 C.ar      1 F42201      0.0000 
     13 O8M         1.3870  -30.3130  -23.7910 O.3       1 F42201      0.0000 
     14 C9          0.1650  -31.4230  -22.0580 C.ar      1 F42201      0.0000 
     15 C9A        -0.7260  -31.3160  -20.9720 C.ar      1 F42201      0.0000 
     16 N10        -1.0370  -32.4990  -20.2970 N.pl3     1 F42201      0.0000 
     17 C10        -1.8970  -32.4410  -19.2000 C.2       1 F42201      0.0000 
     18 C1'        -0.5050  -33.8040  -20.6670 C.3       1 F42201      0.0000 
     19 C2'         0.5400  -34.1520  -19.6020 C.3       1 F42201      0.0000 
     20 O2'         1.7180  -33.3100  -19.7090 O.3       1 F42201      0.0000 
     21 C3'         0.9840  -35.6020  -19.6440 C.3       1 F42201      0.0000 
     22 O3'         1.5770  -35.8860  -20.9160 O.3       1 F42201      0.0000 
     23 C4'        -0.1730  -36.5540  -19.4190 C.3       1 F42201      0.0000 
     24 O4'        -0.8470  -36.1260  -18.2430 O.3       1 F42201      0.0000 
     25 C5'         0.3150  -37.9890  -19.2660 C.3       1 F42201      0.0000 
     26 O5'         1.3460  -38.0100  -18.2510 O.3       1 F42201      0.0000 
     27 P           2.1580  -39.3370  -17.9910 P.3       1 F42201      0.0000 
     28 O1P         2.9650  -39.1960  -16.7440 O.co2     1 F42201      0.0000 
     29 O2P         1.2310  -40.6110  -17.9800 O.co2     1 F42201      0.0000 
     30 O3P         3.1580  -39.2950  -19.2520 O.3       1 F42201      0.0000 
     31 C1I         3.7140  -40.4840  -19.7950 C.3       1 F42201      0.0000 
     32 C2I         3.2470  -40.6620  -21.2370 C.3       1 F42201      0.0000 
     33 C3I         5.1980  -40.3200  -19.7850 C.2       1 F42201      0.0000 
     34 O3I         5.7000  -39.2030  -19.8630 O.2       1 F42201      0.0000 
     35 N1H         5.8850  -41.4520  -19.6850 N.am      1 F42201      0.0000 
     36 C1H         7.3270  -41.4430  -19.4910 C.3       1 F42201      0.0000 
     37 C2H         7.9980  -42.5660  -20.2540 C.2       1 F42201      0.0000 
     38 O2U         9.1780  -42.3640  -20.8480 O.co2     1 F42201      0.0000 
     39 O2T         7.4690  -43.6690  -20.3470 O.co2     1 F42201      0.0000 
     40 C3H         7.6810  -41.4370  -17.9960 C.3       1 F42201      0.0000 
     41 C4H         6.7840  -42.4010  -17.2340 C.3       1 F42201      0.0000 
     42 C5H         7.1550  -42.4240  -15.7670 C.2       1 F42201      0.0000 
     43 O5H         6.8950  -41.4580  -15.0710 O.2       1 F42201      0.0000 
     44 N1G         7.7510  -43.5370  -15.3310 N.am      1 F42201      0.0000 
     45 C1G         7.7960  -43.9950  -13.9520 C.3       1 F42201      0.0000 
     46 C2G         9.2310  -44.1350  -13.4690 C.2       1 F42201      0.0000 
     47 O2V        10.2160  -43.4970  -14.1030 O.co2     1 F42201      0.0000 
     48 O2W         9.5360  -44.8090  -12.4760 O.co2     1 F42201      0.0000 
     49 C3G         7.0720  -45.3330  -13.8050 C.3       1 F42201      0.0000 
     50 C4G         5.5520  -45.2310  -13.9410 C.3       1 F42201      0.0000 
     51 C5G         4.8890  -46.5800  -13.7110 C.2       1 F42201      0.0000 
     52 O6G         4.8050  -47.4950  -14.6830 O.co2     1 F42201      0.0000 
     53 O7G         4.4090  -46.8550  -12.6200 O.co2     1 F42201      0.0000 
     54 H          -4.1612  -32.4058  -16.1670 H         1 F42201      0.0000 
     55 H          -2.5400  -29.0994  -19.2392 H         1 F42201      0.0000 
     56 H          -1.2504  -28.0217  -21.0122 H         1 F42201      0.0000 
     57 H           0.2226  -28.1777  -22.9224 H         1 F42201      0.0000 
     58 H           0.5581  -32.3153  -22.3197 H         1 F42201      0.0000 
     59 H          -0.0167  -33.7738  -21.6265 H         1 F42201      0.0000 
     60 H          -1.2709  -34.5610  -20.6531 H         1 F42201      0.0000 
     61 H           0.0761  -33.9835  -18.6141 H         1 F42201      0.0000 
     62 H           1.7097  -35.7586  -18.8502 H         1 F42201      0.0000 
     63 H          -0.8242  -36.4991  -20.2780 H         1 F42201      0.0000 
     64 H           0.6974  -38.3245  -20.2276 H         1 F42201      0.0000 
     65 H          -0.5325  -38.6101  -18.9843 H         1 F42201      0.0000 
     66 H           3.4483  -41.3449  -19.2339 H         1 F42201      0.0000 
     67 H           5.4372  -42.3865  -19.7390 H         1 F42201      0.0000 
     68 H           7.7261  -40.4853  -19.9071 H         1 F42201      0.0000 
     69 H           7.5500  -40.4312  -17.6055 H         1 F42201      0.0000 
     70 H           8.7196  -41.7344  -17.8772 H         1 F42201      0.0000 
     71 H           6.8939  -43.4008  -17.6534 H         1 F42201      0.0000 
     72 H           5.7461  -42.0871  -17.3425 H         1 F42201      0.0000 
     73 H           8.2530  -44.1800  -16.0234 H         1 F42201      0.0000 
     74 H           7.2940  -43.2787  -13.3015 H         1 F42201      0.0000 
     75 H           7.3141  -45.7645  -12.8209 H         1 F42201      0.0000 
     76 H           7.4525  -46.0312  -14.5672 H         1 F42201      0.0000 
     77 H           5.3069  -44.8721  -14.9414 H         1 F42201      0.0000 
     78 H           5.1762  -44.5129  -13.2111 H         1 F42201      0.0000 
     79 H           3.5258  -39.8951  -21.8150 H         1 F42201      0.0000 
     80 H           3.6231  -41.4917  -21.6494 H         1 F42201      0.0000 
     81 H           2.2512  -40.7291  -21.2993 H         1 F42201      0.0000 
     82 H           1.6598  -31.2739  -23.8391 H         1 F42201      0.0000 
     83 H           1.4915  -32.4819  -19.1962 H         1 F42201      0.0000 
     84 H           2.5506  -35.6912  -20.7968 H         1 F42201      0.0000 
     85 H          -1.5656  -35.5103  -18.5663 H         1 F42201      0.0000 
@<TRIPOS>BOND
     1    2    1 am   
     2   17    1 2    
     3    3    2 2    
     4    4    2 am   
     5    5    4 am   
     6   54    4 1    
     7    6    5 2    
     8    7    5 1    
     9    8    7 2    
    10   17    7 1    
    11    9    8 1    
    12   55    8 1    
    13   10    9 ar   
    14   15    9 ar   
    15   11   10 ar   
    16   56   10 1    
    17   12   11 ar   
    18   57   11 1    
    19   13   12 1    
    20   14   12 ar   
    21   82   13 1    
    22   15   14 ar   
    23   58   14 1    
    24   16   15 1    
    25   17   16 1    
    26   18   16 1    
    27   19   18 1    
    28   59   18 1    
    29   60   18 1    
    30   20   19 1    
    31   21   19 1    
    32   61   19 1    
    33   83   20 1    
    34   22   21 1    
    35   23   21 1    
    36   62   21 1    
    37   84   22 1    
    38   24   23 1    
    39   25   23 1    
    40   63   23 1    
    41   85   24 1    
    42   26   25 1    
    43   64   25 1    
    44   65   25 1    
    45   27   26 1    
    46   28   27 ar   
    47   29   27 ar   
    48   30   27 1    
    49   31   30 1    
    50   32   31 1    
    51   33   31 1    
    52   66   31 1    
    53   79   32 1    
    54   80   32 1    
    55   81   32 1    
    56   34   33 2    
    57   35   33 am   
    58   36   35 1    
    59   67   35 1    
    60   37   36 1    
    61   40   36 1    
    62   68   36 1    
    63   38   37 ar   
    64   39   37 ar   
    65   41   40 1    
    66   69   40 1    
    67   70   40 1    
    68   42   41 1    
    69   71   41 1    
    70   72   41 1    
    71   43   42 2    
    72   44   42 am   
    73   45   44 1    
    74   73   44 1    
    75   46   45 1    
    76   49   45 1    
    77   74   45 1    
    78   47   46 ar   
    79   48   46 ar   
    80   50   49 1    
    81   75   49 1    
    82   76   49 1    
    83   51   50 1    
    84   77   50 1    
    85   78   50 1    
    86   52   51 ar   
    87   53   51 ar   
@<TRIPOS>SUBSTRUCTURE
     1 F42201      1 GROUP   
@<TRIPOS>SET

