#    Name: 4mxa_BK7_1_INTS_M
#    Modification time : Tue Mar 25 12:25:49 2014

@<TRIPOS>MOLECULE
4mxa_BK7_1_INTS_M
   85     0     9     0     0
SMALL
NO_CHARGES


@<TRIPOS>ATOM
      1 CA         -4.8305  -22.6865  -32.4705 C.3       3 GLC5        0.0000 
      2 CA         -4.1610  -22.9450  -30.7230 C.3       9 GLL5        0.0000 
      3 CA         -5.5000  -22.4280  -34.2180 C.3       6 GLP5        0.0000 
      4 CA         -3.0155  -23.4180  -32.4175 C.3       3 GLC5        0.0000 
      5 CA         -1.8700  -23.8910  -34.1120 C.3       6 GLP5        0.0000 
      6 CA         -4.7530  -24.6580  -31.6945 C.3       3 GLC5        0.0000 
      7 CA         -5.3450  -26.3710  -32.6660 C.3       6 GLP5        0.0000 
      8 CA         -3.2380  -22.6660  -28.7820 C.3       3 GLC5        0.0000 
      9 CA         -2.3150  -22.3870  -26.8410 C.3       6 GLP5        0.0000 
     10 CA         -4.7940  -20.5405  -32.2135 C.3       3 GLC5        0.0000 
     11 CA         -3.1350  -20.8570  -30.7550 C.3       9 GLL5        0.0000 
     12 CA         -6.4530  -20.2240  -33.6720 C.3       6 GLP5        0.0000 
     13 CA         10.4095  -21.8825  -31.7460 C.3       3 GLC5        0.0000 
     14 CA          8.4400  -21.4820  -31.7110 C.3       9 GLL5        0.0000 
     15 CA         12.3790  -22.2830  -31.7810 C.3       6 GLP5        0.0000 
     16 CA          8.9325  -19.7050  -32.0300 C.3       3 GLC5        0.0000 
     17 CA          9.4250  -17.9280  -32.3490 C.3       6 GLP5        0.0000 
     18 O          -0.5370  -24.9765  -31.6775 O.2       1 ALC1        0.0000 
     19 O          -0.7640  -23.3990  -31.5310 O.2       7 ALL1        0.0000 
     20 O          -0.3100  -26.5540  -31.8240 O.2       4 ALP1        0.0000 
     21 CA          5.8210  -22.8230  -34.5230 C.3       3 GLC5        0.0000 
     22 CA          4.4220  -21.4450  -33.8300 C.3       9 GLL5        0.0000 
     23 CA          7.2200  -24.2010  -35.2160 C.3       6 GLP5        0.0000 
     24 CA         -0.1785  -18.7340  -31.7780 C.3       3 GLC5        0.0000 
     25 CA          1.1100  -19.8990  -30.4990 C.3       9 GLL5        0.0000 
     26 CA         -1.4670  -17.5690  -33.0570 C.3       6 GLP5        0.0000 
     27 CA          0.8080  -19.5175  -28.6390 C.3       3 GLC5        0.0000 
     28 CA          0.5060  -19.1360  -26.7790 C.3       6 GLP5        0.0000 
     29 CA          2.4510  -20.3685  -28.7465 C.3       3 GLC5        0.0000 
     30 CA          2.4890  -19.8960  -30.5610 C.3       9 GLL5        0.0000 
     31 CA          2.4130  -20.8410  -26.9320 C.3       6 GLP5        0.0000 
     32 CA          3.8430  -18.3960  -32.5095 C.3       3 GLC5        0.0000 
     33 CA          4.4670  -20.3820  -31.6690 C.3       9 GLL5        0.0000 
     34 CA          3.2190  -16.4100  -33.3500 C.3       6 GLP5        0.0000 
     35 CA         -0.4490  -22.4115  -33.3600 C.3       3 GLC5        0.0000 
     36 CA          0.9720  -20.9320  -32.6080 C.3       9 GLL5        0.0000 
     37 CA          7.0830  -23.0320  -33.5415 C.3       3 GLC5        0.0000 
     38 CA          6.9460  -21.8630  -31.8670 C.3       9 GLL5        0.0000 
     39 CA         -5.2635  -17.6065  -25.1495 C.3       3 GLC5        0.0000 
     40 CA         -5.2600  -17.0790  -27.1410 C.3       9 GLL5        0.0000 
     41 CA         -5.2670  -18.1340  -23.1580 C.3       6 GLP5        0.0000 
     42 CA         -5.8700  -16.7255  -30.4915 C.3       3 GLC5        0.0000 
     43 CA         -5.2530  -17.4910  -28.5820 C.3       9 GLL5        0.0000 
     44 CA         -6.4870  -15.9600  -32.4010 C.3       6 GLP5        0.0000 
     45 CA         -1.8340  -15.4615  -29.3980 C.3       3 GLC5        0.0000 
     46 CA         -2.7430  -17.3090  -28.5480 C.3       9 GLL5        0.0000 
     47 CA         -0.9250  -13.6140  -30.2480 C.3       6 GLP5        0.0000 
     48 CA         -5.1895  -17.2510  -31.3800 C.3       3 GLC5        0.0000 
     49 CA         -3.8920  -18.5420  -30.3590 C.3       9 GLL5        0.0000 
     50 CA         -2.6795  -18.0555  -31.7080 C.3       3 GLC5        0.0000 
     51 OD1        -4.8575  -16.0885  -25.6625 O.co2     2 ASC3        0.0000 
     52 OD1        -4.1780  -16.0990  -26.9210 O.co2     8 ASL3        0.0000 
     53 OD1        -5.5370  -16.0780  -24.4040 O.co2     5 ASP3        0.0000 
     54 CA          6.0770  -19.8770  -33.9070 C.3       3 GLC5        0.0000 
     55 CA          5.1210  -20.9040  -32.7710 C.3       9 GLL5        0.0000 
     56 CA          7.0330  -18.8500  -35.0430 C.3       6 GLP5        0.0000 
     57 CA          2.5435  -18.4555  -32.0630 C.3       3 GLC5        0.0000 
     58 CA          3.1090  -20.4040  -31.6500 C.3       9 GLL5        0.0000 
     59 CA          1.9780  -16.5070  -32.4760 C.3       6 GLP5        0.0000 
     60 CA         -1.8880  -23.0010  -32.6362 C.3       3 GLC5        0.0000 
     61 CA         -1.9240  -21.4290  -31.0890 C.3       9 GLL5        0.0000 
     62 CA         -2.2444  -20.8890  -32.5335 C.3       3 GLC5        0.0000 
     63 CA         -1.8880  -22.7930  -31.2320 C.3       9 GLL5        0.0000 
     64 CA         -2.2800  -19.8100  -33.9900 C.3       6 GLP5        0.0000 
     65 CA         -2.2619  -22.1775  -28.9590 C.3       3 GLC5        0.0000 
     66 CA          6.1885  -22.7912  -31.6915 C.3       3 GLC5        0.0000 
     67 CA          4.6840  -23.9100  -31.5940 C.3       6 GLP5        0.0000 
     68 CA          7.3630  -20.2613  -33.4160 C.3       3 GLC5        0.0000 
     69 CA          4.2070  -22.6785  -32.6993 C.3       3 GLC5        0.0000 
     70 CA          3.0380  -21.4490  -33.7790 C.3       9 GLL5        0.0000 
     71 CA          4.8810  -21.0310  -35.1432 C.3       3 GLC5        0.0000 
     72 CA          6.0320  -20.6150  -36.4820 C.3       6 GLP5        0.0000 
     73 CA          2.4817  -21.8367  -30.5795 C.3       3 GLC5        0.0000 
     74 CA          3.1640  -23.7760  -30.6290 C.3       6 GLP5        0.0000 
     75 CA          4.7390  -22.2765  -31.9070 C.3       3 GLC5        0.0000 
     76 CA          5.9480  -18.9725  -31.9305 C.3       3 GLC5        0.0000 
     77 CA          7.1020  -17.3020  -31.6410 C.3       6 GLP5        0.0000 
     78 CA         -0.8142  -20.2435  -33.0195 C.3       3 GLC5        0.0000 
     79 CA          2.1438  -19.5488  -33.8828 C.3       3 GLC5        0.0000 
     80 CA          2.6200  -18.1700  -35.1210 C.3       6 GLP5        0.0000 
     81 CA          1.9078  -22.2265  -31.3390 C.3       3 GLC5        0.0000 
     82 CA         -1.1485  -18.0898  -27.3030 C.3       3 GLC5        0.0000 
     83 CA          3.5228  -19.6728  -34.2044 C.3       3 GLC5        0.0000 
     84 CA          1.5216  -18.3334  -31.7430 C.3       3 GLC5        0.0000 
     85 CA          2.9500  -22.2197  -31.3972 C.3       3 GLC5        0.0000 
@<TRIPOS>BOND
@<TRIPOS>SUBSTRUCTURE
     1 ALC1       18 GROUP        1 X    ALC  0     ROOT ALC X 1
     2 ASC3       51 GROUP        1 X    ASC  0     **** ASC X 3
     3 GLC5        1 GROUP        1 X    GLC  0     **** GLC X 6
     4 ALP1       20 GROUP        1 Y    ALP  0     ROOT ALP Y 8
     5 ASP3       53 GROUP        1 Y    ASP  0     **** ASP Y 10
     6 GLP5        3 GROUP        1 Y    GLP  0     **** GLP Y 13
     7 ALL1       19 GROUP        1 Z    ALL  0     ROOT ALL Z 15
     8 ASL3       52 GROUP        1 Z    ASL  0     **** ASL Z 17
     9 GLL5        2 GROUP        1 Z    GLL  0     **** GLL Z 20
@<TRIPOS>SET

