#    Name: 4mxa_BK7_1_ligand
#    Modification time : Tue Mar 25 12:25:49 2014

@<TRIPOS>MOLECULE
4mxa_BK7_1_ligand
   55    59     1     0     0
SMALL
NO_CHARGES


@<TRIPOS>ATOM
      1 N1         -3.0150  -23.5160  -31.0310 N.ar      1 BK7601      0.0000 
      2 C2         -4.1610  -22.9450  -30.7230 C.ar      1 BK7601      0.0000 
      3 N3         -4.2260  -21.6280  -30.5690 N.ar      1 BK7601      0.0000 
      4 C4         -3.1350  -20.8570  -30.7550 C.ar      1 BK7601      0.0000 
      5 C5         -1.9240  -21.4290  -31.0890 C.ar      1 BK7601      0.0000 
      6 C6         -1.8880  -22.7930  -31.2320 C.ar      1 BK7601      0.0000 
      7 CAA         8.4400  -21.4820  -31.7110 C.3       1 BK7601      0.0000 
      8 NAB        -0.7640  -23.3990  -31.5310 N.pl3     1 BK7601      0.0000 
      9 CAC         4.4220  -21.4450  -33.8300 C.ar      1 BK7601      0.0000 
     10 CAD         1.1100  -19.8990  -30.4990 C.ar      1 BK7601      0.0000 
     11 CAE         3.0380  -21.4490  -33.7790 C.ar      1 BK7601      0.0000 
     12 CAF         2.4890  -19.8960  -30.5610 C.ar      1 BK7601      0.0000 
     13 CAH         4.4670  -20.3820  -31.6690 C.ar      1 BK7601      0.0000 
     14 CAI         0.9720  -20.9320  -32.6080 C.ar      1 BK7601      0.0000 
     15 CAJ         6.9460  -21.8630  -31.8670 C.3       1 BK7601      0.0000 
     16 CAK        -5.2600  -17.0790  -27.1410 C.3       1 BK7601      0.0000 
     17 CAL        -2.8630  -16.7780  -27.1060 C.3       1 BK7601      0.0000 
     18 CAM        -5.2530  -17.4910  -28.5820 C.3       1 BK7601      0.0000 
     19 CAN        -2.7430  -17.3090  -28.5480 C.3       1 BK7601      0.0000 
     20 CAO        -3.8920  -18.5420  -30.3590 C.3       1 BK7601      0.0000 
     21 NAR        -1.7300  -19.2600  -30.9130 N.2       1 BK7601      0.0000 
     22 NAS        -4.1780  -16.0990  -26.9210 N.4       1 BK7601      0.0000 
     23 OAT         6.4670  -20.8710  -32.7920 O.3       1 BK7601      0.0000 
     24 CAU         5.1210  -20.9040  -32.7710 C.ar      1 BK7601      0.0000 
     25 CAV         0.3310  -20.4220  -31.4900 C.ar      1 BK7601      0.0000 
     26 CAX        -1.0380  -20.3610  -31.2220 C.2       1 BK7601      0.0000 
     27 CAY         3.1090  -20.4040  -31.6500 C.ar      1 BK7601      0.0000 
     28 CAZ         2.3630  -20.9230  -32.6810 C.ar      1 BK7601      0.0000 
     29 CBC        -3.9360  -18.2120  -28.8760 C.3       1 BK7601      0.0000 
     30 NBD        -2.8980  -19.5540  -30.6690 N.pl3     1 BK7601      0.0000 
     31 H          -5.0268  -23.5276  -30.5981 H         1 BK7601      0.0000 
     32 H          -0.8010  -24.3973  -31.5769 H         1 BK7601      0.0000 
     33 H           0.0272  -22.8074  -31.6858 H         1 BK7601      0.0000 
     34 H           4.9128  -21.8353  -34.6365 H         1 BK7601      0.0000 
     35 H           0.6476  -19.4801  -29.6517 H         1 BK7601      0.0000 
     36 H           2.4960  -21.8473  -34.5654 H         1 BK7601      0.0000 
     37 H           3.0325  -19.5052  -29.7737 H         1 BK7601      0.0000 
     38 H           5.0059  -19.9902  -30.8904 H         1 BK7601      0.0000 
     39 H           0.4219  -21.3188  -33.3875 H         1 BK7601      0.0000 
     40 H           6.4861  -21.7841  -30.9106 H         1 BK7601      0.0000 
     41 H           6.8991  -22.8484  -32.2659 H         1 BK7601      0.0000 
     42 H          -5.1069  -17.9566  -26.5141 H         1 BK7601      0.0000 
     43 H          -6.2249  -16.6363  -26.8971 H         1 BK7601      0.0000 
     44 H          -2.0471  -16.0811  -26.9270 H         1 BK7601      0.0000 
     45 H          -2.7696  -17.6180  -26.4211 H         1 BK7601      0.0000 
     46 H          -5.3272  -16.6201  -29.2204 H         1 BK7601      0.0000 
     47 H          -6.0754  -18.1655  -28.7822 H         1 BK7601      0.0000 
     48 H          -1.8246  -17.8763  -28.6412 H         1 BK7601      0.0000 
     49 H          -2.7257  -16.4704  -29.2339 H         1 BK7601      0.0000 
     50 H          -3.6858  -17.6081  -30.9117 H         1 BK7601      0.0000 
     51 H          -4.8994  -18.8755  -30.6657 H         1 BK7601      0.0000 
     52 H          -3.8785  -19.1041  -28.3112 H         1 BK7601      0.0000 
     53 H           8.9163  -22.0966  -31.0822 H         1 BK7601      0.0000 
     54 H           8.9264  -21.5212  -32.5839 H         1 BK7601      0.0000 
     55 H           8.5514  -20.5543  -31.3548 H         1 BK7601      0.0000 
@<TRIPOS>BOND
     1    2    1 ar   
     2    6    1 ar   
     3    3    2 ar   
     4   31    2 1    
     5    4    3 ar   
     6    5    4 ar   
     7   30    4 1    
     8    6    5 ar   
     9   26    5 1    
    10    8    6 1    
    11   15    7 1    
    12   53    7 1    
    13   54    7 1    
    14   55    7 1    
    15   32    8 1    
    16   33    8 1    
    17   11    9 ar   
    18   24    9 ar   
    19   34    9 1    
    20   12   10 ar   
    21   25   10 ar   
    22   35   10 1    
    23   28   11 ar   
    24   36   11 1    
    25   27   12 ar   
    26   37   12 1    
    27   24   13 ar   
    28   27   13 ar   
    29   38   13 1    
    30   25   14 ar   
    31   28   14 ar   
    32   39   14 1    
    33   23   15 1    
    34   40   15 1    
    35   41   15 1    
    36   18   16 1    
    37   22   16 1    
    38   42   16 1    
    39   43   16 1    
    40   19   17 1    
    41   22   17 1    
    42   44   17 1    
    43   45   17 1    
    44   29   18 1    
    45   46   18 1    
    46   47   18 1    
    47   29   19 1    
    48   48   19 1    
    49   49   19 1    
    50   29   20 1    
    51   30   20 1    
    52   50   20 1    
    53   51   20 1    
    54   26   21 2    
    55   30   21 1    
    56   24   23 1    
    57   26   25 1    
    58   28   27 ar   
    59   52   29 1    
@<TRIPOS>SUBSTRUCTURE
     1 BK7601      1 GROUP   
@<TRIPOS>SET

