#    Name: 4hvg_19Q_1_INTS_M
#    Modification time : Tue Mar 25 01:49:18 2014

@<TRIPOS>MOLECULE
4hvg_19Q_1_INTS_M
   57     0     9     0     0
SMALL
NO_CHARGES


@<TRIPOS>ATOM
      1 CA          2.0030  -13.7420   -2.5965 C.3       3 GLC5        0.0000 
      2 CA          0.6510  -13.5190   -4.1670 C.3       9 GLL5        0.0000 
      3 CA          3.3550  -13.9650   -1.0260 C.3       6 GLP5        0.0000 
      4 CA         -0.7185  -11.0150   -5.3145 C.3       3 GLC5        0.0000 
      5 CA          0.1020  -12.2920   -3.9310 C.3       9 GLL5        0.0000 
      6 CA         -1.5390   -9.7380   -6.6980 C.3       6 GLP5        0.0000 
      7 O          -2.0120  -11.3025   -2.8735 O.2       1 ALC1        0.0000 
      8 O          -1.2010  -12.4440   -3.5100 O.2       7 ALL1        0.0000 
      9 O          -2.8230  -10.1610   -2.2370 O.2       4 ALP1        0.0000 
     10 CA         -0.0560  -15.1625   -1.8550 C.3       3 GLC5        0.0000 
     11 CA         -0.3870  -14.5150   -3.8740 C.3       9 GLL5        0.0000 
     12 CA          0.2750  -15.8100    0.1640 C.3       6 GLP5        0.0000 
     13 CA         -3.0570  -12.8375   -2.1840 C.3       3 GLC5        0.0000 
     14 CA         -1.5380  -13.7980   -3.4570 C.3       9 GLL5        0.0000 
     15 CA         -4.5760  -11.8770   -0.9110 C.3       6 GLP5        0.0000 
     16 N          -4.0385  -13.9660   -2.8295 N.am      2 SEC2        0.0000 
     17 N          -2.6510  -14.4810   -3.1060 N.am      8 SEL2        0.0000 
     18 N          -5.4260  -13.4510   -2.5530 N.am      5 SEP2        0.0000 
     19 CA         -4.5425  -14.9420   -3.2885 C.3       3 GLC5        0.0000 
     20 CA         -2.6680  -15.8080   -3.1590 C.3       9 GLL5        0.0000 
     21 CA         -6.4170  -14.0760   -3.4180 C.3       6 GLP5        0.0000 
     22 CA          4.5700  -18.1300   -3.4880 C.3       3 GLC5        0.0000 
     23 CA          3.8760  -16.9330   -4.5730 C.3       9 GLL5        0.0000 
     24 CA          5.2640  -19.3270   -2.4030 C.3       6 GLP5        0.0000 
     25 CA          0.0155  -16.4770   -7.2095 C.3       3 GLC5        0.0000 
     26 CA          1.8600  -17.0690   -7.0110 C.3       9 GLL5        0.0000 
     27 CA         -1.8290  -15.8850   -7.4080 C.3       6 GLP5        0.0000 
     28 CA          1.8300  -13.7205   -8.5045 C.3       3 GLC5        0.0000 
     29 CA          2.7840  -14.9570   -7.7540 C.3       9 GLL5        0.0000 
     30 CA          0.8760  -12.4840   -9.2550 C.3       6 GLP5        0.0000 
     31 CA          4.0880  -14.2425   -8.7550 C.3       3 GLC5        0.0000 
     32 CA          5.3920  -13.5280   -9.7560 C.3       6 GLP5        0.0000 
     33 CA         -1.2030  -18.0020   -1.4595 C.3       3 GLC5        0.0000 
     34 CA         -1.5720  -18.0120   -3.6410 C.3       9 GLL5        0.0000 
     35 CA         -0.8340  -17.9920    0.7220 C.3       6 GLP5        0.0000 
     36 CA         -1.3330  -19.8545   -6.5745 C.3       3 GLC5        0.0000 
     37 CA         -1.0430  -18.7110   -4.8960 C.3       9 GLL5        0.0000 
     38 CA         -1.6230  -20.9980   -8.2530 C.3       6 GLP5        0.0000 
     39 CA          0.6310  -18.3325   -2.0095 C.3       3 GLC5        0.0000 
     40 CA         -0.2070  -18.7400   -3.6080 C.3       9 GLL5        0.0000 
     41 CA          1.4690  -17.9250   -0.4110 C.3       6 GLP5        0.0000 
     42 CA          1.7352  -11.4938   -3.3335 C.3       3 GLC5        0.0000 
     43 CA          3.0940  -10.0820   -2.6180 C.3       6 GLP5        0.0000 
     44 CA         -0.9140  -15.9817   -1.6027 C.3       3 GLC5        0.0000 
     45 CA         -3.3895  -17.5142   -4.4672 C.3       3 GLC5        0.0000 
     46 CA         -1.5380  -16.4990   -3.5800 C.3       9 GLL5        0.0000 
     47 CA         -4.6760  -18.8750   -5.5650 C.3       6 GLP5        0.0000 
     48 CA         -1.9660  -16.0192   -5.3887 C.3       3 GLC5        0.0000 
     49 CA          4.5460  -15.1550   -3.6880 C.3       3 GLC5        0.0000 
     50 CA          3.4240  -15.7350   -5.4330 C.3       9 GLL5        0.0000 
     51 CA          5.4420  -13.9760   -2.3730 C.3       6 GLP5        0.0000 
     52 CA         -2.9918  -18.6182   -4.9168 C.3       3 GLC5        0.0000 
     53 CA         -1.5682  -17.1232   -5.8383 C.3       3 GLC5        0.0000 
     54 CA         -0.2785  -12.7745   -2.0746 C.3       3 GLC5        0.0000 
     55 CA         -0.2640  -12.0180   -0.2920 C.3       6 GLP5        0.0000 
     56 CA         -1.0375  -13.4435   -5.4211 C.3       3 GLC5        0.0000 
     57 CA         -1.7820  -13.3560   -6.9850 C.3       6 GLP5        0.0000 
@<TRIPOS>BOND
@<TRIPOS>SUBSTRUCTURE
     1 ALC1        7 GROUP        1 X    ALC  0     ROOT ALC X 1
     2 SEC2       16 GROUP        1 X    SEC  0     **** SEC X 2
     3 GLC5        1 GROUP        1 X    GLC  0     **** GLC X 6
     4 ALP1        9 GROUP        1 Y    ALP  0     ROOT ALP Y 8
     5 SEP2       18 GROUP        1 Y    SEP  0     **** SEP Y 9
     6 GLP5        3 GROUP        1 Y    GLP  0     **** GLP Y 13
     7 ALL1        8 GROUP        1 Z    ALL  0     ROOT ALL Z 15
     8 SEL2       17 GROUP        1 Z    SEL  0     **** SEL Z 16
     9 GLL5        2 GROUP        1 Z    GLL  0     **** GLL Z 20
@<TRIPOS>SET

