#    Name: 4hvg_19Q_1_ligand
#    Modification time : Tue Mar 25 01:49:18 2014

@<TRIPOS>MOLECULE
4hvg_19Q_1_ligand
   41    43     1     0     0
SMALL
NO_CHARGES


@<TRIPOS>ATOM
      1 C1          0.6510  -13.5190   -4.1670 C.2       1 19Q1201     0.0000 
      2 C2          0.1020  -12.2920   -3.9310 C.2       1 19Q1201     0.0000 
      3 N3         -1.2010  -12.4440   -3.5100 N.pl3     1 19Q1201     0.0000 
      4 C4         -0.3870  -14.5150   -3.8740 C.ar      1 19Q1201     0.0000 
      5 C5         -1.5380  -13.7980   -3.4570 C.ar      1 19Q1201     0.0000 
      6 N6         -2.6510  -14.4810   -3.1060 N.ar      1 19Q1201     0.0000 
      7 C7         -2.6680  -15.8080   -3.1590 C.ar      1 19Q1201     0.0000 
      8 C8         -1.5380  -16.4990   -3.5800 C.ar      1 19Q1201     0.0000 
      9 N9         -0.4200  -15.8340   -3.9220 N.ar      1 19Q1201     0.0000 
     10 C10         2.0020  -13.8590   -4.6440 C.2       1 19Q1201     0.0000 
     11 N11         2.1850  -15.1770   -4.8970 N.am      1 19Q1201     0.0000 
     12 O12         2.8870  -13.0180   -4.8080 O.2       1 19Q1201     0.0000 
     13 C13         3.4240  -15.7350   -5.4330 C.3       1 19Q1201     0.0000 
     14 C14         3.8760  -16.9330   -4.5730 C.3       1 19Q1201     0.0000 
     15 C15         3.1120  -16.1720   -6.9000 C.3       1 19Q1201     0.0000 
     16 C16         1.8600  -17.0690   -7.0110 C.3       1 19Q1201     0.0000 
     17 C17         2.7840  -14.9570   -7.7540 C.3       1 19Q1201     0.0000 
     18 O18         4.2720  -16.8680   -7.4240 O.3       1 19Q1201     0.0000 
     19 C19        -1.5720  -18.0120   -3.6410 C.3       1 19Q1201     0.0000 
     20 C20        -1.0430  -18.7110   -4.8960 C.3       1 19Q1201     0.0000 
     21 C21        -0.2070  -18.7400   -3.6080 C.3       1 19Q1201     0.0000 
     22 H           0.5506  -11.4453   -4.0399 H         1 19Q1201     0.0000 
     23 H          -1.8016  -11.7259   -3.2824 H         1 19Q1201     0.0000 
     24 H          -3.5103  -16.3538   -2.8923 H         1 19Q1201     0.0000 
     25 H           1.4194  -15.8716   -4.7120 H         1 19Q1201     0.0000 
     26 H           4.1918  -15.0017   -5.4613 H         1 19Q1201     0.0000 
     27 H          -2.1963  -18.6091   -3.2344 H         1 19Q1201     0.0000 
     28 H          -0.6730  -18.0471   -5.4574 H         1 19Q1201     0.0000 
     29 H          -1.4833  -19.5441   -4.9652 H         1 19Q1201     0.0000 
     30 H          -0.3525  -19.5752   -3.1983 H         1 19Q1201     0.0000 
     31 H           0.4578  -18.0782   -3.6905 H         1 19Q1201     0.0000 
     32 H           4.7221  -17.3395   -4.9178 H         1 19Q1201     0.0000 
     33 H           4.0444  -16.6664   -3.6240 H         1 19Q1201     0.0000 
     34 H           3.1880  -17.6585   -4.5559 H         1 19Q1201     0.0000 
     35 H           1.6775  -17.3365   -7.9571 H         1 19Q1201     0.0000 
     36 H           1.9589  -17.9118   -6.4820 H         1 19Q1201     0.0000 
     37 H           1.0403  -16.6059   -6.6740 H         1 19Q1201     0.0000 
     38 H           3.5422  -14.3055   -7.7797 H         1 19Q1201     0.0000 
     39 H           2.5839  -15.2112   -8.7002 H         1 19Q1201     0.0000 
     40 H           1.9857  -14.4643   -7.4078 H         1 19Q1201     0.0000 
     41 H           4.2620  -16.6839   -8.4069 H         1 19Q1201     0.0000 
@<TRIPOS>BOND
     1    2    1 2    
     2    4    1 1    
     3   10    1 1    
     4    3    2 1    
     5   22    2 1    
     6    5    3 1    
     7   23    3 1    
     8    5    4 ar   
     9    9    4 ar   
    10    6    5 ar   
    11    7    6 ar   
    12    8    7 ar   
    13   24    7 1    
    14    9    8 ar   
    15   19    8 1    
    16   11   10 am   
    17   12   10 2    
    18   13   11 1    
    19   25   11 1    
    20   14   13 1    
    21   15   13 1    
    22   26   13 1    
    23   32   14 1    
    24   33   14 1    
    25   34   14 1    
    26   16   15 1    
    27   17   15 1    
    28   18   15 1    
    29   35   16 1    
    30   36   16 1    
    31   37   16 1    
    32   38   17 1    
    33   39   17 1    
    34   40   17 1    
    35   41   18 1    
    36   20   19 1    
    37   21   19 1    
    38   27   19 1    
    39   21   20 1    
    40   28   20 1    
    41   29   20 1    
    42   30   21 1    
    43   31   21 1    
@<TRIPOS>SUBSTRUCTURE
     1 19Q1201     1 GROUP   
@<TRIPOS>SET

