#    Name: 3km8_9DI_1_INTS_M
#    Modification time : Mon Mar 24 19:47:35 2014

@<TRIPOS>MOLECULE
3km8_9DI_1_INTS_M
   56     0     9     0     0
SMALL
NO_CHARGES


@<TRIPOS>ATOM
      1 CA        -24.5195  -14.7130   10.7690 C.3       3 GLC5        0.0000 
      2 CA        -25.2040  -14.0980    8.7370 C.3       9 GLL5        0.0000 
      3 CA        -23.8350  -15.3280   12.8010 C.3       6 GLP5        0.0000 
      4 N         -24.4540  -13.8670   11.2415 N.am      2 SEC2        0.0000 
      5 N         -25.2770  -13.8190   10.0540 N.am      8 SEL2        0.0000 
      6 N         -23.6310  -13.9150   12.4290 N.am      5 SEP2        0.0000 
      7 O         -28.7240  -12.6990   10.1765 O.2       1 ALC1        0.0000 
      8 O         -27.5730  -13.3400    9.7110 O.2       7 ALL1        0.0000 
      9 O         -29.8750  -12.0580   10.6420 O.2       4 ALP1        0.0000 
     10 N         -29.8250  -12.9355    8.2040 N.am      2 SEC2        0.0000 
     11 N         -28.5770  -13.4930    7.6550 N.am      8 SEL2        0.0000 
     12 N         -31.0730  -12.3780    8.7530 N.am      5 SEP2        0.0000 
     13 CA        -25.1815  -12.4650    6.4555 C.3       3 GLC5        0.0000 
     14 CA        -26.2690  -13.8930    7.7660 C.3       9 GLL5        0.0000 
     15 CA        -24.0940  -11.0370    5.1450 C.3       6 GLP5        0.0000 
     16 O         -26.3590  -13.9610    5.2935 O.2       1 ALC1        0.0000 
     17 O         -25.7950  -14.1520    6.5220 O.2       7 ALL1        0.0000 
     18 O         -26.9230  -13.7700    4.0650 O.2       4 ALP1        0.0000 
     19 CA        -18.2535  -12.6465    6.5275 C.3       3 GLC5        0.0000 
     20 CA        -19.5500  -13.8320    7.2560 C.3       9 GLL5        0.0000 
     21 CA        -16.9570  -11.4610    5.7990 C.3       6 GLP5        0.0000 
     22 CA        -17.7485  -14.2310    8.2920 C.3       3 GLC5        0.0000 
     23 CA        -15.9470  -14.6300    9.3280 C.3       6 GLP5        0.0000 
     24 CA        -19.2335  -11.9865    8.1235 C.3       3 GLC5        0.0000 
     25 CA        -18.9170  -10.1410    8.9910 C.3       6 GLP5        0.0000 
     26 N         -21.2800  -12.4690    6.1625 N.am      2 SEC2        0.0000 
     27 N         -20.2820  -13.1240    6.2450 N.am      8 SEL2        0.0000 
     28 N         -22.2780  -11.8140    6.0800 N.am      5 SEP2        0.0000 
     29 O         -19.9835  -13.8560    5.0745 O.2       1 ALC1        0.0000 
     30 O         -20.2820  -13.1240    6.2450 O.2       7 ALL1        0.0000 
     31 O         -19.6850  -14.5880    3.9040 O.2       4 ALP1        0.0000 
     32 CA        -19.9155  -14.9385    9.8040 C.3       3 GLC5        0.0000 
     33 CA        -20.5420  -14.7330    8.0020 C.3       9 GLL5        0.0000 
     34 CA        -19.2890  -15.1440   11.6060 C.3       6 GLP5        0.0000 
     35 CA        -21.5515  -15.7200   10.1120 C.3       3 GLC5        0.0000 
     36 CA        -22.8070  -14.8480    8.4910 C.3       9 GLL5        0.0000 
     37 CA        -20.2960  -16.5920   11.7330 C.3       6 GLP5        0.0000 
     38 CA        -22.4795  -13.3210    9.8085 C.3       3 GLC5        0.0000 
     39 CA        -22.1520  -11.7940   11.1260 C.3       6 GLP5        0.0000 
     40 CA        -23.3210  -15.0880   10.6460 C.3       3 GLC5        0.0000 
     41 CA        -23.1450  -16.5875    6.0445 C.3       3 GLC5        0.0000 
     42 CA        -22.4460  -16.1600    7.7840 C.3       9 GLL5        0.0000 
     43 CA        -23.8440  -17.0150    4.3050 C.3       6 GLP5        0.0000 
     44 CA        -21.8370  -16.5835    5.5255 C.3       3 GLC5        0.0000 
     45 CA        -21.1600  -15.8020    7.0830 C.3       9 GLL5        0.0000 
     46 CA        -22.5140  -17.3650    3.9680 C.3       6 GLP5        0.0000 
     47 O         -19.5035  -16.6145    5.8995 O.2       1 ALC1        0.0000 
     48 O         -20.2800  -16.9130    6.9080 O.2       7 ALL1        0.0000 
     49 O         -18.7270  -16.3160    4.8910 O.2       4 ALP1        0.0000 
     50 CA        -23.5877  -13.0355    6.0510 C.3       3 GLC5        0.0000 
     51 CA        -24.4910  -14.5640    6.5830 C.3       9 GLL5        0.0000 
     52 CA        -22.8960  -11.6040    4.8630 C.3       6 GLP5        0.0000 
     53 CA        -25.4044  -15.9139    8.3145 C.3       3 GLC5        0.0000 
     54 CA        -24.0680  -14.3700    7.8950 C.3       9 GLL5        0.0000 
     55 CA        -25.8370  -17.5140    9.3170 C.3       6 GLP5        0.0000 
     56 CA        -24.2317  -16.5090    8.7272 C.3       3 GLC5        0.0000 
@<TRIPOS>BOND
@<TRIPOS>SUBSTRUCTURE
     1 ALC1        7 GROUP        1 X    ALC  0     ROOT ALC X 1
     2 SEC2        4 GROUP        1 X    SEC  0     **** SEC X 2
     3 GLC5        1 GROUP        1 X    GLC  0     **** GLC X 6
     4 ALP1        9 GROUP        1 Y    ALP  0     ROOT ALP Y 8
     5 SEP2        6 GROUP        1 Y    SEP  0     **** SEP Y 9
     6 GLP5        3 GROUP        1 Y    GLP  0     **** GLP Y 13
     7 ALL1        8 GROUP        1 Z    ALL  0     ROOT ALL Z 15
     8 SEL2        5 GROUP        1 Z    SEL  0     **** SEL Z 16
     9 GLL5        2 GROUP        1 Z    GLL  0     **** GLL Z 20
@<TRIPOS>SET

