#    Name: 3km8_9DI_1_ligand
#    Modification time : Mon Mar 24 19:47:35 2014

@<TRIPOS>MOLECULE
3km8_9DI_1_ligand
   32    34     1     0     0
SMALL
NO_CHARGES


@<TRIPOS>ATOM
      1 C9        -24.0680  -14.3700    7.8950 C.2       1 9DI353      0.0000 
      2 C4        -25.2040  -14.0980    8.7370 C.2       1 9DI353      0.0000 
      3 N3        -25.2770  -13.8190   10.0540 N.2       1 9DI353      0.0000 
      4 C2        -26.4890  -13.4850   10.5160 C.2       1 9DI353      0.0000 
      5 N1        -27.5730  -13.3400    9.7110 N.am      1 9DI353      0.0000 
      6 C6        -27.5530  -13.5620    8.3750 C.2       1 9DI353      0.0000 
      7 O6        -28.5770  -13.4930    7.6550 O.2       1 9DI353      0.0000 
      8 C5        -26.2690  -13.8930    7.7660 C.2       1 9DI353      0.0000 
      9 N7        -25.7950  -14.1520    6.5220 N.pl3     1 9DI353      0.0000 
     10 C8        -24.4910  -14.5640    6.5830 C.2       1 9DI353      0.0000 
     11 C5'       -19.5500  -13.8320    7.2560 C.3       1 9DI353      0.0000 
     12 O5'       -20.2820  -13.1240    6.2450 O.3       1 9DI353      0.0000 
     13 C4'       -20.5420  -14.7330    8.0020 C.3       1 9DI353      0.0000 
     14 O4'       -21.6820  -13.9660    8.3920 O.3       1 9DI353      0.0000 
     15 C1'       -22.8070  -14.8480    8.4910 C.3       1 9DI353      0.0000 
     16 C2'       -22.4460  -16.1600    7.7840 C.3       1 9DI353      0.0000 
     17 O2'       -22.2310  -17.1800    8.7890 O.3       1 9DI353      0.0000 
     18 C3'       -21.1600  -15.8020    7.0830 C.3       1 9DI353      0.0000 
     19 O3'       -20.2800  -16.9130    6.9080 O.3       1 9DI353      0.0000 
     20 H         -26.6162  -13.3245   11.5588 H         1 9DI353      0.0000 
     21 H         -28.4910  -13.0341   10.1572 H         1 9DI353      0.0000 
     22 H         -26.3047  -14.0601    5.6974 H         1 9DI353      0.0000 
     23 H         -23.9681  -14.9137    5.8800 H         1 9DI353      0.0000 
     24 H         -19.1018  -13.1575    7.9796 H         1 9DI353      0.0000 
     25 H         -18.7785  -14.4660    6.8292 H         1 9DI353      0.0000 
     26 H         -20.0873  -15.2042    8.8186 H         1 9DI353      0.0000 
     27 H         -22.9895  -15.1262    9.5372 H         1 9DI353      0.0000 
     28 H         -23.1865  -16.3837    7.0926 H         1 9DI353      0.0000 
     29 H         -21.4085  -15.3089    6.1599 H         1 9DI353      0.0000 
     30 H         -20.0589  -13.5909    5.3893 H         1 9DI353      0.0000 
     31 H         -21.3066  -17.5209    8.6179 H         1 9DI353      0.0000 
     32 H         -19.4346  -16.5191    6.5472 H         1 9DI353      0.0000 
@<TRIPOS>BOND
     1    2    1 1    
     2   10    1 2    
     3   15    1 1    
     4    3    2 1    
     5    8    2 2    
     6    4    3 2    
     7    5    4 1    
     8   20    4 1    
     9    6    5 am   
    10   21    5 1    
    11    7    6 2    
    12    8    6 1    
    13    9    8 1    
    14   10    9 1    
    15   22    9 1    
    16   23   10 1    
    17   12   11 1    
    18   13   11 1    
    19   24   11 1    
    20   25   11 1    
    21   30   12 1    
    22   14   13 1    
    23   18   13 1    
    24   26   13 1    
    25   15   14 1    
    26   16   15 1    
    27   27   15 1    
    28   17   16 1    
    29   18   16 1    
    30   28   16 1    
    31   31   17 1    
    32   19   18 1    
    33   29   18 1    
    34   32   19 1    
@<TRIPOS>SUBSTRUCTURE
     1 9DI353      1 GROUP   
@<TRIPOS>SET

