#    Name: 4EK9_1_CAVITY_N1_6.mol2
#    Modification time : Mon Mar 10 17:22:58 2014

@<TRIPOS>MOLECULE
4EK9_1_CAVITY_N1_6.mol2
   64     0     6     0     0
SMALL
NO_CHARGES


@<TRIPOS>ATOM
      1 CA         48.8717   52.7090   11.1207 C.3       5 GLY6        0.0000 
      2 N          44.9358   51.1757   13.2789 N.2       2 ALA2        0.0000 
      3 N          47.3866   51.2565   11.5506 N.2       2 ALA2        0.0000 
      4 N          44.6762   49.7636   12.8447 N.2       2 ALA2        0.0000 
      5 N          45.9016   49.8040   11.9805 N.2       2 ALA2        0.0000 
      6 CA         49.7912   56.0779    9.9784 C.3       5 GLY6        0.0000 
      7 CA         51.0166   56.1183    9.1143 C.3       5 GLY6        0.0000 
      8 N          48.3061   54.6254   10.4083 N.2       2 ALA2        0.0000 
      9 CA         49.5316   54.6658    9.5442 C.3       5 GLY6        0.0000 
     10 O          50.7570   54.7063    8.6801 O.2       2 ALA2        0.0000 
     11 N          44.3703   53.0921   12.5665 N.2       2 ALA2        0.0000 
     12 N          48.0465   53.2133    9.9741 N.2       2 ALA2        0.0000 
     13 O          49.2719   53.2537    9.1100 O.2       2 ALA2        0.0000 
     14 NZ         42.8852   51.6396   12.9964 N.2       3 LYS4        0.0000 
     15 N          44.1106   51.6800   12.1323 N.2       2 ALA2        0.0000 
     16 N          45.3360   51.7204   11.2682 N.2       2 ALA2        0.0000 
     17 N          46.5614   51.7608   10.4040 N.2       2 ALA2        0.0000 
     18 N          47.7868   51.8012    9.5399 N.2       2 ALA2        0.0000 
     19 NZ         43.8510   50.2679   11.6981 N.2       3 LYS4        0.0000 
     20 CZ         45.0764   50.3083   10.8339 C.ar      4 PHE5        0.0000 
     21 CZ         46.3018   50.3487    9.9698 C.ar      4 PHE5        0.0000 
     22 CA         44.8167   48.8962   10.3997 C.3       5 GLY6        0.0000 
     23 N          48.0003   57.9540   10.1302 N.2       2 ALA2        0.0000 
     24 DU         49.2257   57.9944    9.2661 H         6 CUB7        0.0000 
     25 CA         47.7406   56.5419    9.6960 C.3       5 GLY6        0.0000 
     26 DU         48.9660   56.5823    8.8318 H         6 CUB7        0.0000 
     27 CA         50.1914   56.6227    7.9677 C.3       5 GLY6        0.0000 
     28 O          47.4809   55.1298    9.2617 O.2       2 ALA2        0.0000 
     29 O          48.7064   55.1702    8.3976 O.2       2 ALA2        0.0000 
     30 CA         49.9318   55.2106    7.5335 C.3       5 GLY6        0.0000 
     31 CA         43.5451   53.5964   11.4199 C.3       5 GLY6        0.0000 
     32 N          44.7705   53.6368   10.5558 N.2       2 ALA2        0.0000 
     33 N          45.9959   53.6773    9.6917 N.2       2 ALA2        0.0000 
     34 O          47.2213   53.7177    8.8275 O.2       2 ALA2        0.0000 
     35 N          48.4467   53.7581    7.9634 N.2       2 ALA2        0.0000 
     36 NZ         43.2854   52.1843   10.9857 N.2       3 LYS4        0.0000 
     37 N          44.5108   52.2247   10.1216 N.2       2 ALA2        0.0000 
     38 N          45.7362   52.2652    9.2574 N.2       2 ALA2        0.0000 
     39 NZ         43.0258   50.7722   10.5515 N.2       3 LYS4        0.0000 
     40 N          44.2512   50.8126    9.6873 N.2       2 ALA2        0.0000 
     41 N          45.4766   50.8531    8.8232 N.2       2 ALA2        0.0000 
     42 CA         48.4005   58.4987    8.1195 C.3       5 GLY6        0.0000 
     43 CA         48.1408   57.0866    7.6852 C.3       5 GLY6        0.0000 
     44 DU         49.3662   57.1270    6.8211 H         6 CUB7        0.0000 
     45 CA         46.6557   55.6341    8.1151 C.3       5 GLY6        0.0000 
     46 O          47.8812   55.6745    7.2510 O.2       2 ALA2        0.0000 
     47 N          49.1066   55.7149    6.3869 N.2       2 ALA2        0.0000 
     48 CZ         42.7199   54.1008   10.2733 C.ar      4 PHE5        0.0000 
     49 CA         42.4602   52.6887    9.8391 C.3       5 GLY6        0.0000 
     50 N          43.6856   52.7291    8.9750 N.2       2 ALA2        0.0000 
     51 O          44.9110   52.7695    8.1108 O.2       2 ALA2        0.0000 
     52 CA         44.6514   51.3574    7.6766 C.3       5 GLY6        0.0000 
     53 CA         47.3156   57.5909    6.5386 C.3       5 GLY6        0.0000 
     54 N          48.2814   56.2192    5.2403 N.2       2 ALA2        0.0000 
     55 CA         41.6350   53.1930    8.6925 C.3       5 GLY6        0.0000 
     56 N          42.8604   53.2334    7.8284 N.2       2 ALA2        0.0000 
     57 O          44.0858   53.2738    6.9642 O.2       2 ALA2        0.0000 
     58 N          41.3754   51.7809    8.2583 N.2       2 ALA2        0.0000 
     59 N          42.6008   51.8213    7.3941 N.2       2 ALA2        0.0000 
     60 CA         43.8262   51.8617    6.5300 C.3       5 GLY6        0.0000 
     61 N          42.0352   53.7377    6.6818 N.2       2 ALA2        0.0000 
     62 OG         43.2606   53.7781    5.8176 O.2       1 SER1        0.0000 
     63 N          41.7756   52.3256    6.2475 N.2       2 ALA2        0.0000 
     64 OG         43.0010   52.3660    5.3834 O.2       1 SER1        0.0000 
@<TRIPOS>BOND
@<TRIPOS>SUBSTRUCTURE
     1 SER1       62 GROUP   
     2 ALA2        2 GROUP   
     3 LYS4       14 GROUP   
     4 PHE5       20 GROUP   
     5 GLY6        1 GROUP   
     6 CUB7       24 GROUP   
@<TRIPOS>SET

