#    Name: 4ek9_EP4_1_INTS_M
#    Modification time : Mon Mar 24 18:07:02 2014

@<TRIPOS>MOLECULE
4ek9_EP4_1_INTS_M
   47     0     9     0     0
SMALL
NO_CHARGES


@<TRIPOS>ATOM
      1 CA         45.3085   54.5620   10.9965 C.3       3 GLC5        0.0000 
      2 CA         45.8240   53.2690    9.2590 C.3       9 GLL5        0.0000 
      3 CA         44.7930   55.8550   12.7340 C.3       6 GLP5        0.0000 
      4 CA         45.4420   55.3335    9.2625 C.3       3 GLC5        0.0000 
      5 CA         45.0600   57.3980    9.2660 C.3       6 GLP5        0.0000 
      6 CA         46.0620   52.5345    7.1625 C.3       3 GLC5        0.0000 
      7 CA         46.3000   51.8000    5.0660 C.3       6 GLP5        0.0000 
      8 CA         46.6805   49.9650   10.1810 C.3       3 GLC5        0.0000 
      9 CA         44.9520   51.2040   10.1340 C.3       9 GLL5        0.0000 
     10 CA         48.4090   48.7260   10.2280 C.3       6 GLP5        0.0000 
     11 CA         43.2655   48.9260   10.3440 C.3       3 GLC5        0.0000 
     12 CA         43.9850   50.5480   11.1450 C.3       9 GLL5        0.0000 
     13 CA         42.5460   47.3040    9.5430 C.3       6 GLP5        0.0000 
     14 CA         43.2950   48.0385   11.0805 C.3       3 GLC5        0.0000 
     15 CA         44.0440   48.7730   12.6180 C.3       9 GLL5        0.0000 
     16 CA         43.3795   46.8120   11.3110 C.3       3 GLC5        0.0000 
     17 CA         44.2130   46.3200   13.0790 C.3       9 GLL5        0.0000 
     18 CA         42.6080   45.9085   11.1775 C.3       3 GLC5        0.0000 
     19 CA         42.6700   44.5130   12.8120 C.3       9 GLL5        0.0000 
     20 CA         41.0515   45.4860   12.6515 C.3       3 GLC5        0.0000 
     21 CA         39.4330   46.4590   12.4910 C.3       6 GLP5        0.0000 
     22 CA         42.4620   44.9095   14.4540 C.3       3 GLC5        0.0000 
     23 CA         42.2540   45.3060   16.0960 C.3       6 GLP5        0.0000 
     24 CA         42.4995   42.5475   13.7585 C.3       3 GLC5        0.0000 
     25 CA         42.3290   40.5820   14.7050 C.3       6 GLP5        0.0000 
     26 N          43.4960   42.1170   12.8950 N.am      2 SEC2        0.0000 
     27 N          43.6350   43.6230   13.3160 N.am      8 SEL2        0.0000 
     28 N          43.3570   40.6110   12.4740 N.am      5 SEP2        0.0000 
     29 CA         44.4695   44.1120   15.4585 C.3       3 GLC5        0.0000 
     30 CA         44.8420   44.1290   13.6740 C.3       9 GLL5        0.0000 
     31 CA         44.0970   44.0950   17.2430 C.3       6 GLP5        0.0000 
     32 CA         43.5855   42.3555   14.1895 C.3       3 GLC5        0.0000 
     33 O          45.4865   41.9010   14.5700 O.2       1 ALC1        0.0000 
     34 O          45.8060   43.3100   14.1320 O.2       7 ALL1        0.0000 
     35 O          45.1670   40.4920   15.0080 O.2       4 ALP1        0.0000 
     36 CA         45.6925   50.5810   14.9180 C.3       3 GLC5        0.0000 
     37 CA         44.4390   49.9320   13.4580 C.3       9 GLL5        0.0000 
     38 CA         46.9460   51.2300   16.3780 C.3       6 GLP5        0.0000 
     39 O          42.3475   49.7525   13.4620 O.2       1 ALC1        0.0000 
     40 O          43.6080   49.8450   14.6440 O.2       7 ALL1        0.0000 
     41 O          41.0870   49.6600   12.2800 O.2       4 ALP1        0.0000 
     42 O          42.3645   49.4675   14.5210 O.2       1 ALC1        0.0000 
     43 O          41.1210   49.0900   14.3980 O.2       4 ALP1        0.0000 
     44 O          41.9455   50.6315   12.6045 O.2       1 ALC1        0.0000 
     45 O          42.8040   51.6030   12.9290 O.2       7 ALL1        0.0000 
     46 O          41.9625   50.3465   13.6635 O.2       1 ALC1        0.0000 
     47 CA         43.4660   45.5962   14.7065 C.3       3 GLC5        0.0000 
@<TRIPOS>BOND
@<TRIPOS>SUBSTRUCTURE
     1 ALC1       33 GROUP        1 X    ALC  0     ROOT ALC X 1
     2 SEC2       26 GROUP        1 X    SEC  0     **** SEC X 2
     3 GLC5        1 GROUP        1 X    GLC  0     **** GLC X 6
     4 ALP1       35 GROUP        1 Y    ALP  0     ROOT ALP Y 8
     5 SEP2       28 GROUP        1 Y    SEP  0     **** SEP Y 9
     6 GLP5        3 GROUP        1 Y    GLP  0     **** GLP Y 13
     7 ALL1       34 GROUP        1 Z    ALL  0     ROOT ALL Z 15
     8 SEL2       27 GROUP        1 Z    SEL  0     **** SEL Z 16
     9 GLL5        2 GROUP        1 Z    GLL  0     **** GLL Z 20
@<TRIPOS>SET

