#    Name: 4ek9_EP4_1_ligand
#    Modification time : Mon Mar 24 18:07:02 2014

@<TRIPOS>MOLECULE
4ek9_EP4_1_ligand
   40    42     1     0     0
SMALL
NO_CHARGES


@<TRIPOS>ATOM
      1 CG         45.8240   53.2690    9.2590 C.3       1 EP4501      0.0000 
      2 N2         44.6520   52.6310    9.8840 N.4       1 EP4501      0.0000 
      3 CE         43.5190   52.8210    8.9750 C.3       1 EP4501      0.0000 
      4 C5'        44.9520   51.2040   10.1340 C.3       1 EP4501      0.0000 
      5 C4'        43.9850   50.5480   11.1450 C.3       1 EP4501      0.0000 
      6 O4'        44.4600   49.1890   11.2980 O.3       1 EP4501      0.0000 
      7 C1'        44.0440   48.7730   12.6180 C.3       1 EP4501      0.0000 
      8 N9         44.7650   47.5500   13.0770 N.pl3     1 EP4501      0.0000 
      9 C4         44.2130   46.3200   13.0790 C.ar      1 EP4501      0.0000 
     10 N3         42.9870   45.8890   12.7050 N.ar      1 EP4501      0.0000 
     11 C2         42.6700   44.5130   12.8120 C.ar      1 EP4501      0.0000 
     12 N1         43.6350   43.6230   13.3160 N.ar      1 EP4501      0.0000 
     13 C6         44.8420   44.1290   13.6740 C.ar      1 EP4501      0.0000 
     14 N6         45.8060   43.3100   14.1320 N.pl3     1 EP4501      0.0000 
     15 C5         45.1430   45.4530   13.5550 C.ar      1 EP4501      0.0000 
     16 N7         46.2660   46.1750   13.8310 N.2       1 EP4501      0.0000 
     17 C8         46.0300   47.4620   13.5340 C.2       1 EP4501      0.0000 
     18 C2'        44.4390   49.9320   13.4580 C.3       1 EP4501      0.0000 
     19 O2'        43.6080   49.8450   14.6440 O.3       1 EP4501      0.0000 
     20 C3'        44.1030   51.1420   12.5600 C.3       1 EP4501      0.0000 
     21 O3'        42.8040   51.6030   12.9290 O.3       1 EP4501      0.0000 
     22 H          44.4517   53.1311   10.8234 H         1 EP4501      0.0000 
     23 H          45.9768   51.0888   10.5238 H         1 EP4501      0.0000 
     24 H          44.8988   50.6293    9.1946 H         1 EP4501      0.0000 
     25 H          43.0107   50.5812   10.8077 H         1 EP4501      0.0000 
     26 H          42.9972   48.6495   12.6669 H         1 EP4501      0.0000 
     27 H          41.7545   44.1771   12.5267 H         1 EP4501      0.0000 
     28 H          45.5833   42.3353   14.1502 H         1 EP4501      0.0000 
     29 H          46.6593   43.7490   14.4134 H         1 EP4501      0.0000 
     30 H          46.6493   48.1926   13.6288 H         1 EP4501      0.0000 
     31 H          45.4570   49.8996   13.6479 H         1 EP4501      0.0000 
     32 H          44.8470   51.8348   12.5980 H         1 EP4501      0.0000 
     33 H          46.6418   53.1815    9.8277 H         1 EP4501      0.0000 
     34 H          46.0393   52.8618    8.3714 H         1 EP4501      0.0000 
     35 H          45.6770   54.2461    9.1052 H         1 EP4501      0.0000 
     36 H          43.3255   53.7898    8.8201 H         1 EP4501      0.0000 
     37 H          43.6881   52.4091    8.0796 H         1 EP4501      0.0000 
     38 H          42.6817   52.4086    9.3339 H         1 EP4501      0.0000 
     39 H          42.7268   49.5028   14.3179 H         1 EP4501      0.0000 
     40 H          42.1852   50.8570   12.6829 H         1 EP4501      0.0000 
@<TRIPOS>BOND
     1    2    1 1    
     2   33    1 1    
     3   34    1 1    
     4   35    1 1    
     5    3    2 1    
     6    4    2 1    
     7   22    2 1    
     8   36    3 1    
     9   37    3 1    
    10   38    3 1    
    11    5    4 1    
    12   23    4 1    
    13   24    4 1    
    14    6    5 1    
    15   20    5 1    
    16   25    5 1    
    17    7    6 1    
    18    8    7 1    
    19   18    7 1    
    20   26    7 1    
    21    9    8 1    
    22   17    8 1    
    23   10    9 ar   
    24   15    9 ar   
    25   11   10 ar   
    26   12   11 ar   
    27   27   11 1    
    28   13   12 ar   
    29   14   13 1    
    30   15   13 ar   
    31   28   14 1    
    32   29   14 1    
    33   16   15 1    
    34   17   16 2    
    35   30   17 1    
    36   19   18 1    
    37   20   18 1    
    38   31   18 1    
    39   39   19 1    
    40   21   20 1    
    41   32   20 1    
    42   40   21 1    
@<TRIPOS>SUBSTRUCTURE
     1 EP4501      1 GROUP   
@<TRIPOS>SET

