#    Name: 2q1t_NAD_1_INTS_M
#    Modification time : Mon Mar 24 20:26:26 2014

@<TRIPOS>MOLECULE
2q1t_NAD_1_INTS_M
  117     0    12     0     0
SMALL
NO_CHARGES


@<TRIPOS>ATOM
      1 N           6.1125   50.1280   38.8880 N.am      2 SEC2        0.0000 
      2 N           6.1690   51.3090   39.3950 N.am     10 SEL2        0.0000 
      3 N           6.0560   48.9470   38.3810 N.am      6 SEP2        0.0000 
      4 NZ          8.2900   52.1745   41.0885 N.4       3 LYC4        0.0000 
      5 NZ          7.0300   51.7010   41.6910 N.4      11 LYL4        0.0000 
      6 NZ         10.4970   52.0030   39.8300 N.4       7 LYP4        0.0000 
      7 N           7.1020   51.7625   43.1315 N.am      2 SEC2        0.0000 
      8 N           7.0300   51.7010   41.6910 N.am     10 SEL2        0.0000 
      9 N           7.1740   51.8240   44.5720 N.am      6 SEP2        0.0000 
     10 N           8.2900   52.1745   41.0885 N.am      2 SEC2        0.0000 
     11 N           9.5500   52.6480   40.4860 N.am      6 SEP2        0.0000 
     12 CA          3.1235   52.3365   39.0555 C.3       4 GLC5        0.0000 
     13 CA          3.4750   51.1340   40.5740 C.3      12 GLL5        0.0000 
     14 CA          2.7720   53.5390   37.5370 C.3       8 GLP5        0.0000 
     15 CA          1.6205   49.5040   42.4180 C.3       4 GLC5        0.0000 
     16 CA          3.0470   49.8450   41.1930 C.3      12 GLL5        0.0000 
     17 CA          0.1940   49.1630   43.6430 C.3       8 GLP5        0.0000 
     18 CA          5.5265   47.5435   41.9750 C.3       4 GLC5        0.0000 
     19 CA          4.1490   48.7370   41.1160 C.3      12 GLL5        0.0000 
     20 CA          6.9040   46.3500   42.8340 C.3       8 GLP5        0.0000 
     21 O           3.3685   47.5480   43.0620 O.2       1 ALC1        0.0000 
     22 O           4.3100   48.1270   42.4010 O.2       9 ALL1        0.0000 
     23 O           2.4270   46.9690   43.7230 O.2       5 ALP1        0.0000 
     24 CA          5.5280   47.3895   39.2505 C.3       4 GLC5        0.0000 
     25 CA          3.5540   47.7330   40.1270 C.3      12 GLL5        0.0000 
     26 CA          7.5020   47.0460   38.3740 C.3       8 GLP5        0.0000 
     27 N           5.1475   46.2315   39.2790 N.am      2 SEC2        0.0000 
     28 N           3.9080   46.3510   40.2500 N.am     10 SEL2        0.0000 
     29 N           6.3870   46.1120   38.3080 N.am      6 SEP2        0.0000 
     30 O           3.3860   45.8140   41.3135 O.2       1 ALC1        0.0000 
     31 O           3.9080   46.3510   40.2500 O.2       9 ALL1        0.0000 
     32 O           2.8640   45.2770   42.3770 O.2       5 ALP1        0.0000 
     33 CA          1.1320   48.5690   41.9930 C.3       4 GLC5        0.0000 
     34 CA          2.0700   47.9750   40.3430 C.3      12 GLL5        0.0000 
     35 CA          0.1905   48.9785   40.1870 C.3       4 GLC5        0.0000 
     36 CA         -1.6890   49.9820   40.0310 C.3       8 GLP5        0.0000 
     37 N           0.4085   45.2825   37.2180 N.am      2 SEC2        0.0000 
     38 N           0.4030   46.9810   37.3410 N.am     10 SEL2        0.0000 
     39 N           0.4140   43.5840   37.0950 N.am      6 SEP2        0.0000 
     40 N          -0.2300   46.1640   35.9505 N.am      2 SEC2        0.0000 
     41 N          -0.8630   45.3470   34.5600 N.am      6 SEP2        0.0000 
     42 CA         -2.6130   44.1225   38.6050 C.3       4 GLC5        0.0000 
     43 CA         -1.7430   45.9540   38.1940 C.3      12 GLL5        0.0000 
     44 CA         -3.4830   42.2910   39.0160 C.3       8 GLP5        0.0000 
     45 CA         -3.7855   46.4970   38.8545 C.3       4 GLC5        0.0000 
     46 CA         -5.8280   47.0400   39.5150 C.3       8 GLP5        0.0000 
     47 CA         -3.0830   47.2040   37.2900 C.3       4 GLC5        0.0000 
     48 CA         -4.4230   48.4540   36.3860 C.3       8 GLP5        0.0000 
     49 O          -3.2620   44.4620   37.0330 O.2       1 ALC1        0.0000 
     50 O          -2.3640   45.6010   37.0980 O.2       9 ALL1        0.0000 
     51 O          -4.1600   43.3230   36.9680 O.2       5 ALP1        0.0000 
     52 N          -3.6780   44.8500   39.6070 N.am      2 SEC2        0.0000 
     53 N          -2.3850   45.6560   39.3950 N.am     10 SEL2        0.0000 
     54 N          -4.9710   44.0440   39.8190 N.am      6 SEP2        0.0000 
     55 CA         -3.0610   47.3165   41.5790 C.3       4 GLC5        0.0000 
     56 CA         -1.8330   45.9850   40.5880 C.3      12 GLL5        0.0000 
     57 CA         -4.2890   48.6480   42.5700 C.3       8 GLP5        0.0000 
     58 CA         -0.8020   45.1395   41.9950 C.3       4 GLC5        0.0000 
     59 CA          0.2290   44.2940   43.4020 C.3       8 GLP5        0.0000 
     60 CA         -2.6580   44.1380   39.8020 C.3       4 GLC5        0.0000 
     61 CA         -3.8305   46.5125   40.0515 C.3       4 GLC5        0.0000 
     62 CA         -1.7610   47.9835   40.3095 C.3       4 GLC5        0.0000 
     63 N           7.9220   55.5840   40.7000 N.am      2 SEC2        0.0000 
     64 N           6.6640   55.6820   41.2540 N.am     10 SEL2        0.0000 
     65 N           9.1800   55.4860   40.1460 N.am      6 SEP2        0.0000 
     66 N           5.8905   54.3155   44.2555 N.am      2 SEC2        0.0000 
     67 N           5.5290   54.1650   42.9380 N.am     10 SEL2        0.0000 
     68 N           6.2520   54.4660   45.5730 N.am      6 SEP2        0.0000 
     69 CA          3.8280   55.7770   43.7330 C.3       4 GLC5        0.0000 
     70 CA          3.1000   55.2370   41.9190 C.3      12 GLL5        0.0000 
     71 CA          4.5560   56.3170   45.5470 C.3       8 GLP5        0.0000 
     72 CA          1.9795   58.0090   42.5070 C.3       4 GLC5        0.0000 
     73 CA          1.9950   56.1890   41.4000 C.3      12 GLL5        0.0000 
     74 CA          1.9640   59.8290   43.6140 C.3       8 GLP5        0.0000 
     75 N          -0.5830   56.3840   38.7760 N.am      2 SEC2        0.0000 
     76 N           0.2380   55.9550   39.7550 N.am     10 SEL2        0.0000 
     77 N          -1.4040   56.8130   37.7970 N.am      6 SEP2        0.0000 
     78 O           0.1375   57.2485   40.7045 O.2       1 ALC1        0.0000 
     79 O           0.2380   55.9550   39.7550 O.2       9 ALL1        0.0000 
     80 O           0.0370   58.5420   41.6540 O.2       5 ALP1        0.0000 
     81 CA          2.7465   57.1855   36.9280 C.3       4 GLC5        0.0000 
     82 CA          2.3180   56.8380   39.1070 C.3      12 GLL5        0.0000 
     83 CA          3.1750   57.5330   34.7490 C.3       8 GLP5        0.0000 
     84 CA          0.5355   57.4015   37.9465 C.3       4 GLC5        0.0000 
     85 CA         -1.2470   57.9650   36.7860 C.3       8 GLP5        0.0000 
     86 N           0.1255   56.9290   37.8295 N.am      2 SEC2        0.0000 
     87 N           1.6550   57.0450   37.8620 N.am     10 SEL2        0.0000 
     88 O           2.4985   57.4285   36.9675 O.2       1 ALC1        0.0000 
     89 O           1.6550   57.0450   37.8620 O.2       9 ALL1        0.0000 
     90 O           3.3420   57.8120   36.0730 O.2       5 ALP1        0.0000 
     91 CA          0.5990   58.0805   41.2105 C.3       4 GLC5        0.0000 
     92 CA          2.2830   58.0410   40.0480 C.3      12 GLL5        0.0000 
     93 CA         -1.0850   58.1200   42.3730 C.3       8 GLP5        0.0000 
     94 CA          2.7340   59.1445   41.5470 C.3       4 GLC5        0.0000 
     95 CA          3.1850   60.2480   43.0460 C.3       8 GLP5        0.0000 
     96 CA          6.1310   60.6440   41.7500 C.3       4 GLC5        0.0000 
     97 CA          5.6220   59.6730   39.8860 C.3      12 GLL5        0.0000 
     98 CA          6.6400   61.6150   43.6140 C.3       8 GLP5        0.0000 
     99 N           8.3705   61.5915   41.2820 N.am      2 SEC2        0.0000 
    100 N           7.7610   60.7660   40.3690 N.am     10 SEL2        0.0000 
    101 N           8.9800   62.4170   42.1950 N.am      6 SEP2        0.0000 
    102 CA          1.2300   50.8222   40.5852 C.3       4 GLC5        0.0000 
    103 CA         -0.8010   51.1550   40.2870 C.3       8 GLP5        0.0000 
    104 CA          4.7165   49.5595   42.7982 C.3       4 GLC5        0.0000 
    105 CA          5.8350   49.8280   44.4420 C.3       8 GLP5        0.0000 
    106 CA         -1.1185   48.2745   39.4455 C.3       4 GLC5        0.0000 
    107 CA          0.0250   46.8750   39.4920 C.3      12 GLL5        0.0000 
    108 CA          1.1818   54.7810   42.8932 C.3       4 GLC5        0.0000 
    109 CA         -0.1840   53.8490   44.1270 C.3       8 GLP5        0.0000 
    110 CA          0.3600   57.0630   41.5288 C.3       4 GLC5        0.0000 
    111 CA          2.3693   54.9348   38.5375 C.3       4 GLC5        0.0000 
    112 CA          1.6150   55.8230   39.9690 C.3      12 GLL5        0.0000 
    113 CA          5.1560   62.6222   39.5185 C.3       4 GLC5        0.0000 
    114 CA          3.9580   61.1400   38.9500 C.3      12 GLL5        0.0000 
    115 CA          5.6970   64.2380   39.9210 C.3       8 GLP5        0.0000 
    116 CA          2.1395   61.4973   38.4917 C.3       4 GLC5        0.0000 
    117 CA          0.8040   62.3350   37.8930 C.3       8 GLP5        0.0000 
@<TRIPOS>BOND
@<TRIPOS>SUBSTRUCTURE
     1 ALC1       21 GROUP        1 X    ALC  0     ROOT ALC X 1
     2 SEC2        1 GROUP        1 X    SEC  0     **** SEC X 2
     3 LYC4        4 GROUP        1 X    LYC  0     **** LYC X 4
     4 GLC5       12 GROUP        1 X    GLC  0     **** GLC X 6
     5 ALP1       23 GROUP        1 Y    ALP  0     ROOT ALP Y 8
     6 SEP2        3 GROUP        1 Y    SEP  0     **** SEP Y 9
     7 LYP4        6 GROUP        1 Y    LYP  0     **** LYP Y 11
     8 GLP5       14 GROUP        1 Y    GLP  0     **** GLP Y 13
     9 ALL1       22 GROUP        1 Z    ALL  0     ROOT ALL Z 15
    10 SEL2        2 GROUP        1 Z    SEL  0     **** SEL Z 16
    11 LYL4        5 GROUP        1 Z    LYL  0     **** LYL Z 18
    12 GLL5       13 GROUP        1 Z    GLL  0     **** GLL Z 20
@<TRIPOS>SET

