#    Name: 2q1t_NAD_1_ligand
#    Modification time : Mon Mar 24 20:26:26 2014

@<TRIPOS>MOLECULE
2q1t_NAD_1_ligand
   69    73     1     0     0
SMALL
NO_CHARGES


@<TRIPOS>ATOM
      1 PA          5.9490   51.9750   40.6880 P.3       1 NAD358      0.0000 
      2 O1A         6.1690   51.3090   39.3950 O.co2     1 NAD358      0.0000 
      3 O2A         7.0300   51.7010   41.6910 O.co2     1 NAD358      0.0000 
      4 O5B         4.5780   51.5450   41.3290 O.3       1 NAD358      0.0000 
      5 C5B         3.4750   51.1340   40.5740 C.3       1 NAD358      0.0000 
      6 C4B         3.0470   49.8450   41.1930 C.3       1 NAD358      0.0000 
      7 O4B         1.9270   49.3830   40.4800 O.3       1 NAD358      0.0000 
      8 C3B         4.1490   48.7370   41.1160 C.3       1 NAD358      0.0000 
      9 O3B         4.3100   48.1270   42.4010 O.3       1 NAD358      0.0000 
     10 C2B         3.5540   47.7330   40.1270 C.3       1 NAD358      0.0000 
     11 O2B         3.9080   46.3510   40.2500 O.3       1 NAD358      0.0000 
     12 C1B         2.0700   47.9750   40.3430 C.3       1 NAD358      0.0000 
     13 N9A         1.2130   47.4900   39.2730 N.pl3     1 NAD358      0.0000 
     14 C8A         1.4510   47.5640   37.9170 C.2       1 NAD358      0.0000 
     15 N7A         0.4030   46.9810   37.3410 N.2       1 NAD358      0.0000 
     16 C5A        -0.4990   46.5640   38.2620 C.ar      1 NAD358      0.0000 
     17 C6A        -1.7430   45.9540   38.1940 C.ar      1 NAD358      0.0000 
     18 N6A        -2.3640   45.6010   37.0980 N.pl3     1 NAD358      0.0000 
     19 N1A        -2.3850   45.6560   39.3950 N.ar      1 NAD358      0.0000 
     20 C2A        -1.8330   45.9850   40.5880 C.ar      1 NAD358      0.0000 
     21 N3A        -0.6100   46.6000   40.6760 N.ar      1 NAD358      0.0000 
     22 C4A         0.0250   46.8750   39.4920 C.ar      1 NAD358      0.0000 
     23 O3          6.0050   53.5640   40.4710 O.3       1 NAD358      0.0000 
     24 PN          5.6830   54.6980   41.5690 P.3       1 NAD358      0.0000 
     25 O1N         6.6640   55.6820   41.2540 O.co2     1 NAD358      0.0000 
     26 O2N         5.5290   54.1650   42.9380 O.co2     1 NAD358      0.0000 
     27 O5D         4.2520   55.3060   41.0650 O.3       1 NAD358      0.0000 
     28 C5D         3.1000   55.2370   41.9190 C.3       1 NAD358      0.0000 
     29 C4D         1.9950   56.1890   41.4000 C.3       1 NAD358      0.0000 
     30 O4D         2.4560   57.5310   41.3600 O.3       1 NAD358      0.0000 
     31 C3D         1.6150   55.8230   39.9690 C.3       1 NAD358      0.0000 
     32 O3D         0.2380   55.9550   39.7550 O.3       1 NAD358      0.0000 
     33 C2D         2.3180   56.8380   39.1070 C.3       1 NAD358      0.0000 
     34 O2D         1.6550   57.0450   37.8620 O.3       1 NAD358      0.0000 
     35 C1D         2.2830   58.0410   40.0480 C.3       1 NAD358      0.0000 
     36 N1N         3.3570   58.9790   39.7940 N.pl3     1 NAD358      0.0000 
     37 C2N         4.6570   58.7040   40.1420 C.ar      1 NAD358      0.0000 
     38 C3N         5.6220   59.6730   39.8860 C.ar      1 NAD358      0.0000 
     39 C7N         6.9930   59.5940   40.4750 C.2       1 NAD358      0.0000 
     40 O7N         7.7610   60.7660   40.3690 O.2       1 NAD358      0.0000 
     41 N7N         7.4270   58.4510   41.0290 N.am      1 NAD358      0.0000 
     42 C4N         5.2720   60.8730   39.2820 C.ar      1 NAD358      0.0000 
     43 C5N         3.9580   61.1400   38.9500 C.ar      1 NAD358      0.0000 
     44 C6N         2.9920   60.1790   39.2310 C.ar      1 NAD358      0.0000 
     45 H           3.7282   50.9516   39.5359 H         1 NAD358      0.0000 
     46 H           2.6501   51.8350   40.6300 H         1 NAD358      0.0000 
     47 H           2.8123   49.9978   42.2295 H         1 NAD358      0.0000 
     48 H           5.0086   49.1572   40.7126 H         1 NAD358      0.0000 
     49 H           3.7625   48.1352   39.1231 H         1 NAD358      0.0000 
     50 H           1.8012   47.4988   41.2896 H         1 NAD358      0.0000 
     51 H           2.2101   47.9539   37.5107 H         1 NAD358      0.0000 
     52 H          -2.3509   45.7658   41.4753 H         1 NAD358      0.0000 
     53 H           3.3344   55.5376   42.9452 H         1 NAD358      0.0000 
     54 H           2.6746   54.2288   41.9494 H         1 NAD358      0.0000 
     55 H           1.1294   56.0809   42.0156 H         1 NAD358      0.0000 
     56 H           1.9990   54.8650   39.7458 H         1 NAD358      0.0000 
     57 H           3.3380   56.5327   39.0203 H         1 NAD358      0.0000 
     58 H           1.3256   58.5132   39.9528 H         1 NAD358      0.0000 
     59 H           4.9152   57.8200   40.5747 H         1 NAD358      0.0000 
     60 H           8.3420   58.4769   41.4317 H         1 NAD358      0.0000 
     61 H           6.7966   57.6757   40.9895 H         1 NAD358      0.0000 
     62 H           6.0067   61.5741   39.0793 H         1 NAD358      0.0000 
     63 H           3.6969   62.0213   38.5082 H         1 NAD358      0.0000 
     64 H           2.0028   60.3741   39.0139 H         1 NAD358      0.0000 
     65 H           3.3961   47.8082   42.6524 H         1 NAD358      0.0000 
     66 H           3.9393   46.1786   41.2345 H         1 NAD358      0.0000 
     67 H          -2.9373   44.8259   37.3637 H         1 NAD358      0.0000 
     68 H          -0.0309   56.7572   40.2880 H         1 NAD358      0.0000 
     69 H           2.3282   56.7957   37.1658 H         1 NAD358      0.0000 
@<TRIPOS>BOND
     1    2    1 ar   
     2    3    1 ar   
     3    4    1 1    
     4   23    1 1    
     5    5    4 1    
     6    6    5 1    
     7   45    5 1    
     8   46    5 1    
     9    7    6 1    
    10    8    6 1    
    11   47    6 1    
    12   12    7 1    
    13    9    8 1    
    14   10    8 1    
    15   48    8 1    
    16   65    9 1    
    17   11   10 1    
    18   12   10 1    
    19   49   10 1    
    20   66   11 1    
    21   13   12 1    
    22   50   12 1    
    23   14   13 1    
    24   22   13 1    
    25   15   14 2    
    26   51   14 1    
    27   16   15 1    
    28   17   16 ar   
    29   22   16 ar   
    30   18   17 1    
    31   19   17 ar   
    32   67   18 1    
    33   20   19 ar   
    34   21   20 ar   
    35   52   20 1    
    36   22   21 ar   
    37   24   23 1    
    38   25   24 ar   
    39   26   24 ar   
    40   27   24 1    
    41   28   27 1    
    42   29   28 1    
    43   53   28 1    
    44   54   28 1    
    45   30   29 1    
    46   31   29 1    
    47   55   29 1    
    48   35   30 1    
    49   32   31 1    
    50   33   31 1    
    51   56   31 1    
    52   68   32 1    
    53   34   33 1    
    54   35   33 1    
    55   57   33 1    
    56   69   34 1    
    57   36   35 1    
    58   58   35 1    
    59   37   36 ar   
    60   44   36 ar   
    61   38   37 ar   
    62   59   37 1    
    63   39   38 1    
    64   42   38 ar   
    65   40   39 2    
    66   41   39 am   
    67   60   41 1    
    68   61   41 1    
    69   43   42 ar   
    70   62   42 1    
    71   44   43 ar   
    72   63   43 1    
    73   64   44 1    
@<TRIPOS>SUBSTRUCTURE
     1 NAD358      1 GROUP   
@<TRIPOS>SET

