#    Name: 4dtf_ANP_1_INTS_M
#    Modification time : Tue Mar 25 10:11:59 2014

@<TRIPOS>MOLECULE
4dtf_ANP_1_INTS_M
   54     0    12     0     0
SMALL
NO_CHARGES


@<TRIPOS>ATOM
      1 Zn         36.7685   88.3205    4.9320 Zn        3 ZIC7        0.0000 
      2 Zn         36.8410   87.2600    5.1660 Zn       11 ZIL7        0.0000 
      3 Zn         36.6960   89.3810    4.6980 Zn        7 ZIP7        0.0000 
      4 CA         34.9595   87.4035   10.0450 C.3       4 GLC5        0.0000 
      5 CA         33.7330   88.3590    8.9480 C.3      12 GLL5        0.0000 
      6 CA         36.1860   86.4480   11.1420 C.3       8 GLP5        0.0000 
      7 CA         31.6935   90.8980    9.6460 C.3       4 GLC5        0.0000 
      8 CA         33.3600   89.7730    9.2950 C.3      12 GLL5        0.0000 
      9 CA         30.0270   92.0230    9.9970 C.3       8 GLP5        0.0000 
     10 CA         34.9270   91.6970    8.2160 C.3       4 GLC5        0.0000 
     11 CA         34.4980   90.6060    9.8840 C.3      12 GLL5        0.0000 
     12 CA         35.3560   92.7880    6.5480 C.3       8 GLP5        0.0000 
     13 O          36.3450   91.0800   12.4965 O.2       1 ALC1        0.0000 
     14 O          35.0870   91.0530   12.2440 O.2       9 ALL1        0.0000 
     15 O          37.6030   91.1070   12.7490 O.2       5 ALP1        0.0000 
     16 CA         31.5075   91.0440   10.7900 C.3       4 GLC5        0.0000 
     17 CA         32.9880   90.0650   11.5830 C.3      12 GLL5        0.0000 
     18 CA         33.0245   88.6025   15.4135 C.3       4 GLC5        0.0000 
     19 CA         31.6200   88.2630   14.4050 C.3      12 GLL5        0.0000 
     20 CA         34.4290   88.9420   16.4220 C.3       8 GLP5        0.0000 
     21 CA         30.1695   89.7510   17.0115 C.3       4 GLC5        0.0000 
     22 CA         30.7500   88.2880   15.5160 C.3      12 GLL5        0.0000 
     23 CA         29.5890   91.2140   18.5070 C.3       8 GLP5        0.0000 
     24 CA         32.2410   89.2835   15.9865 C.3       4 GLC5        0.0000 
     25 CA         33.7320   90.2790   16.4570 C.3       8 GLP5        0.0000 
     26 O          29.5265   87.1370   17.5010 O.2       1 ALC1        0.0000 
     27 O          30.5910   87.2610   16.3590 O.2       9 ALL1        0.0000 
     28 O          28.4620   87.0130   18.6430 O.2       5 ALP1        0.0000 
     29 N          29.4110   89.8715   16.7515 N.am      2 SEC2        0.0000 
     30 N          30.0470   89.4210   15.7390 N.am     10 SEL2        0.0000 
     31 N          28.7750   90.3220   17.7640 N.am      6 SEP2        0.0000 
     32 CA         29.9020   90.8370   16.7090 C.3       4 GLC5        0.0000 
     33 CA         30.2150   90.4600   14.9110 C.3      12 GLL5        0.0000 
     34 CA         30.4630   92.4345   15.2805 C.3       4 GLC5        0.0000 
     35 CA         30.7110   94.4090   15.6500 C.3       8 GLP5        0.0000 
     36 CA         31.9735   90.3695   15.6840 C.3       4 GLC5        0.0000 
     37 CA         28.0880   90.4160   15.1480 C.3       4 GLC5        0.0000 
     38 CA         25.9610   90.3720   15.3850 C.3       8 GLP5        0.0000 
     39 CA         29.5030   89.1015   13.7890 C.3       4 GLC5        0.0000 
     40 CA         28.7910   87.7430   12.6670 C.3       8 GLP5        0.0000 
     41 CA         32.7100   89.8480   15.0505 C.3       4 GLC5        0.0000 
     42 CA         31.6880   89.4170   13.6440 C.3      12 GLL5        0.0000 
     43 CA         30.4420   90.0975   11.9755 C.3       4 GLC5        0.0000 
     44 CA         29.1960   90.7780   10.3070 C.3       8 GLP5        0.0000 
     45 CA         32.1232   87.7350    9.4608 C.3       4 GLC5        0.0000 
     46 CA         30.7000   86.4040    9.8000 C.3       8 GLP5        0.0000 
     47 CA         35.8123   88.9112   10.8552 C.3       4 GLC5        0.0000 
     48 CA         37.1300   87.4490   11.1000 C.3       8 GLP5        0.0000 
     49 CA         36.1988   90.3558    9.7192 C.3       4 GLC5        0.0000 
     50 CA         34.4910   90.1410   11.3370 C.3      12 GLL5        0.0000 
     51 CA         37.9030   90.3380    8.8280 C.3       8 GLP5        0.0000 
     52 CA         33.6067   91.8255   12.3200 C.3       4 GLC5        0.0000 
     53 CA         33.4740   93.5480   13.1800 C.3       8 GLP5        0.0000 
     54 CA         30.1137   88.2946   13.4846 C.3       4 GLC5        0.0000 
@<TRIPOS>BOND
@<TRIPOS>SUBSTRUCTURE
     1 ALC1       13 GROUP        1 X    ALC  0     ROOT ALC X 1
     2 SEC2       29 GROUP        1 X    SEC  0     **** SEC X 2
     3 ZIC7        1 GROUP        1 X    ZIC  0     **** ZIC X 5
     4 GLC5        4 GROUP        1 X    GLC  0     **** GLC X 6
     5 ALP1       15 GROUP        1 Y    ALP  0     ROOT ALP Y 8
     6 SEP2       31 GROUP        1 Y    SEP  0     **** SEP Y 9
     7 ZIP7        3 GROUP        1 Y    ZIP  0     **** ZIP Y 12
     8 GLP5        6 GROUP        1 Y    GLP  0     **** GLP Y 13
     9 ALL1       14 GROUP        1 Z    ALL  0     ROOT ALL Z 15
    10 SEL2       30 GROUP        1 Z    SEL  0     **** SEL Z 16
    11 ZIL7        2 GROUP        1 Z    ZIL  0     **** ZIL Z 19
    12 GLL5        5 GROUP        1 Z    GLL  0     **** GLL Z 20
@<TRIPOS>SET

