#    Name: 4dtf_ANP_1_ligand
#    Modification time : Tue Mar 25 10:11:59 2014

@<TRIPOS>MOLECULE
4dtf_ANP_1_ligand
   43    45     1     0     0
SMALL
NO_CHARGES


@<TRIPOS>ATOM
      1 PG         35.5670   87.3480    1.9140 P.3       1 ANP401      0.0000 
      2 O1G        36.1830   88.6740    1.5890 O.co2     1 ANP401      0.0000 
      3 O2G        34.3690   87.0450    1.0620 O.co2     1 ANP401      0.0000 
      4 O3G        36.5380   86.2240    1.7160 O.co2     1 ANP401      0.0000 
      5 PB         35.6210   86.5750    4.6300 P.3       1 ANP401      0.0000 
      6 O1B        35.9620   85.1950    4.1960 O.co2     1 ANP401      0.0000 
      7 O2B        36.8410   87.2600    5.1660 O.co2     1 ANP401      0.0000 
      8 N3B        35.1050   87.3490    3.4520 N.4       1 ANP401      0.0000 
      9 PA         34.6500   86.7640    7.2580 P.3       1 ANP401      0.0000 
     10 O1A        33.9350   85.7150    8.0260 O.co2     1 ANP401      0.0000 
     11 O2A        36.1250   86.7600    7.6440 O.co2     1 ANP401      0.0000 
     12 O3A        34.5140   86.5030    5.7890 O.3       1 ANP401      0.0000 
     13 O5'        34.0420   88.2150    7.5650 O.3       1 ANP401      0.0000 
     14 C5'        33.7330   88.3590    8.9480 C.3       1 ANP401      0.0000 
     15 C4'        33.3600   89.7730    9.2950 C.3       1 ANP401      0.0000 
     16 O4'        32.3950   89.6730   10.3610 O.3       1 ANP401      0.0000 
     17 C3'        34.4980   90.6060    9.8840 C.3       1 ANP401      0.0000 
     18 O3'        34.2300   92.0000    9.7690 O.3       1 ANP401      0.0000 
     19 C2'        34.4910   90.1410   11.3370 C.3       1 ANP401      0.0000 
     20 O2'        35.0870   91.0530   12.2440 O.3       1 ANP401      0.0000 
     21 C1'        32.9880   90.0650   11.5830 C.3       1 ANP401      0.0000 
     22 N9         32.5650   89.1410   12.6210 N.pl3     1 ANP401      0.0000 
     23 C8         32.9570   87.8390   12.8160 C.2       1 ANP401      0.0000 
     24 N7         32.4330   87.2770   13.8720 N.2       1 ANP401      0.0000 
     25 C5         31.6200   88.2630   14.4050 C.ar      1 ANP401      0.0000 
     26 C6         30.7500   88.2880   15.5160 C.ar      1 ANP401      0.0000 
     27 N6         30.5910   87.2610   16.3590 N.pl3     1 ANP401      0.0000 
     28 N1         30.0470   89.4210   15.7390 N.ar      1 ANP401      0.0000 
     29 C2         30.2150   90.4600   14.9110 C.ar      1 ANP401      0.0000 
     30 N3         31.0120   90.5580   13.8430 N.ar      1 ANP401      0.0000 
     31 C4         31.6880   89.4170   13.6440 C.ar      1 ANP401      0.0000 
     32 H          34.5919   88.0647    9.5832 H         1 ANP401      0.0000 
     33 H          32.8918   87.7001    9.2414 H         1 ANP401      0.0000 
     34 H          32.9408   90.2711    8.4659 H         1 ANP401      0.0000 
     35 H          35.3999   90.2894    9.4383 H         1 ANP401      0.0000 
     36 H          34.8672   89.1555   11.3740 H         1 ANP401      0.0000 
     37 H          32.6497   91.0804   11.8274 H         1 ANP401      0.0000 
     38 H          33.5941   87.3886   12.1803 H         1 ANP401      0.0000 
     39 H          31.1465   86.4502   16.1745 H         1 ANP401      0.0000 
     40 H          29.9309   87.3964   17.0979 H         1 ANP401      0.0000 
     41 H          29.6121   91.3578   15.1435 H         1 ANP401      0.0000 
     42 H          34.4020   92.3726   10.6809 H         1 ANP401      0.0000 
     43 H          36.0594   90.8199   12.2437 H         1 ANP401      0.0000 
@<TRIPOS>BOND
     1    2    1 ar   
     2    3    1 ar   
     3    4    1 ar   
     4    8    1 1    
     5    6    5 ar   
     6    7    5 ar   
     7    8    5 1    
     8   12    5 1    
     9   10    9 ar   
    10   11    9 ar   
    11   12    9 1    
    12   13    9 1    
    13   14   13 1    
    14   15   14 1    
    15   32   14 1    
    16   33   14 1    
    17   16   15 1    
    18   17   15 1    
    19   34   15 1    
    20   21   16 1    
    21   18   17 1    
    22   19   17 1    
    23   35   17 1    
    24   42   18 1    
    25   20   19 1    
    26   21   19 1    
    27   36   19 1    
    28   43   20 1    
    29   22   21 1    
    30   37   21 1    
    31   23   22 1    
    32   31   22 1    
    33   24   23 2    
    34   38   23 1    
    35   25   24 1    
    36   26   25 ar   
    37   31   25 ar   
    38   27   26 1    
    39   28   26 ar   
    40   39   27 1    
    41   40   27 1    
    42   29   28 ar   
    43   30   29 ar   
    44   41   29 1    
    45   31   30 ar   
@<TRIPOS>SUBSTRUCTURE
     1 ANP401      1 GROUP   
@<TRIPOS>SET

