#    Name: 2ONG_2_CAVITY_N1_ALL.mol2
#    Modification time : Tue Mar 11 03:18:14 2014

@<TRIPOS>MOLECULE
2ONG_2_CAVITY_N1_ALL.mol2
   67     0     7     0     0
SMALL
NO_CHARGES


@<TRIPOS>ATOM
      1 NZ        -23.1990   51.3872  -72.4135 N.2       4 LYS4        0.0000 
      2 CA        -19.3401   56.2500  -68.2050 C.3       6 GLY6        0.0000 
      3 CA        -20.6596   55.5459  -68.3200 C.3       6 GLY6        0.0000 
      4 N         -21.1938   56.6812  -69.1420 N.2       2 ALA2        0.0000 
      5 CA        -21.4448   53.7064  -67.6131 C.3       6 GLY6        0.0000 
      6 CA        -21.9790   54.8418  -68.4351 C.3       6 GLY6        0.0000 
      7 OG        -22.5132   55.9771  -69.2571 O.2       1 SER1        0.0000 
      8 OG        -23.0474   57.1124  -70.0791 O.2       1 SER1        0.0000 
      9 CA        -23.2985   54.1376  -68.5502 C.3       6 GLY6        0.0000 
     10 NZ        -23.8327   55.2729  -69.3722 N.2       4 LYS4        0.0000 
     11 OG        -24.3668   56.4083  -70.1942 O.2       1 SER1        0.0000 
     12 N         -19.7519   56.4789  -64.8841 N.2       2 ALA2        0.0000 
     13 CA        -20.2860   57.6142  -65.7061 C.3       6 GLY6        0.0000 
     14 CA        -20.8202   58.7495  -66.5281 C.3       6 GLY6        0.0000 
     15 CA        -21.0713   55.7747  -64.9992 C.3       6 GLY6        0.0000 
     16 CA        -21.6055   56.9101  -65.8212 C.3       6 GLY6        0.0000 
     17 CA        -22.1397   58.0454  -66.6432 C.3       6 GLY6        0.0000 
     18 OG        -22.3908   55.0706  -65.1142 O.2       1 SER1        0.0000 
     19 CA        -22.9250   56.2059  -65.9362 C.3       6 GLY6        0.0000 
     20 OG        -23.4591   57.3412  -66.7583 O.2       1 SER1        0.0000 
     21 OG        -24.7786   56.6371  -66.8733 O.2       1 SER1        0.0000 
     22 N         -23.1378   50.9340  -70.3421 N.2       2 ALA2        0.0000 
     23 NZ        -23.6720   52.0693  -71.1641 N.2       4 LYS4        0.0000 
     24 OD1       -24.2062   53.2046  -71.9861 O.3       3 ASP3        0.0000 
     25 OD1       -24.7404   54.3399  -72.8081 O.3       3 ASP3        0.0000 
     26 OD1       -25.2746   55.4753  -73.6301 O.3       3 ASP3        0.0000 
     27 OG        -25.8087   56.6106  -74.4521 O.2       1 SER1        0.0000 
     28 O         -24.9915   51.3652  -71.2792 O.2       2 ALA2        0.0000 
     29 N         -20.7590   58.2963  -64.4567 N.2       2 ALA2        0.0000 
     30 CA        -22.0785   57.5921  -64.5718 C.3       6 GLY6        0.0000 
     31 CZ        -22.6127   58.7275  -65.3938 C.ar      5 PHE5        0.0000 
     32 CA        -23.3979   56.8880  -64.6868 C.3       6 GLY6        0.0000 
     33 CZ        -23.9321   58.0233  -65.5088 C.ar      5 PHE5        0.0000 
     34 CA        -19.2789   55.7968  -66.1335 C.3       6 GLY6        0.0000 
     35 N         -19.8131   56.9321  -66.9555 N.2       2 ALA2        0.0000 
     36 N         -20.3473   58.0674  -67.7775 N.2       2 ALA2        0.0000 
     37 CA        -20.5984   55.0927  -66.2486 C.3       6 GLY6        0.0000 
     38 CA        -21.1325   56.2280  -67.0706 C.3       6 GLY6        0.0000 
     39 CA        -21.6667   57.3633  -67.8926 C.3       6 GLY6        0.0000 
     40 OG        -21.9178   54.3885  -66.3637 O.2       1 SER1        0.0000 
     41 N         -22.4520   55.5238  -67.1857 N.2       2 ALA2        0.0000 
     42 OG        -22.9862   56.6592  -68.0077 O.2       1 SER1        0.0000 
     43 OG        -24.3056   55.9550  -68.1227 O.2       1 SER1        0.0000 
     44 CA        -20.1866   54.8638  -69.5695 C.3       6 GLY6        0.0000 
     45 OG        -20.7208   55.9991  -70.3915 O.2       1 SER1        0.0000 
     46 CA        -21.5061   54.1597  -69.6845 C.3       6 GLY6        0.0000 
     47 O         -22.0402   55.2950  -70.5065 O.2       2 ALA2        0.0000 
     48 O         -22.5744   56.4303  -71.3285 O.2       2 ALA2        0.0000 
     49 O         -23.1086   57.5656  -72.1505 O.2       2 ALA2        0.0000 
     50 OG        -22.2913   52.3202  -68.9776 O.2       1 SER1        0.0000 
     51 CA        -22.8255   53.4555  -69.7996 C.3       6 GLY6        0.0000 
     52 DU        -23.3597   54.5909  -70.6216 H         7 CUB7        0.0000 
     53 NZ        -23.8939   55.7262  -71.4436 N.2       4 LYS4        0.0000 
     54 NZ        -24.4281   56.8615  -72.2656 N.2       4 LYS4        0.0000 
     55 N         -24.9623   57.9968  -73.0876 N.2       2 ALA2        0.0000 
     56 CA        -23.6108   51.6161  -69.0927 C.3       6 GLY6        0.0000 
     57 CA        -24.1450   52.7514  -69.9147 C.3       6 GLY6        0.0000 
     58 NZ        -24.6792   53.8867  -70.7367 N.2       4 LYS4        0.0000 
     59 NZ        -25.2133   55.0220  -71.5587 N.2       4 LYS4        0.0000 
     60 NZ        -25.7475   56.1574  -72.3807 N.2       4 LYS4        0.0000 
     61 NZ        -21.0331   53.4776  -70.9340 N.2       4 LYS4        0.0000 
     62 O         -21.5673   54.6129  -71.7560 O.2       2 ALA2        0.0000 
     63 OG        -21.8184   51.6381  -70.2270 O.2       1 SER1        0.0000 
     64 NZ        -22.3526   52.7734  -71.0490 N.2       4 LYS4        0.0000 
     65 NZ        -22.8867   53.9088  -71.8710 N.2       4 LYS4        0.0000 
     66 O         -23.4209   55.0441  -72.6930 O.2       2 ALA2        0.0000 
     67 O         -23.9551   56.1794  -73.5150 O.2       2 ALA2        0.0000 
@<TRIPOS>BOND
@<TRIPOS>SUBSTRUCTURE
     1 SER1        7 GROUP   
     2 ALA2        4 GROUP   
     3 ASP3       24 GROUP   
     4 LYS4        1 GROUP   
     5 PHE5       31 GROUP   
     6 GLY6        2 GROUP   
     7 CUB7       52 GROUP   
@<TRIPOS>SET

