#    Name: 2ong_FPG_2_INTS_M
#    Modification time : Tue Mar 25 23:02:13 2014

@<TRIPOS>MOLECULE
2ong_FPG_2_INTS_M
   61     0    12     0     0
SMALL
NO_CHARGES


@<TRIPOS>ATOM
      1 CA        -22.8290   59.6860  -66.5535 C.3       4 GLC5        0.0000 
      2 CA        -21.7660   58.4520  -67.3460 C.3      12 GLL5        0.0000 
      3 CA        -23.8920   60.9200  -65.7610 C.3       8 GLP5        0.0000 
      4 CA        -24.4585   55.0535  -66.7270 C.3       4 GLC5        0.0000 
      5 CA        -23.1220   56.7090  -66.2460 C.3      12 GLL5        0.0000 
      6 CA        -25.7950   53.3980  -67.2080 C.3       8 GLP5        0.0000 
      7 CA        -22.3880   56.1850  -64.4020 C.3       4 GLC5        0.0000 
      8 CA        -21.6540   55.6610  -62.5580 C.3       8 GLP5        0.0000 
      9 CA        -24.9890   56.6915  -65.3400 C.3       4 GLC5        0.0000 
     10 CA        -26.8560   56.6740  -64.4340 C.3       8 GLP5        0.0000 
     11 CA        -19.0380   56.9420  -71.1085 C.3       4 GLC5        0.0000 
     12 CA        -21.0060   56.9060  -71.1070 C.3      12 GLL5        0.0000 
     13 CA        -17.0700   56.9780  -71.1100 C.3       8 GLP5        0.0000 
     14 CA        -21.4140   58.4805  -70.2345 C.3       4 GLC5        0.0000 
     15 CA        -21.8220   60.0550  -69.3620 C.3       8 GLP5        0.0000 
     16 CA        -25.2735   57.7140  -69.5915 C.3       4 GLC5        0.0000 
     17 CA        -23.6120   56.8440  -70.3570 C.3      12 GLL5        0.0000 
     18 CA        -26.9350   58.5840  -68.8260 C.3       8 GLP5        0.0000 
     19 CA        -23.0125   58.5995  -70.4510 C.3       4 GLC5        0.0000 
     20 CA        -22.4130   60.3550  -70.5450 C.3       8 GLP5        0.0000 
     21 CA        -19.8215   53.9980  -69.4485 C.3       4 GLC5        0.0000 
     22 CA        -20.8320   54.4800  -71.1360 C.3      12 GLL5        0.0000 
     23 CA        -18.8110   53.5160  -67.7610 C.3       8 GLP5        0.0000 
     24 CA        -19.9355   53.1100  -71.6995 C.3       4 GLC5        0.0000 
     25 CA        -19.0390   51.7400  -72.2630 C.3       8 GLP5        0.0000 
     26 Zn        -26.5650   54.1750  -73.1560 Zn        3 ZIC7        0.0000 
     27 Zn        -25.6870   54.5280  -73.3100 Zn       11 ZIL7        0.0000 
     28 Zn        -27.4430   53.8220  -73.0020 Zn        7 ZIP7        0.0000 
     29 Zn        -23.0685   52.9630  -74.2085 Zn        3 ZIC7        0.0000 
     30 Zn        -23.3180   53.5620  -73.5130 Zn       11 ZIL7        0.0000 
     31 Zn        -22.8190   52.3640  -74.9040 Zn        7 ZIP7        0.0000 
     32 Zn        -23.6140   50.1220  -73.4490 Zn        3 ZIC7        0.0000 
     33 Zn        -24.1770   51.1430  -73.2760 Zn       11 ZIL7        0.0000 
     34 Zn        -23.0510   49.1010  -73.6220 Zn        7 ZIP7        0.0000 
     35 Zn        -23.4980   51.7535  -74.0900 Zn        3 ZIC7        0.0000 
     36 NZ        -25.8670   49.8360  -69.9310 N.4       2 LYC4        0.0000 
     37 NZ        -24.6290   50.4730  -70.8370 N.4      10 LYL4        0.0000 
     38 NZ        -28.1960   49.9370  -69.1870 N.4       6 LYP4        0.0000 
     39 N         -25.8670   49.8360  -69.9310 N.am      1 SEC2        0.0000 
     40 N         -24.6290   50.4730  -70.8370 N.am      9 SEL2        0.0000 
     41 N         -27.1050   49.1990  -69.0250 N.am      5 SEP2        0.0000 
     42 NZ        -27.4215   51.0475  -71.2625 N.4       2 LYC4        0.0000 
     43 NZ        -26.5530   51.3140  -72.3130 N.4      10 LYL4        0.0000 
     44 NZ        -27.2895   50.3715  -73.5165 N.4       2 LYC4        0.0000 
     45 NZ        -28.0260   49.4290  -74.7200 N.4       6 LYP4        0.0000 
     46 Zn        -26.9980   52.5680  -72.6575 Zn        3 ZIC7        0.0000 
     47 Zn        -26.5530   51.3140  -72.3130 Zn       11 ZIL7        0.0000 
     48 N         -27.4215   51.0475  -71.2625 N.am      1 SEC2        0.0000 
     49 N         -26.5530   51.3140  -72.3130 N.am      9 SEL2        0.0000 
     50 N         -28.2900   50.7810  -70.2120 N.am      5 SEP2        0.0000 
     51 CA        -23.8813   58.5718  -66.3982 C.3       4 GLC5        0.0000 
     52 CA        -22.2630   57.1120  -67.3190 C.3      12 GLL5        0.0000 
     53 CA        -25.0700   60.2330  -66.0140 C.3       8 GLP5        0.0000 
     54 CA        -20.4958   54.4690  -68.0222 C.3       4 GLC5        0.0000 
     55 CA        -21.7700   56.0660  -68.3220 C.3      12 GLL5        0.0000 
     56 CA        -21.8571   58.4895  -68.5946 C.3       4 GLC5        0.0000 
     57 CA        -19.2363   55.2605  -71.0165 C.3       4 GLC5        0.0000 
     58 CA        -21.5730   55.5960  -70.9760 C.3      12 GLL5        0.0000 
     59 CA        -17.2700   55.4830  -70.9770 C.3       8 GLP5        0.0000 
     60 CA        -24.3690   54.0090  -68.0565 C.3       4 GLC5        0.0000 
     61 CA        -22.5910   54.7780  -68.2450 C.3      12 GLL5        0.0000 
@<TRIPOS>BOND
@<TRIPOS>SUBSTRUCTURE
     1 SEC2       39 GROUP        1 X    SEC  0     ROOT SEC X 2
     2 LYC4       36 GROUP        1 X    LYC  0     **** LYC X 4
     3 ZIC7       26 GROUP        1 X    ZIC  0     **** ZIC X 5
     4 GLC5        1 GROUP        1 X    GLC  0     **** GLC X 6
     5 SEP2       41 GROUP        1 Y    SEP  0     ROOT SEP Y 9
     6 LYP4       38 GROUP        1 Y    LYP  0     **** LYP Y 11
     7 ZIP7       28 GROUP        1 Y    ZIP  0     **** ZIP Y 12
     8 GLP5        3 GROUP        1 Y    GLP  0     **** GLP Y 13
     9 SEL2       40 GROUP        1 Z    SEL  0     ROOT SEL Z 16
    10 LYL4       37 GROUP        1 Z    LYL  0     **** LYL Z 18
    11 ZIL7       27 GROUP        1 Z    ZIL  0     **** ZIL Z 19
    12 GLL5        2 GROUP        1 Z    GLL  0     **** GLL Z 20
@<TRIPOS>SET

