#    Name: 2ong_FPG_2_ligand
#    Modification time : Tue Mar 25 23:02:13 2014

@<TRIPOS>MOLECULE
2ong_FPG_2_ligand
   40    39     1     0     0
SMALL
NO_CHARGES


@<TRIPOS>ATOM
      1 C9        -21.7660   58.4520  -67.3460 C.3       1 FPG1600     0.0000 
      2 C7        -22.2630   57.1120  -67.3190 C.3       1 FPG1600     0.0000 
      3 C6        -21.7700   56.0660  -68.3220 C.3       1 FPG1600     0.0000 
      4 C8        -23.1220   56.7090  -66.2460 C.3       1 FPG1600     0.0000 
      5 C2        -21.5730   55.5960  -70.9760 C.3       1 FPG1600     0.0000 
      6 C1        -21.0060   56.9060  -71.1070 C.3       1 FPG1600     0.0000 
      7 C10       -23.6120   56.8440  -70.3570 C.3       1 FPG1600     0.0000 
      8 C5        -22.5910   54.7780  -68.2450 C.3       1 FPG1600     0.0000 
      9 C4        -23.2950   54.4620  -69.5650 C.3       1 FPG1600     0.0000 
     10 F         -20.8320   54.4800  -71.1360 F         1 FPG1600     0.0000 
     11 C3        -22.9390   55.4960  -70.6900 C.3       1 FPG1600     0.0000 
     12 O1        -23.8450   55.4050  -71.7990 O.3       1 FPG1600     0.0000 
     13 PA        -24.3360   54.0740  -72.5680 P.3       1 FPG1600     0.0000 
     14 O1A       -25.6870   54.5280  -73.3100 O.co2     1 FPG1600     0.0000 
     15 O2A       -23.3180   53.5620  -73.5130 O.co2     1 FPG1600     0.0000 
     16 O3A       -24.7670   52.9530  -71.4990 O.3       1 FPG1600     0.0000 
     17 PB        -25.1130   51.4640  -72.0080 P.3       1 FPG1600     0.0000 
     18 O2B       -24.1770   51.1430  -73.2760 O.co2     1 FPG1600     0.0000 
     19 O3B       -24.6290   50.4730  -70.8370 O.co2     1 FPG1600     0.0000 
     20 O1B       -26.5530   51.3140  -72.3130 O.co2     1 FPG1600     0.0000 
     21 H         -23.3564   57.4340  -68.1460 H         1 FPG1600     0.0000 
     22 H         -20.7227   55.8369  -68.1144 H         1 FPG1600     0.0000 
     23 H         -21.8407   56.4768  -69.3313 H         1 FPG1600     0.0000 
     24 H         -21.2827   55.6191  -69.5633 H         1 FPG1600     0.0000 
     25 H         -23.3406   54.8778  -67.4540 H         1 FPG1600     0.0000 
     26 H         -21.9292   53.9465  -67.9838 H         1 FPG1600     0.0000 
     27 H         -24.3754   54.4770  -69.4191 H         1 FPG1600     0.0000 
     28 H         -23.0025   53.4700  -69.9102 H         1 FPG1600     0.0000 
     29 H         -20.7762   58.4839  -67.2071 H         1 FPG1600     0.0000 
     30 H         -21.9540   58.9003  -68.2199 H         1 FPG1600     0.0000 
     31 H         -22.1805   59.0163  -66.6320 H         1 FPG1600     0.0000 
     32 H         -22.6723   56.7969  -65.3572 H         1 FPG1600     0.0000 
     33 H         -23.9546   57.2617  -66.2092 H         1 FPG1600     0.0000 
     34 H         -23.4074   55.7549  -66.3370 H         1 FPG1600     0.0000 
     35 H         -20.2716   57.0606  -70.4461 H         1 FPG1600     0.0000 
     36 H         -20.6175   57.0533  -72.0166 H         1 FPG1600     0.0000 
     37 H         -21.6881   57.6223  -70.9601 H         1 FPG1600     0.0000 
     38 H         -23.1984   57.2779  -69.5566 H         1 FPG1600     0.0000 
     39 H         -23.5373   57.4934  -71.1138 H         1 FPG1600     0.0000 
     40 H         -24.5863   56.7341  -70.1602 H         1 FPG1600     0.0000 
@<TRIPOS>BOND
     1    2    1 1    
     2   29    1 1    
     3   30    1 1    
     4   31    1 1    
     5    3    2 1    
     6    4    2 1    
     7   21    2 1    
     8    8    3 1    
     9   22    3 1    
    10   23    3 1    
    11   32    4 1    
    12   33    4 1    
    13   34    4 1    
    14    6    5 1    
    15   10    5 1    
    16   11    5 1    
    17   24    5 1    
    18   35    6 1    
    19   36    6 1    
    20   37    6 1    
    21   11    7 1    
    22   38    7 1    
    23   39    7 1    
    24   40    7 1    
    25    9    8 1    
    26   25    8 1    
    27   26    8 1    
    28   11    9 1    
    29   27    9 1    
    30   28    9 1    
    31   12   11 1    
    32   13   12 1    
    33   14   13 ar   
    34   15   13 ar   
    35   16   13 1    
    36   17   16 1    
    37   18   17 ar   
    38   19   17 ar   
    39   20   17 ar   
@<TRIPOS>SUBSTRUCTURE
     1 FPG1600     1 GROUP   
@<TRIPOS>SET

