#    Name: 3gka_FMN_2_INTS_M
#    Modification time : Tue Mar 25 12:36:39 2014

@<TRIPOS>MOLECULE
3gka_FMN_2_INTS_M
   75     0    12     0     0
SMALL
NO_CHARGES


@<TRIPOS>ATOM
      1 N          -5.2250    5.5175   49.3260 N.am      2 SEC2        0.0000 
      2 N          -4.7410    6.9060   49.4950 N.am     10 SEL2        0.0000 
      3 N          -5.7090    4.1290   49.1570 N.am      6 SEP2        0.0000 
      4 O          -5.6055    5.5510   51.5440 O.2       1 ALC1        0.0000 
      5 O          -5.2730    6.9020   51.6930 O.2       9 ALL1        0.0000 
      6 O          -5.9380    4.2000   51.3950 O.2       5 ALP1        0.0000 
      7 N          -6.9920    7.8415   54.7435 N.am      2 SEC2        0.0000 
      8 N          -5.9230    7.0290   53.8550 N.am     10 SEL2        0.0000 
      9 N          -8.0610    8.6540   55.6320 N.am      6 SEP2        0.0000 
     10 N          -5.7560    7.1280   55.1515 N.am      2 SEC2        0.0000 
     11 N          -5.5890    7.2270   56.4480 N.am      6 SEP2        0.0000 
     12 N          -6.5575    5.6195   54.1430 N.am      2 SEC2        0.0000 
     13 N          -7.1920    4.2100   54.4310 N.am      6 SEP2        0.0000 
     14 N          -7.1395    9.1840   54.7325 N.am      2 SEC2        0.0000 
     15 N          -6.2180    9.7140   53.8330 N.am     10 SEL2        0.0000 
     16 CA         -6.2635    9.7220   55.4360 C.3       4 GLC5        0.0000 
     17 CA         -6.4010   11.0790   53.7400 C.3      12 GLL5        0.0000 
     18 CA         -6.1260    8.3650   57.1320 C.3       8 GLP5        0.0000 
     19 CA         -7.2255   10.0860   55.9305 C.3       4 GLC5        0.0000 
     20 CA         -6.7830   11.8070   54.8600 C.3      12 GLL5        0.0000 
     21 CA         -7.6680    8.3650   57.0010 C.3       8 GLP5        0.0000 
     22 CA         -9.4600   14.5100   55.4495 C.3       4 GLC5        0.0000 
     23 CA         -7.4660   13.9530   55.9530 C.3      12 GLL5        0.0000 
     24 CA        -11.4540   15.0670   54.9460 C.3       8 GLP5        0.0000 
     25 CA         -7.8770   15.7265   56.4405 C.3       4 GLC5        0.0000 
     26 CA         -8.2880   17.5000   56.9280 C.3       8 GLP5        0.0000 
     27 CA         -6.1675   13.7605   57.1665 C.3       4 GLC5        0.0000 
     28 CA         -4.8690   13.5680   58.3800 C.3       8 GLP5        0.0000 
     29 CA         -8.3045   16.5125   52.6035 C.3       4 GLC5        0.0000 
     30 CA         -7.0670   15.2930   53.4270 C.3      12 GLL5        0.0000 
     31 CA         -9.5420   17.7320   51.7800 C.3       8 GLP5        0.0000 
     32 CA         -7.8840   16.8225   54.6675 C.3       4 GLC5        0.0000 
     33 CA         -8.7010   18.3520   55.9080 C.3       8 GLP5        0.0000 
     34 CA         -8.5510   11.9375   50.9190 C.3       4 GLC5        0.0000 
     35 CA         -7.0970   11.7690   49.4400 C.3      12 GLL5        0.0000 
     36 CA        -10.0050   12.1060   52.3980 C.3       8 GLP5        0.0000 
     37 O          -7.9905    9.7770   50.2395 O.2       1 ALC1        0.0000 
     38 O          -7.5720   10.4690   49.1690 O.2       9 ALL1        0.0000 
     39 O          -8.4090    9.0850   51.3100 O.2       5 ALP1        0.0000 
     40 O          -6.6155   12.1230   45.9700 O.2       1 ALC1        0.0000 
     41 O          -6.1980   11.9300   47.2240 O.2       9 ALL1        0.0000 
     42 O          -7.0330   12.3160   44.7160 O.2       5 ALP1        0.0000 
     43 CA         -6.9270   15.4700   45.3750 C.3       4 GLC5        0.0000 
     44 CA         -6.8020   14.8830   47.1920 C.3      12 GLL5        0.0000 
     45 CA         -7.0520   16.0570   43.5580 C.3       8 GLP5        0.0000 
     46 N          -8.6820   13.8950   45.8570 N.am      2 SEC2        0.0000 
     47 N          -8.1730   14.8510   46.8630 N.am     10 SEL2        0.0000 
     48 N          -9.1910   12.9390   44.8510 N.am      6 SEP2        0.0000 
     49 NZ         -7.9900   17.9545   48.1555 N.4       3 LYC4        0.0000 
     50 NZ         -8.5410   17.3260   46.4840 N.4      11 LYL4        0.0000 
     51 NZ         -7.4390   18.5830   49.8270 N.4       7 LYP4        0.0000 
     52 N          -8.2700   17.7885   45.1845 N.am      2 SEC2        0.0000 
     53 N          -8.5410   17.3260   46.4840 N.am     10 SEL2        0.0000 
     54 N          -7.9990   18.2510   43.8850 N.am      6 SEP2        0.0000 
     55 NZ         -8.3010   17.4705   49.2475 N.4       3 LYC4        0.0000 
     56 NZ         -9.1630   16.3580   48.6680 N.4      11 LYL4        0.0000 
     57 N         -10.3195   16.0955   49.5185 N.am      2 SEC2        0.0000 
     58 N          -9.1630   16.3580   48.6680 N.am     10 SEL2        0.0000 
     59 N         -11.4760   15.8330   50.3690 N.am      6 SEP2        0.0000 
     60 N          -8.3010   17.4705   49.2475 N.am      2 SEC2        0.0000 
     61 N          -7.4390   18.5830   49.8270 N.am      6 SEP2        0.0000 
     62 N         -11.1970   14.9060   47.3230 N.am      2 SEC2        0.0000 
     63 N         -10.5120   15.8500   46.6640 N.am     10 SEL2        0.0000 
     64 N         -11.8820   13.9620   47.9820 N.am      6 SEP2        0.0000 
     65 CA         -8.0845   10.3735   54.0735 C.3       4 GLC5        0.0000 
     66 CA         -9.5770    9.3040   53.8470 C.3       8 GLP5        0.0000 
     67 CA         -8.4866   13.2525   53.0956 C.3       4 GLC5        0.0000 
     68 CA         -6.9680   13.1820   54.7670 C.3      12 GLL5        0.0000 
     69 CA         -8.1508   12.2592   52.4380 C.3       4 GLC5        0.0000 
     70 CA         -6.3890   13.1000   52.4310 C.3      12 GLL5        0.0000 
     71 CA         -8.8517   11.2490   48.2677 C.3       4 GLC5        0.0000 
     72 CA        -10.6300   10.3270   47.7430 C.3       8 GLP5        0.0000 
     73 CA         -4.9413   13.3215   47.0436 C.3       4 GLC5        0.0000 
     74 CA         -7.0500   12.5730   48.1450 C.3      12 GLL5        0.0000 
     75 CA         -3.0820   12.5610   46.3550 C.3       8 GLP5        0.0000 
@<TRIPOS>BOND
@<TRIPOS>SUBSTRUCTURE
     1 ALC1        4 GROUP        1 X    ALC  0     ROOT ALC X 1
     2 SEC2        1 GROUP        1 X    SEC  0     **** SEC X 2
     3 LYC4       49 GROUP        1 X    LYC  0     **** LYC X 4
     4 GLC5       16 GROUP        1 X    GLC  0     **** GLC X 6
     5 ALP1        6 GROUP        1 Y    ALP  0     ROOT ALP Y 8
     6 SEP2        3 GROUP        1 Y    SEP  0     **** SEP Y 9
     7 LYP4       51 GROUP        1 Y    LYP  0     **** LYP Y 11
     8 GLP5       18 GROUP        1 Y    GLP  0     **** GLP Y 13
     9 ALL1        5 GROUP        1 Z    ALL  0     ROOT ALL Z 15
    10 SEL2        2 GROUP        1 Z    SEL  0     **** SEL Z 16
    11 LYL4       50 GROUP        1 Z    LYL  0     **** LYL Z 18
    12 GLL5       17 GROUP        1 Z    GLL  0     **** GLL Z 20
@<TRIPOS>SET

