#    Name: 3gka_FMN_2_ligand
#    Modification time : Tue Mar 25 12:36:39 2014

@<TRIPOS>MOLECULE
3gka_FMN_2_ligand
   50    52     1     0     0
SMALL
NO_CHARGES


@<TRIPOS>ATOM
      1 N1         -5.2630    8.9130   50.3950 N.2       1 FMN362      0.0000 
      2 C2         -5.0790    7.5480   50.4880 C.2       1 FMN362      0.0000 
      3 O2         -4.7410    6.9060   49.4950 O.2       1 FMN362      0.0000 
      4 N3         -5.2730    6.9020   51.6930 N.am      1 FMN362      0.0000 
      5 C4         -5.6530    7.6180   52.8100 C.2       1 FMN362      0.0000 
      6 O4         -5.9230    7.0290   53.8550 O.2       1 FMN362      0.0000 
      7 C4A        -5.8380    8.9920   52.7200 C.2       1 FMN362      0.0000 
      8 N5         -6.2180    9.7140   53.8330 N.2       1 FMN362      0.0000 
      9 C5A        -6.4010   11.0790   53.7400 C.ar      1 FMN362      0.0000 
     10 C6         -6.7830   11.8070   54.8600 C.ar      1 FMN362      0.0000 
     11 C7         -6.9680   13.1820   54.7670 C.ar      1 FMN362      0.0000 
     12 C7M        -7.4660   13.9530   55.9530 C.3       1 FMN362      0.0000 
     13 C8         -6.7710   13.8280   53.5520 C.ar      1 FMN362      0.0000 
     14 C8M        -7.0670   15.2930   53.4270 C.3       1 FMN362      0.0000 
     15 C9         -6.3890   13.1000   52.4310 C.ar      1 FMN362      0.0000 
     16 C9A        -6.2040   11.7250   52.5250 C.ar      1 FMN362      0.0000 
     17 N10        -5.8250   11.0030   51.4120 N.pl3     1 FMN362      0.0000 
     18 C10        -5.6420    9.6380   51.5060 C.2       1 FMN362      0.0000 
     19 C1'        -5.7170   11.6830   50.0790 C.3       1 FMN362      0.0000 
     20 C2'        -7.0970   11.7690   49.4400 C.3       1 FMN362      0.0000 
     21 O2'        -7.5720   10.4690   49.1690 O.3       1 FMN362      0.0000 
     22 C3'        -7.0500   12.5730   48.1450 C.3       1 FMN362      0.0000 
     23 O3'        -6.1980   11.9300   47.2240 O.3       1 FMN362      0.0000 
     24 C4'        -6.5480   13.9890   48.4000 C.3       1 FMN362      0.0000 
     25 O4'        -7.2030   14.5250   49.5270 O.3       1 FMN362      0.0000 
     26 C5'        -6.8020   14.8830   47.1920 C.3       1 FMN362      0.0000 
     27 O5'        -8.1730   14.8510   46.8630 O.3       1 FMN362      0.0000 
     28 P          -9.1180   16.1160   47.1790 P.3       1 FMN362      0.0000 
     29 O1P        -8.5410   17.3260   46.4840 O.co2     1 FMN362      0.0000 
     30 O2P        -9.1630   16.3580   48.6680 O.co2     1 FMN362      0.0000 
     31 O3P       -10.5120   15.8500   46.6640 O.co2     1 FMN362      0.0000 
     32 H          -5.1333    5.8809   51.7581 H         1 FMN362      0.0000 
     33 H          -6.9292   11.3288   55.7592 H         1 FMN362      0.0000 
     34 H          -6.2432   13.5780   51.5323 H         1 FMN362      0.0000 
     35 H          -5.0580   11.1175   49.4259 H         1 FMN362      0.0000 
     36 H          -5.3211   12.6870   50.2052 H         1 FMN362      0.0000 
     37 H          -7.7529   12.2886   50.1306 H         1 FMN362      0.0000 
     38 H          -8.0617   12.6421   47.7595 H         1 FMN362      0.0000 
     39 H          -5.4757   13.9391   48.5576 H         1 FMN362      0.0000 
     40 H          -6.1703   14.5189   46.3714 H         1 FMN362      0.0000 
     41 H          -6.4613   15.8941   47.4503 H         1 FMN362      0.0000 
     42 H          -6.8477   13.8722   56.7348 H         1 FMN362      0.0000 
     43 H          -7.5568   14.9281   55.7506 H         1 FMN362      0.0000 
     44 H          -8.3635   13.6315   56.2547 H         1 FMN362      0.0000 
     45 H          -6.5132   15.8388   54.0559 H         1 FMN362      0.0000 
     46 H          -6.8825   15.6318   52.5044 H         1 FMN362      0.0000 
     47 H          -8.0252   15.4968   53.6279 H         1 FMN362      0.0000 
     48 H          -7.8026   10.0861   50.0636 H         1 FMN362      0.0000 
     49 H          -6.5847   12.1375   46.3254 H         1 FMN362      0.0000 
     50 H          -7.8465   15.1954   49.1576 H         1 FMN362      0.0000 
@<TRIPOS>BOND
     1    2    1 1    
     2   18    1 2    
     3    3    2 2    
     4    4    2 am   
     5    5    4 am   
     6   32    4 1    
     7    6    5 2    
     8    7    5 1    
     9    8    7 2    
    10   18    7 1    
    11    9    8 1    
    12   10    9 ar   
    13   16    9 ar   
    14   11   10 ar   
    15   33   10 1    
    16   12   11 1    
    17   13   11 ar   
    18   42   12 1    
    19   43   12 1    
    20   44   12 1    
    21   14   13 1    
    22   15   13 ar   
    23   45   14 1    
    24   46   14 1    
    25   47   14 1    
    26   16   15 ar   
    27   34   15 1    
    28   17   16 1    
    29   18   17 1    
    30   19   17 1    
    31   20   19 1    
    32   35   19 1    
    33   36   19 1    
    34   21   20 1    
    35   22   20 1    
    36   37   20 1    
    37   48   21 1    
    38   23   22 1    
    39   24   22 1    
    40   38   22 1    
    41   49   23 1    
    42   25   24 1    
    43   26   24 1    
    44   39   24 1    
    45   50   25 1    
    46   27   26 1    
    47   40   26 1    
    48   41   26 1    
    49   28   27 1    
    50   29   28 ar   
    51   30   28 ar   
    52   31   28 ar   
@<TRIPOS>SUBSTRUCTURE
     1 FMN362      1 GROUP   
@<TRIPOS>SET

