#    Name: 3TW3_1_CAVITY_N1_6.mol2
#    Modification time : Tue Mar 11 05:17:07 2014

@<TRIPOS>MOLECULE
3TW3_1_CAVITY_N1_6.mol2
  146     0     6     0     0
SMALL
NO_CHARGES


@<TRIPOS>ATOM
      1 O          11.6440  -19.3643  -19.4898 O.2       2 ALA2        0.0000 
      2 O           9.9374  -13.3285  -18.4141 O.2       2 ALA2        0.0000 
      3 O          10.4507  -14.7173  -18.1738 O.2       2 ALA2        0.0000 
      4 DU         11.7722  -16.0256  -19.1946 H         6 CUB7        0.0000 
      5 O          10.9640  -16.1061  -17.9335 O.2       2 ALA2        0.0000 
      6 DU         13.0936  -17.3340  -20.2154 H         6 CUB7        0.0000 
      7 O          12.2855  -17.4145  -18.9543 O.2       2 ALA2        0.0000 
      8 CA         13.6069  -18.7228  -19.9751 C.3       5 GLY6        0.0000 
      9 CA         12.7987  -18.8033  -18.7140 C.3       5 GLY6        0.0000 
     10 OG         12.4136  -14.0758  -18.6591 O.2       1 SER1        0.0000 
     11 DU         11.6055  -14.1563  -17.3980 H         6 CUB7        0.0000 
     12 DU         13.7351  -15.3842  -19.6799 H         6 CUB7        0.0000 
     13 DU         12.9269  -15.4646  -18.4188 H         6 CUB7        0.0000 
     14 DU         12.1187  -15.5451  -17.1577 H         6 CUB7        0.0000 
     15 O          11.3106  -15.6256  -15.8966 O.2       2 ALA2        0.0000 
     16 DU         13.4402  -16.8534  -18.1785 H         6 CUB7        0.0000 
     17 O          12.6320  -16.9339  -16.9174 O.2       2 ALA2        0.0000 
     18 O          11.8238  -17.0144  -15.6563 O.2       2 ALA2        0.0000 
     19 CA         14.7617  -18.1618  -19.1993 C.3       5 GLY6        0.0000 
     20 CA         13.9535  -18.2423  -17.9382 C.3       5 GLY6        0.0000 
     21 CA         13.1453  -18.3227  -16.6771 C.3       5 GLY6        0.0000 
     22 CZ         11.0019   -6.5708  -19.0849 C.ar      4 PHE5        0.0000 
     23 CZ         10.1938   -6.6512  -17.8238 C.ar      4 PHE5        0.0000 
     24 NZ          9.3856   -6.7317  -16.5627 N.2       3 LYS4        0.0000 
     25 NZ          8.5774   -6.8122  -15.3016 N.2       3 LYS4        0.0000 
     26 N          13.9398   -7.7182  -22.6279 N.2       2 ALA2        0.0000 
     27 CZ         10.7070   -8.0401  -17.5835 C.ar      4 PHE5        0.0000 
     28 NZ          9.8989   -8.1205  -16.3224 N.2       3 LYS4        0.0000 
     29 O          10.4122   -9.5093  -16.0821 O.2       2 ALA2        0.0000 
     30 OG         12.2469  -12.2065  -16.8625 O.2       1 SER1        0.0000 
     31 OG         13.5684  -13.5148  -17.8833 O.2       1 SER1        0.0000 
     32 OG         12.7602  -13.5953  -16.6222 O.2       1 SER1        0.0000 
     33 DU         11.9520  -13.6758  -15.3611 H         6 CUB7        0.0000 
     34 O          11.1438  -13.7562  -14.1000 O.2       2 ALA2        0.0000 
     35 CA         15.6980  -14.7427  -20.1652 C.3       5 GLY6        0.0000 
     36 CA         14.8898  -14.8232  -18.9041 C.3       5 GLY6        0.0000 
     37 DU         14.0816  -14.9036  -17.6430 H         6 CUB7        0.0000 
     38 DU         13.2735  -14.9841  -16.3819 H         6 CUB7        0.0000 
     39 DU         12.4653  -15.0646  -15.1208 H         6 CUB7        0.0000 
     40 O          11.6571  -15.1450  -13.8597 O.2       2 ALA2        0.0000 
     41 O          17.0194  -16.0510  -21.1860 O.2       2 ALA2        0.0000 
     42 DU         16.2113  -16.1315  -19.9249 H         6 CUB7        0.0000 
     43 DU         15.4031  -16.2120  -18.6638 H         6 CUB7        0.0000 
     44 O          14.5949  -16.2924  -17.4027 O.2       2 ALA2        0.0000 
     45 O          13.7867  -16.3729  -16.1416 O.2       2 ALA2        0.0000 
     46 N          12.9786  -16.4534  -14.8805 N.2       2 ALA2        0.0000 
     47 DU         16.7246  -17.5203  -19.6846 H         6 CUB7        0.0000 
     48 DU         15.9164  -17.6008  -18.4235 H         6 CUB7        0.0000 
     49 O          15.1082  -17.6812  -17.1624 O.2       2 ALA2        0.0000 
     50 O          14.3000  -17.7617  -15.9013 O.2       2 ALA2        0.0000 
     51 CA         15.6215  -19.0701  -16.9220 C.3       5 GLY6        0.0000 
     52 NZ         14.0679   -4.3795  -22.3327 N.2       3 LYS4        0.0000 
     53 CZ         10.0270   -4.7819  -16.0272 C.ar      4 PHE5        0.0000 
     54 CA          9.2189   -4.8624  -14.7661 C.3       5 GLY6        0.0000 
     55 N          14.5812   -5.7683  -22.0924 N.2       2 ALA2        0.0000 
     56 OG         13.7730   -5.8488  -20.8313 O.2       1 SER1        0.0000 
     57 CZ         10.5403   -6.1707  -15.7869 C.ar      4 PHE5        0.0000 
     58 O           9.7321   -6.2512  -14.5258 O.2       2 ALA2        0.0000 
     59 N          14.2863   -7.2376  -20.5910 N.2       2 ALA2        0.0000 
     60 CZ         13.4781   -7.3181  -19.3299 C.ar      4 PHE5        0.0000 
     61 CZ         12.6700   -7.3986  -18.0688 C.ar      4 PHE5        0.0000 
     62 CZ         11.8618   -7.4790  -16.8077 C.ar      4 PHE5        0.0000 
     63 O          11.0536   -7.5595  -15.5466 O.2       2 ALA2        0.0000 
     64 OG         12.3751   -8.8678  -16.5673 O.2       1 SER1        0.0000 
     65 O          11.5669   -8.9483  -15.3062 O.2       2 ALA2        0.0000 
     66 OG         12.8883  -10.2567  -16.3270 O.2       1 SER1        0.0000 
     67 O          12.0802  -10.3371  -15.0659 O.2       2 ALA2        0.0000 
     68 N          13.4016  -11.6455  -16.0867 N.2       2 ALA2        0.0000 
     69 DU         12.5934  -11.7259  -14.8256 H         6 CUB7        0.0000 
     70 O          11.7853  -11.8064  -13.5645 O.2       2 ALA2        0.0000 
     71 N          13.9149  -13.0343  -15.8464 N.2       2 ALA2        0.0000 
     72 O          13.1067  -13.1147  -14.5853 O.2       2 ALA2        0.0000 
     73 O          12.2985  -13.1952  -13.3242 O.2       2 ALA2        0.0000 
     74 CA         16.8527  -14.1817  -19.3894 C.3       5 GLY6        0.0000 
     75 N          16.0445  -14.2621  -18.1283 N.2       2 ALA2        0.0000 
     76 N          15.2364  -14.3426  -16.8672 N.2       2 ALA2        0.0000 
     77 CA         14.4282  -14.4231  -15.6061 C.3       5 GLY6        0.0000 
     78 O          13.6200  -14.5036  -14.3450 O.2       2 ALA2        0.0000 
     79 O          12.8118  -14.5840  -13.0839 O.2       2 ALA2        0.0000 
     80 O          17.3660  -15.5705  -19.1491 O.2       2 ALA2        0.0000 
     81 O          16.5578  -15.6510  -17.8880 O.2       2 ALA2        0.0000 
     82 O          15.7496  -15.7314  -16.6269 O.2       2 ALA2        0.0000 
     83 O          14.1333  -15.8924  -14.1047 O.2       2 ALA2        0.0000 
     84 O          17.8793  -16.9593  -18.9087 O.2       2 ALA2        0.0000 
     85 O          17.0711  -17.0398  -17.6476 O.2       2 ALA2        0.0000 
     86 NZ         15.2226   -3.8185  -21.5569 N.2       3 LYS4        0.0000 
     87 N          15.7359   -5.2073  -21.3166 N.2       2 ALA2        0.0000 
     88 CZ         14.9277   -5.2878  -20.0555 C.ar      4 PHE5        0.0000 
     89 CZ         11.6950   -5.6097  -15.0111 C.ar      4 PHE5        0.0000 
     90 N          15.4410   -6.6766  -19.8152 N.2       2 ALA2        0.0000 
     91 CZ         14.6329   -6.7571  -18.5541 C.ar      4 PHE5        0.0000 
     92 CZ         13.8247   -6.8376  -17.2930 C.ar      4 PHE5        0.0000 
     93 CZ         13.0165   -6.9180  -16.0319 C.ar      4 PHE5        0.0000 
     94 O          12.2083   -6.9985  -14.7708 O.2       2 ALA2        0.0000 
     95 CA         15.1461   -8.1459  -18.3137 C.3       5 GLY6        0.0000 
     96 N          14.3380   -8.2264  -17.0526 N.2       2 ALA2        0.0000 
     97 N          13.5298   -8.3068  -15.7915 N.2       2 ALA2        0.0000 
     98 O          12.7216   -8.3873  -14.5304 O.2       2 ALA2        0.0000 
     99 N          14.0431   -9.6956  -15.5512 N.2       2 ALA2        0.0000 
    100 O          13.2349   -9.7761  -14.2901 O.2       2 ALA2        0.0000 
    101 N          14.5563  -11.0845  -15.3109 N.2       2 ALA2        0.0000 
    102 O          13.7482  -11.1649  -14.0498 O.2       2 ALA2        0.0000 
    103 CA         15.0696  -12.4733  -15.0706 C.3       5 GLY6        0.0000 
    104 O          14.2615  -12.5537  -13.8095 O.2       2 ALA2        0.0000 
    105 CA         17.7125  -15.0899  -17.1122 C.3       5 GLY6        0.0000 
    106 O          18.2258  -16.4787  -16.8718 O.2       2 ALA2        0.0000 
    107 NZ         16.3774   -3.2575  -20.7811 N.2       3 LYS4        0.0000 
    108 CZ         16.8907   -4.6463  -20.5408 C.ar      4 PHE5        0.0000 
    109 CZ         16.0825   -4.7268  -19.2797 C.ar      4 PHE5        0.0000 
    110 CZ         16.5958   -6.1156  -19.0394 C.ar      4 PHE5        0.0000 
    111 CZ         15.7876   -6.1961  -17.7783 C.ar      4 PHE5        0.0000 
    112 CZ         14.9794   -6.2765  -16.5172 C.ar      4 PHE5        0.0000 
    113 CZ         14.1712   -6.3570  -15.2561 C.ar      4 PHE5        0.0000 
    114 NZ         13.3630   -6.4375  -13.9950 N.2       3 LYS4        0.0000 
    115 O          16.3009   -7.5849  -17.5379 O.2       2 ALA2        0.0000 
    116 CA         15.4927   -7.6654  -16.2768 C.3       5 GLY6        0.0000 
    117 CZ         14.6845   -7.7458  -15.0157 C.ar      4 PHE5        0.0000 
    118 NZ         13.8763   -7.8263  -13.7546 N.2       3 LYS4        0.0000 
    119 NZ         13.0682   -7.9068  -12.4935 N.2       3 LYS4        0.0000 
    120 CA         16.0060   -9.0542  -16.0365 C.3       5 GLY6        0.0000 
    121 N          15.1978   -9.1346  -14.7754 N.2       2 ALA2        0.0000 
    122 N          14.3896   -9.2151  -13.5143 N.2       2 ALA2        0.0000 
    123 CA         15.7111  -10.5234  -14.5351 C.3       5 GLY6        0.0000 
    124 O          14.9029  -10.6039  -13.2740 O.2       2 ALA2        0.0000 
    125 CZ         16.2106   -1.3882  -18.9845 C.ar      4 PHE5        0.0000 
    126 CZ         17.5321   -2.6965  -20.0053 C.ar      4 PHE5        0.0000 
    127 CZ         16.7239   -2.7770  -18.7442 C.ar      4 PHE5        0.0000 
    128 CZ         18.0454   -4.0853  -19.7650 C.ar      4 PHE5        0.0000 
    129 CZ         17.2372   -4.1658  -18.5039 C.ar      4 PHE5        0.0000 
    130 CZ         16.4290   -4.2463  -17.2428 C.ar      4 PHE5        0.0000 
    131 N          17.7505   -5.5546  -18.2636 N.2       2 ALA2        0.0000 
    132 CZ         16.9423   -5.6351  -17.0025 C.ar      4 PHE5        0.0000 
    133 CA         16.1341   -5.7155  -15.7414 C.3       5 GLY6        0.0000 
    134 CA         15.3260   -5.7960  -14.4802 C.3       5 GLY6        0.0000 
    135 CA         16.6474   -7.1043  -15.5010 C.3       5 GLY6        0.0000 
    136 O          15.8392   -7.1848  -14.2399 O.2       2 ALA2        0.0000 
    137 NZ         15.0311   -7.2653  -12.9788 N.2       3 LYS4        0.0000 
    138 CA         16.3525   -8.5736  -13.9996 C.3       5 GLY6        0.0000 
    139 N          15.5443   -8.6541  -12.7385 N.2       2 ALA2        0.0000 
    140 N          18.6868   -2.1355  -19.2295 N.2       2 ALA2        0.0000 
    141 N          17.8786   -2.2160  -17.9684 N.2       2 ALA2        0.0000 
    142 CZ         19.2001   -3.5243  -18.9892 C.ar      4 PHE5        0.0000 
    143 CZ         18.3919   -3.6048  -17.7281 C.ar      4 PHE5        0.0000 
    144 CA         17.5838   -3.6852  -16.4670 C.3       5 GLY6        0.0000 
    145 CA         18.9052   -4.9936  -17.4877 C.3       5 GLY6        0.0000 
    146 CA         18.0970   -5.0740  -16.2266 C.3       5 GLY6        0.0000 
@<TRIPOS>BOND
@<TRIPOS>SUBSTRUCTURE
     1 SER1       10 GROUP   
     2 ALA2        1 GROUP   
     3 LYS4       24 GROUP   
     4 PHE5       22 GROUP   
     5 GLY6        8 GROUP   
     6 CUB7        4 GROUP   
@<TRIPOS>SET

