#    Name: 3tw3_ATP_1_INTS_M
#    Modification time : Mon Mar 24 21:05:07 2014

@<TRIPOS>MOLECULE
3tw3_ATP_1_INTS_M
   88     0    15     0     0
SMALL
NO_CHARGES


@<TRIPOS>ATOM
      1 NZ          8.3565  -14.6860  -16.0710 N.4       3 LYC4        0.0000 
      2 NZ          9.8180  -14.0490  -15.5530 N.4      13 LYL4        0.0000 
      3 NZ          6.8950  -15.3230  -16.5890 N.4       8 LYP4        0.0000 
      4 Zn          9.6580  -13.0935  -15.8580 Zn        4 ZIC7        0.0000 
      5 Zn          9.8180  -14.0490  -15.5530 Zn       14 ZIL7        0.0000 
      6 Zn          9.4980  -12.1380  -16.1630 Zn        9 ZIP7        0.0000 
      7 N          10.5820  -15.9480  -13.1680 N.am      2 SEC2        0.0000 
      8 N          10.9820  -16.0590  -14.4990 N.am     12 SEL2        0.0000 
      9 N          10.1820  -15.8370  -11.8370 N.am      7 SEP2        0.0000 
     10 N          10.6500  -17.5965  -14.5295 N.am      2 SEC2        0.0000 
     11 N          10.3180  -19.1340  -14.5600 N.am      7 SEP2        0.0000 
     12 NZ         10.0815  -17.8360  -16.8195 N.4       3 LYC4        0.0000 
     13 NZ          9.9130  -16.2540  -16.7940 N.4      13 LYL4        0.0000 
     14 NZ         10.2540  -19.9330  -15.6220 N.4       8 LYP4        0.0000 
     15 NZ          8.4040  -15.7885  -16.6915 N.4       3 LYC4        0.0000 
     16 N          10.0815  -17.8360  -16.8195 N.am      2 SEC2        0.0000 
     17 N           9.9130  -16.2540  -16.7940 N.am     12 SEL2        0.0000 
     18 N          10.2500  -19.4180  -16.8450 N.am      7 SEP2        0.0000 
     19 Zn         10.3385  -12.3595  -16.5735 Zn        4 ZIC7        0.0000 
     20 Zn         11.1790  -12.5810  -16.9840 Zn       14 ZIL7        0.0000 
     21 N          13.4415  -12.0905  -18.2465 N.am      2 SEC2        0.0000 
     22 N          13.5930  -13.3960  -17.5530 N.am     12 SEL2        0.0000 
     23 N          13.2900  -10.7850  -18.9400 N.am      7 SEP2        0.0000 
     24 NZ         12.9330  -12.8020  -12.0950 N.4       3 LYC4        0.0000 
     25 NZ         11.6180  -13.2370  -12.9890 N.4      13 LYL4        0.0000 
     26 NZ         14.9280  -13.4320  -10.7980 N.4       8 LYP4        0.0000 
     27 N          11.3805  -13.5980  -11.5115 N.am      2 SEC2        0.0000 
     28 N          11.6180  -13.2370  -12.9890 N.am     12 SEL2        0.0000 
     29 N          11.1430  -13.9590  -10.0340 N.am      7 SEP2        0.0000 
     30 N          12.9330  -12.8020  -12.0950 N.am      2 SEC2        0.0000 
     31 N          14.2480  -12.3670  -11.2010 N.am      7 SEP2        0.0000 
     32 N          10.2180  -12.8450  -12.4460 N.am      2 SEC2        0.0000 
     33 N           8.8180  -12.4530  -11.9030 N.am      7 SEP2        0.0000 
     34 Zn         10.1795  -11.8250  -15.4805 Zn        4 ZIC7        0.0000 
     35 Zn         10.8610  -11.5120  -14.7980 Zn       14 ZIL7        0.0000 
     36 N          10.5170  -10.2185  -13.9150 N.am      2 SEC2        0.0000 
     37 N          10.8610  -11.5120  -14.7980 N.am     12 SEL2        0.0000 
     38 N          10.1730   -8.9250  -13.0320 N.am      7 SEP2        0.0000 
     39 N          13.6055  -11.7555  -12.3225 N.am      2 SEC2        0.0000 
     40 N          12.9630  -11.1440  -13.4440 N.am     12 SEL2        0.0000 
     41 CA         16.3295  -10.5075  -12.9265 C.3       5 GLC5        0.0000 
     42 CA         14.7630   -9.5240  -13.5020 C.3      15 GLL5        0.0000 
     43 CA         17.8960  -11.4910  -12.3510 C.3      10 GLP5        0.0000 
     44 CA         16.8940   -9.1955  -14.0615 C.3       5 GLC5        0.0000 
     45 CA         19.0250   -8.8670  -14.6210 C.3      10 GLP5        0.0000 
     46 N          16.2460   -8.4215  -10.6140 N.am      2 SEC2        0.0000 
     47 N          14.9700   -7.9820  -11.6830 N.am     12 SEL2        0.0000 
     48 N          17.5220   -8.8610   -9.5450 N.am      7 SEP2        0.0000 
     49 N          14.3740   -6.9470  -10.8985 N.am      2 SEC2        0.0000 
     50 N          13.7780   -5.9120  -10.1140 N.am      7 SEP2        0.0000 
     51 N          14.8330   -7.6875  -10.0135 N.am      2 SEC2        0.0000 
     52 N          14.6960   -7.3930   -8.3440 N.am      7 SEP2        0.0000 
     53 O          14.2985   -8.9595  -10.8015 O.2       1 ALC1        0.0000 
     54 O          14.9700   -7.9820  -11.6830 O.2      11 ALL1        0.0000 
     55 O          13.6270   -9.9370   -9.9200 O.2       6 ALP1        0.0000 
     56 CA         13.8000   -5.8350  -15.2965 C.3       5 GLC5        0.0000 
     57 CA         14.3970   -7.1960  -13.8470 C.3      15 GLL5        0.0000 
     58 CA         13.2030   -4.4740  -16.7460 C.3      10 GLP5        0.0000 
     59 N          14.1495   -5.9155  -11.6585 N.am      2 SEC2        0.0000 
     60 N          14.5210   -5.9190  -13.2030 N.am     12 SEL2        0.0000 
     61 N          15.9625   -5.3900  -12.8460 N.am      2 SEC2        0.0000 
     62 N          17.4040   -4.8610  -12.4890 N.am      7 SEP2        0.0000 
     63 O          14.1495   -5.9155  -11.6585 O.2       1 ALC1        0.0000 
     64 O          14.5210   -5.9190  -13.2030 O.2      11 ALL1        0.0000 
     65 O          13.7780   -5.9120  -10.1140 O.2       6 ALP1        0.0000 
     66 O          13.4960   -5.6345  -12.4930 O.2       1 ALC1        0.0000 
     67 O          12.4710   -5.3500  -11.7830 O.2       6 ALP1        0.0000 
     68 CA         16.8815   -8.8445  -15.8340 C.3       5 GLC5        0.0000 
     69 CA         15.7130   -7.6150  -14.4830 C.3      15 GLL5        0.0000 
     70 CA         18.0500  -10.0740  -17.1850 C.3      10 GLP5        0.0000 
     71 CA         17.3690   -8.2410  -14.5520 C.3       5 GLC5        0.0000 
     72 O          16.8630   -3.8110  -20.5190 O.2       1 ALC1        0.0000 
     73 O          16.8550   -4.7700  -19.7990 O.2      11 ALL1        0.0000 
     74 O          16.8710   -2.8520  -21.2390 O.2       6 ALP1        0.0000 
     75 CA         19.2880   -5.8980  -16.2160 C.3       5 GLC5        0.0000 
     76 CA         18.2050   -4.4690  -16.4760 C.3      15 GLL5        0.0000 
     77 CA         20.3710   -7.3270  -15.9560 C.3      10 GLP5        0.0000 
     78 CA         19.9480   -5.3385  -17.4015 C.3       5 GLC5        0.0000 
     79 CA         21.6910   -6.2080  -18.3270 C.3      10 GLP5        0.0000 
     80 CA         16.5370   -3.8060  -15.9420 C.3       5 GLC5        0.0000 
     81 CA         14.8690   -3.1430  -15.4080 C.3      10 GLP5        0.0000 
     82 N          17.4700   -5.1205  -14.1170 N.am      2 SEC2        0.0000 
     83 N          17.5360   -5.3800  -15.7450 N.am     12 SEL2        0.0000 
     84 CA         18.4780   -6.7445  -16.1340 C.3       5 GLC5        0.0000 
     85 CA         16.5850   -6.1620  -16.3120 C.3      15 GLL5        0.0000 
     86 CA         17.2443   -8.0777  -17.1060 C.3       5 GLC5        0.0000 
     87 CA         15.7508   -4.4844  -16.3095 C.3       5 GLC5        0.0000 
     88 CA         16.2920   -6.0010  -17.7420 C.3      15 GLL5        0.0000 
@<TRIPOS>BOND
@<TRIPOS>SUBSTRUCTURE
     1 ALC1       53 GROUP        1 X    ALC  0     ROOT ALC X 1
     2 SEC2        7 GROUP        1 X    SEC  0     **** SEC X 2
     3 LYC4        1 GROUP        1 X    LYC  0     **** LYC X 4
     4 ZIC7        4 GROUP        1 X    ZIC  0     **** ZIC X 5
     5 GLC5       41 GROUP        1 X    GLC  0     **** GLC X 6
     6 ALP1       55 GROUP        1 Y    ALP  0     ROOT ALP Y 8
     7 SEP2        9 GROUP        1 Y    SEP  0     **** SEP Y 9
     8 LYP4        3 GROUP        1 Y    LYP  0     **** LYP Y 11
     9 ZIP7        6 GROUP        1 Y    ZIP  0     **** ZIP Y 12
    10 GLP5       43 GROUP        1 Y    GLP  0     **** GLP Y 13
    11 ALL1       54 GROUP        1 Z    ALL  0     ROOT ALL Z 15
    12 SEL2        8 GROUP        1 Z    SEL  0     **** SEL Z 16
    13 LYL4        2 GROUP        1 Z    LYL  0     **** LYL Z 18
    14 ZIL7        5 GROUP        1 Z    ZIL  0     **** ZIL Z 19
    15 GLL5       42 GROUP        1 Z    GLL  0     **** GLL Z 20
@<TRIPOS>SET

