#    Name: 3tw3_ATP_1_ligand
#    Modification time : Mon Mar 24 21:05:07 2014

@<TRIPOS>MOLECULE
3tw3_ATP_1_ligand
   43    45     1     0     0
SMALL
NO_CHARGES


@<TRIPOS>ATOM
      1 PG         10.5560  -15.3520  -15.7660 P.3       1 ATP401      0.0000 
      2 O1G         9.8180  -14.0490  -15.5530 O.co2     1 ATP401      0.0000 
      3 O2G        10.9820  -16.0590  -14.4990 O.co2     1 ATP401      0.0000 
      4 O3G         9.9130  -16.2540  -16.7940 O.co2     1 ATP401      0.0000 
      5 PB         12.4000  -13.3950  -16.6250 P.3       1 ATP401      0.0000 
      6 O1B        11.1790  -12.5810  -16.9840 O.co2     1 ATP401      0.0000 
      7 O2B        13.5930  -13.3960  -17.5530 O.co2     1 ATP401      0.0000 
      8 O3B        11.9620  -14.9330  -16.4320 O.3       1 ATP401      0.0000 
      9 PA         11.9630  -12.2420  -14.0700 P.3       1 ATP401      0.0000 
     10 O1A        11.6180  -13.2370  -12.9890 O.co2     1 ATP401      0.0000 
     11 O2A        10.8610  -11.5120  -14.7980 O.co2     1 ATP401      0.0000 
     12 O3A        12.9100  -12.9780  -15.1500 O.3       1 ATP401      0.0000 
     13 O5'        12.9630  -11.1440  -13.4440 O.3       1 ATP401      0.0000 
     14 C5'        13.6930  -10.2660  -14.2970 C.3       1 ATP401      0.0000 
     15 C4'        14.7630   -9.5240  -13.5020 C.3       1 ATP401      0.0000 
     16 O4'        15.7500   -9.0410  -14.4220 O.3       1 ATP401      0.0000 
     17 C3'        14.1700   -8.2930  -12.8280 C.3       1 ATP401      0.0000 
     18 O3'        14.9700   -7.9820  -11.6830 O.3       1 ATP401      0.0000 
     19 C2'        14.3970   -7.1960  -13.8470 C.3       1 ATP401      0.0000 
     20 O2'        14.5210   -5.9190  -13.2030 O.3       1 ATP401      0.0000 
     21 C1'        15.7130   -7.6150  -14.4830 C.3       1 ATP401      0.0000 
     22 N9         15.7720   -7.1270  -15.8780 N.pl3     1 ATP401      0.0000 
     23 C8         15.0140   -7.5580  -16.9040 C.2       1 ATP401      0.0000 
     24 N7         15.3210   -6.8850  -18.0420 N.2       1 ATP401      0.0000 
     25 C5         16.2920   -6.0010  -17.7420 C.ar      1 ATP401      0.0000 
     26 C6         17.0680   -4.9780  -18.4780 C.ar      1 ATP401      0.0000 
     27 N6         16.8550   -4.7700  -19.7990 N.pl3     1 ATP401      0.0000 
     28 N1         17.9920   -4.2670  -17.7900 N.ar      1 ATP401      0.0000 
     29 C2         18.2050   -4.4690  -16.4760 C.ar      1 ATP401      0.0000 
     30 N3         17.5360   -5.3800  -15.7450 N.ar      1 ATP401      0.0000 
     31 C4         16.5850   -6.1620  -16.3120 C.ar      1 ATP401      0.0000 
     32 H          13.0402   -9.5139  -14.7618 H         1 ATP401      0.0000 
     33 H          14.1967  -10.8112  -15.1075 H         1 ATP401      0.0000 
     34 H          15.1794  -10.1600  -12.7740 H         1 ATP401      0.0000 
     35 H          13.1746   -8.4221  -12.6476 H         1 ATP401      0.0000 
     36 H          13.6396   -7.2430  -14.5736 H         1 ATP401      0.0000 
     37 H          16.5063   -7.1830  -13.9023 H         1 ATP401      0.0000 
     38 H          14.3337   -8.2596  -16.8437 H         1 ATP401      0.0000 
     39 H          17.0454   -5.5442  -20.4027 H         1 ATP401      0.0000 
     40 H          16.5261   -3.8607  -20.0538 H         1 ATP401      0.0000 
     41 H          18.9447   -3.8743  -15.9875 H         1 ATP401      0.0000 
     42 H          14.6543   -8.6072  -10.9692 H         1 ATP401      0.0000 
     43 H          13.6932   -5.8269  -12.6497 H         1 ATP401      0.0000 
@<TRIPOS>BOND
     1    2    1 ar   
     2    3    1 ar   
     3    4    1 ar   
     4    8    1 1    
     5    6    5 ar   
     6    7    5 ar   
     7    8    5 1    
     8   12    5 1    
     9   10    9 ar   
    10   11    9 ar   
    11   12    9 1    
    12   13    9 1    
    13   14   13 1    
    14   15   14 1    
    15   32   14 1    
    16   33   14 1    
    17   16   15 1    
    18   17   15 1    
    19   34   15 1    
    20   21   16 1    
    21   18   17 1    
    22   19   17 1    
    23   35   17 1    
    24   42   18 1    
    25   20   19 1    
    26   21   19 1    
    27   36   19 1    
    28   43   20 1    
    29   22   21 1    
    30   37   21 1    
    31   23   22 1    
    32   31   22 1    
    33   24   23 2    
    34   38   23 1    
    35   25   24 1    
    36   26   25 ar   
    37   31   25 ar   
    38   27   26 1    
    39   28   26 ar   
    40   39   27 1    
    41   40   27 1    
    42   29   28 ar   
    43   30   29 ar   
    44   41   29 1    
    45   31   30 ar   
@<TRIPOS>SUBSTRUCTURE
     1 ATP401      1 GROUP   
@<TRIPOS>SET

