#    Name: 4h6r_FDA_1_INTS_M
#    Modification time : Tue Mar 25 00:30:32 2014

@<TRIPOS>MOLECULE
4h6r_FDA_1_INTS_M
   97     0    12     0     0
SMALL
NO_CHARGES


@<TRIPOS>ATOM
      1 NZ         19.4435   12.7435  -21.7715 N.4       3 LYC4        0.0000 
      2 NZ         18.4150   12.2910  -20.8160 N.4      11 LYL4        0.0000 
      3 NZ         20.4720   13.1960  -22.7270 N.4       7 LYP4        0.0000 
      4 N          19.4435   12.7435  -21.7715 N.am      2 SEC2        0.0000 
      5 N          18.4150   12.2910  -20.8160 N.am     10 SEL2        0.0000 
      6 N          20.4720   13.1960  -22.7270 N.am      6 SEP2        0.0000 
      7 CA         13.9075   11.0920  -23.4970 C.3       4 GLC5        0.0000 
      8 CA         14.2850   12.3930  -21.8030 C.3      12 GLL5        0.0000 
      9 CA         13.5300    9.7910  -25.1910 C.3       8 GLP5        0.0000 
     10 CA         11.1655   12.1190  -18.9300 C.3       4 GLC5        0.0000 
     11 CA         12.3630   12.0650  -20.5760 C.3      12 GLL5        0.0000 
     12 CA          9.9680   12.1730  -17.2840 C.3       8 GLP5        0.0000 
     13 CA         12.9810   10.3905  -23.4030 C.3       4 GLC5        0.0000 
     14 CA         12.4320   10.9900  -21.6150 C.3      12 GLL5        0.0000 
     15 CA         11.5280    9.3730  -22.5325 C.3       4 GLC5        0.0000 
     16 CA         10.6240    7.7560  -23.4500 C.3       8 GLP5        0.0000 
     17 CA         11.0095    7.7020  -17.0455 C.3       4 GLC5        0.0000 
     18 CA         11.3280    6.9390  -19.1110 C.3      12 GLL5        0.0000 
     19 CA         10.6910    8.4650  -14.9800 C.3       8 GLP5        0.0000 
     20 O          11.4730    5.0455  -17.3880 O.2       1 ALC1        0.0000 
     21 O          11.8290    5.7020  -18.6170 O.2       9 ALL1        0.0000 
     22 O          11.1170    4.3890  -16.1590 O.2       5 ALP1        0.0000 
     23 CA         10.0695    8.0845  -21.3890 C.3       4 GLC5        0.0000 
     24 CA          9.5150    8.4130  -19.3280 C.3      12 GLL5        0.0000 
     25 CA          9.8200    9.5735  -18.0595 C.3       4 GLC5        0.0000 
     26 CA         10.1250   10.7340  -16.7910 C.3       8 GLP5        0.0000 
     27 CA         11.0970    8.3820  -21.8760 C.3       4 GLC5        0.0000 
     28 CA         11.5700    9.0080  -20.3020 C.3      12 GLL5        0.0000 
     29 CA         10.8475    9.8710  -18.5465 C.3       4 GLC5        0.0000 
     30 N          25.4275    0.9550  -22.5875 N.am      2 SEC2        0.0000 
     31 N          24.0980    1.2080  -22.4560 N.am     10 SEL2        0.0000 
     32 N          26.7570    0.7020  -22.7190 N.am      6 SEP2        0.0000 
     33 N          23.7765    2.1705  -21.4005 N.am      2 SEC2        0.0000 
     34 N          23.4550    3.1330  -20.3450 N.am      6 SEP2        0.0000 
     35 O          24.3460   -1.0625  -23.9965 O.2       1 ALC1        0.0000 
     36 O          23.4120   -0.0420  -24.2790 O.2       9 ALL1        0.0000 
     37 O          25.2800   -2.0830  -23.7140 O.2       5 ALP1        0.0000 
     38 N          24.0190   -2.0605  -26.2865 N.am      2 SEC2        0.0000 
     39 N          22.6880   -1.2680  -26.1270 N.am     10 SEL2        0.0000 
     40 N          25.3500   -2.8530  -26.4460 N.am      6 SEP2        0.0000 
     41 CA         16.5555    3.0715  -30.7260 C.3       4 GLC5        0.0000 
     42 CA         16.6630    2.0730  -29.1480 C.3      12 GLL5        0.0000 
     43 CA         16.4480    4.0700  -32.3040 C.3       8 GLP5        0.0000 
     44 CA         14.8410    4.7675  -28.2470 C.3       4 GLC5        0.0000 
     45 CA         16.4500    4.3580  -27.2840 C.3      12 GLL5        0.0000 
     46 CA         13.2320    5.1770  -29.2100 C.3       8 GLP5        0.0000 
     47 CA         15.2475    3.4685  -26.0740 C.3       4 GLC5        0.0000 
     48 CA         14.0450    2.5790  -24.8640 C.3       8 GLP5        0.0000 
     49 CA         21.3015    1.5345  -22.2115 C.3       4 GLC5        0.0000 
     50 CA         21.0390    1.4690  -24.3870 C.3      12 GLL5        0.0000 
     51 CA         21.5640    1.6000  -20.0360 C.3       8 GLP5        0.0000 
     52 CA         20.5715    2.3845  -21.6480 C.3       4 GLC5        0.0000 
     53 CA         19.5790    3.1690  -23.2600 C.3      12 GLL5        0.0000 
     54 CA         21.4625    4.4845  -24.8330 C.3       4 GLC5        0.0000 
     55 CA         20.3040    4.4850  -23.3560 C.3      12 GLL5        0.0000 
     56 CA         22.6210    4.4840  -26.3100 C.3       8 GLP5        0.0000 
     57 N          22.7975    5.0380  -22.8275 N.am      2 SEC2        0.0000 
     58 N          21.6470    4.2820  -23.0190 N.am     10 SEL2        0.0000 
     59 N          23.9480    5.7940  -22.6360 N.am      6 SEP2        0.0000 
     60 N          18.6150   10.2970  -25.6360 N.am      2 SEC2        0.0000 
     61 N          18.8850    9.5790  -24.6600 N.am     10 SEL2        0.0000 
     62 N          18.3450   11.0150  -26.6120 N.am      6 SEP2        0.0000 
     63 N          16.1080    9.5410  -24.9640 N.am      2 SEC2        0.0000 
     64 N          16.5590    9.2230  -23.5410 N.am     10 SEL2        0.0000 
     65 N          15.6570    9.8590  -26.3870 N.am      6 SEP2        0.0000 
     66 N          15.6015    8.4150  -24.1030 N.am      2 SEC2        0.0000 
     67 N          14.6440    7.6070  -24.6650 N.am      6 SEP2        0.0000 
     68 N          19.3195   11.9835  -22.5550 N.am      2 SEC2        0.0000 
     69 N          18.1670   10.7710  -22.3830 N.am     10 SEL2        0.0000 
     70 CA         15.5540   13.0995  -23.6660 C.3       4 GLC5        0.0000 
     71 CA         15.8090   12.3330  -21.9110 C.3      12 GLL5        0.0000 
     72 CA         16.0610   13.8360  -25.4750 C.3       8 GLP5        0.0000 
     73 CA         11.6280    6.2302  -20.9343 C.3       4 GLC5        0.0000 
     74 CA         12.1400    7.7920  -19.8460 C.3      12 GLL5        0.0000 
     75 CA         11.5220    5.0950  -22.3900 C.3       8 GLP5        0.0000 
     76 CA         13.2000    6.7702  -18.0602 C.3       4 GLC5        0.0000 
     77 CA         14.6660    6.1750  -16.6420 C.3       8 GLP5        0.0000 
     78 CA         21.5358    2.3235  -26.1163 C.3       4 GLC5        0.0000 
     79 CA         21.9360    3.6710  -27.3920 C.3       8 GLP5        0.0000 
     80 CA         19.7995    1.4115  -28.5928 C.3       4 GLC5        0.0000 
     81 CA         19.2440    1.1630  -26.4600 C.3      12 GLL5        0.0000 
     82 CA         20.7730    1.7060  -30.1160 C.3       8 GLP5        0.0000 
     83 CA         20.3810    2.3940  -27.2308 C.3       4 GLC5        0.0000 
     84 CA         18.4080    1.0710  -27.6790 C.3      12 GLL5        0.0000 
     85 CA         18.9342    1.9078  -29.3195 C.3       4 GLC5        0.0000 
     86 CA         17.5280    2.1460  -27.8980 C.3      12 GLL5        0.0000 
     87 CA         15.5433    0.8412  -28.6270 C.3       4 GLC5        0.0000 
     88 CA         13.9910   -0.4270  -28.7310 C.3       8 GLP5        0.0000 
     89 CA         18.2858    3.3859  -29.1006 C.3       4 GLC5        0.0000 
     90 CA         19.2560    4.9310  -29.7330 C.3       8 GLP5        0.0000 
     91 CA         15.9943    1.5849  -26.9971 C.3       4 GLC5        0.0000 
     92 CA         14.6730    1.3290  -25.5260 C.3       8 GLP5        0.0000 
     93 CA         16.2437    2.3018  -25.9688 C.3       4 GLC5        0.0000 
     94 CA         17.4230    3.2300  -26.9980 C.3      12 GLL5        0.0000 
     95 CA         20.3047    3.2200  -26.5515 C.3       4 GLC5        0.0000 
     96 CA         18.2060    3.3190  -25.8250 C.3      12 GLL5        0.0000 
     97 CA         18.4136    4.2438  -28.1080 C.3       4 GLC5        0.0000 
@<TRIPOS>BOND
@<TRIPOS>SUBSTRUCTURE
     1 ALC1       20 GROUP        1 X    ALC  0     ROOT ALC X 1
     2 SEC2        4 GROUP        1 X    SEC  0     **** SEC X 2
     3 LYC4        1 GROUP        1 X    LYC  0     **** LYC X 4
     4 GLC5        7 GROUP        1 X    GLC  0     **** GLC X 6
     5 ALP1       22 GROUP        1 Y    ALP  0     ROOT ALP Y 8
     6 SEP2        6 GROUP        1 Y    SEP  0     **** SEP Y 9
     7 LYP4        3 GROUP        1 Y    LYP  0     **** LYP Y 11
     8 GLP5        9 GROUP        1 Y    GLP  0     **** GLP Y 13
     9 ALL1       21 GROUP        1 Z    ALL  0     ROOT ALL Z 15
    10 SEL2        5 GROUP        1 Z    SEL  0     **** SEL Z 16
    11 LYL4        2 GROUP        1 Z    LYL  0     **** LYL Z 18
    12 GLL5        8 GROUP        1 Z    GLL  0     **** GLL Z 20
@<TRIPOS>SET

