#    Name: 4h6r_FDA_1_ligand
#    Modification time : Tue Mar 25 00:30:32 2014

@<TRIPOS>MOLECULE
4h6r_FDA_1_ligand
   86    91     1     0     0
SMALL
NO_CHARGES


@<TRIPOS>ATOM
      1 PA         17.7770   10.9800  -20.9210 P.3       1 FDA2001     0.0000 
      2 O1A        18.0870    9.8010  -19.9850 O.co2     1 FDA2001     0.0000 
      3 O2A        18.4150   12.2910  -20.8160 O.co2     1 FDA2001     0.0000 
      4 O5B        16.3070   11.3030  -21.0570 O.3       1 FDA2001     0.0000 
      5 C5B        15.8090   12.3330  -21.9110 C.3       1 FDA2001     0.0000 
      6 C4B        14.2850   12.3930  -21.8030 C.3       1 FDA2001     0.0000 
      7 O4B        13.6130   11.2630  -22.2980 O.3       1 FDA2001     0.0000 
      8 C3B        13.7770   12.4590  -20.4020 C.3       1 FDA2001     0.0000 
      9 O3B        13.9700   13.7520  -19.9530 O.3       1 FDA2001     0.0000 
     10 C2B        12.3630   12.0650  -20.5760 C.3       1 FDA2001     0.0000 
     11 O2B        11.6250   13.1090  -21.1150 O.3       1 FDA2001     0.0000 
     12 C1B        12.4320   10.9900  -21.6150 C.3       1 FDA2001     0.0000 
     13 N9A        12.5970    9.6760  -20.9950 N.pl3     1 FDA2001     0.0000 
     14 C8A        13.7330    8.8950  -20.9360 C.2       1 FDA2001     0.0000 
     15 N7A        13.4810    7.7810  -20.2520 N.2       1 FDA2001     0.0000 
     16 C5A        12.1400    7.7920  -19.8460 C.ar      1 FDA2001     0.0000 
     17 C6A        11.3280    6.9390  -19.1110 C.ar      1 FDA2001     0.0000 
     18 N6A        11.8290    5.7020  -18.6170 N.pl3     1 FDA2001     0.0000 
     19 N1A        10.0590    7.2630  -18.8680 N.ar      1 FDA2001     0.0000 
     20 C2A         9.5150    8.4130  -19.3280 C.ar      1 FDA2001     0.0000 
     21 N3A        10.2810    9.2840  -20.0370 N.ar      1 FDA2001     0.0000 
     22 C4A        11.5700    9.0080  -20.3020 C.ar      1 FDA2001     0.0000 
     23 N1         21.9760    1.7750  -23.3770 N.am      1 FDA2001     0.0000 
     24 C2         23.1570    0.9850  -23.3710 C.2       1 FDA2001     0.0000 
     25 O2         24.0980    1.2080  -22.4560 O.2       1 FDA2001     0.0000 
     26 N3         23.4120   -0.0420  -24.2790 N.am      1 FDA2001     0.0000 
     27 C4         22.4690   -0.3050  -25.2530 C.2       1 FDA2001     0.0000 
     28 O4         22.6880   -1.2680  -26.1270 O.2       1 FDA2001     0.0000 
     29 C4X        21.2320    0.4830  -25.2940 C.2       1 FDA2001     0.0000 
     30 N5         20.2350    0.1460  -26.2860 N.pl3     1 FDA2001     0.0000 
     31 C5X        19.2440    1.1630  -26.4600 C.ar      1 FDA2001     0.0000 
     32 C6         18.4080    1.0710  -27.6790 C.ar      1 FDA2001     0.0000 
     33 C7         17.5280    2.1460  -27.8980 C.ar      1 FDA2001     0.0000 
     34 C7M        16.6630    2.0730  -29.1480 C.3       1 FDA2001     0.0000 
     35 C8         17.4230    3.2300  -26.9980 C.ar      1 FDA2001     0.0000 
     36 C8M        16.4500    4.3580  -27.2840 C.3       1 FDA2001     0.0000 
     37 C9         18.2060    3.3190  -25.8250 C.ar      1 FDA2001     0.0000 
     38 C9A        19.1410    2.2190  -25.5970 C.ar      1 FDA2001     0.0000 
     39 N10        19.9160    2.3050  -24.4220 N.pl3     1 FDA2001     0.0000 
     40 C10        21.0390    1.4690  -24.3870 C.2       1 FDA2001     0.0000 
     41 C1'        19.5790    3.1690  -23.2600 C.3       1 FDA2001     0.0000 
     42 C2'        20.3040    4.4850  -23.3560 C.3       1 FDA2001     0.0000 
     43 O2'        21.6470    4.2820  -23.0190 O.3       1 FDA2001     0.0000 
     44 C3'        19.7150    5.5410  -22.4550 C.3       1 FDA2001     0.0000 
     45 O3'        19.8130    5.0200  -21.1700 O.3       1 FDA2001     0.0000 
     46 C4'        18.2420    5.8570  -22.7430 C.3       1 FDA2001     0.0000 
     47 O4'        18.0220    6.0830  -24.1050 O.3       1 FDA2001     0.0000 
     48 C5'        17.7810    7.1410  -21.9930 C.3       1 FDA2001     0.0000 
     49 O5'        18.5710    8.2080  -22.4570 O.3       1 FDA2001     0.0000 
     50 P          18.0810    9.4260  -23.3510 P.3       1 FDA2001     0.0000 
     51 O1P        18.8850    9.5790  -24.6600 O.co2     1 FDA2001     0.0000 
     52 O2P        16.5590    9.2230  -23.5410 O.co2     1 FDA2001     0.0000 
     53 O3P        18.1670   10.7710  -22.3830 O.3       1 FDA2001     0.0000 
     54 H          16.0623   12.1498  -22.9605 H         1 FDA2001     0.0000 
     55 H          16.2022   13.3169  -21.6345 H         1 FDA2001     0.0000 
     56 H          13.9250   13.2900  -22.3145 H         1 FDA2001     0.0000 
     57 H          14.2892   11.7130  -19.8439 H         1 FDA2001     0.0000 
     58 H          11.9818   11.6616  -19.6917 H         1 FDA2001     0.0000 
     59 H          11.5901   11.0318  -22.2328 H         1 FDA2001     0.0000 
     60 H          14.5802    9.1458  -21.3432 H         1 FDA2001     0.0000 
     61 H          11.4257    5.3735  -17.7630 H         1 FDA2001     0.0000 
     62 H          12.5422    5.2655  -19.1656 H         1 FDA2001     0.0000 
     63 H           8.5179    8.6321  -19.1421 H         1 FDA2001     0.0000 
     64 H          21.8245    2.4932  -22.7130 H         1 FDA2001     0.0000 
     65 H          24.2734   -0.5807  -24.2202 H         1 FDA2001     0.0000 
     66 H          20.2443   -0.6840  -26.7772 H         1 FDA2001     0.0000 
     67 H          18.4897    0.2951  -28.2726 H         1 FDA2001     0.0000 
     68 H          18.1432    4.0648  -25.1871 H         1 FDA2001     0.0000 
     69 H          19.8629    2.6694  -22.3289 H         1 FDA2001     0.0000 
     70 H          18.5010    3.3538  -23.2328 H         1 FDA2001     0.0000 
     71 H          20.2215    4.8382  -24.3878 H         1 FDA2001     0.0000 
     72 H          20.2906    6.4427  -22.5535 H         1 FDA2001     0.0000 
     73 H          17.6349    5.0436  -22.3685 H         1 FDA2001     0.0000 
     74 H          17.9078    6.9491  -20.9304 H         1 FDA2001     0.0000 
     75 H          16.7233    7.2703  -22.2085 H         1 FDA2001     0.0000 
     76 H          17.2158    2.0344  -29.9804 H         1 FDA2001     0.0000 
     77 H          16.0771    1.2626  -29.1474 H         1 FDA2001     0.0000 
     78 H          16.0628    2.8685  -29.2313 H         1 FDA2001     0.0000 
     79 H          16.4760    5.0602  -26.5725 H         1 FDA2001     0.0000 
     80 H          16.6525    4.8121  -28.1516 H         1 FDA2001     0.0000 
     81 H          15.5068    4.0302  -27.3380 H         1 FDA2001     0.0000 
     82 H          14.9323   13.9498  -20.1401 H         1 FDA2001     0.0000 
     83 H          12.2269   13.9058  -21.0618 H         1 FDA2001     0.0000 
     84 H          21.6555    4.2107  -22.0216 H         1 FDA2001     0.0000 
     85 H          20.1108    5.7872  -20.6019 H         1 FDA2001     0.0000 
     86 H          18.8314    6.5792  -24.4189 H         1 FDA2001     0.0000 
@<TRIPOS>BOND
     1    2    1 ar   
     2    3    1 ar   
     3    4    1 1    
     4   53    1 1    
     5    5    4 1    
     6    6    5 1    
     7   54    5 1    
     8   55    5 1    
     9    7    6 1    
    10    8    6 1    
    11   56    6 1    
    12   12    7 1    
    13    9    8 1    
    14   10    8 1    
    15   57    8 1    
    16   82    9 1    
    17   11   10 1    
    18   12   10 1    
    19   58   10 1    
    20   83   11 1    
    21   13   12 1    
    22   59   12 1    
    23   14   13 1    
    24   22   13 1    
    25   15   14 2    
    26   60   14 1    
    27   16   15 1    
    28   17   16 ar   
    29   22   16 ar   
    30   18   17 1    
    31   19   17 ar   
    32   61   18 1    
    33   62   18 1    
    34   20   19 ar   
    35   21   20 ar   
    36   63   20 1    
    37   22   21 ar   
    38   24   23 am   
    39   40   23 1    
    40   64   23 1    
    41   25   24 2    
    42   26   24 am   
    43   27   26 am   
    44   65   26 1    
    45   28   27 2    
    46   29   27 1    
    47   30   29 1    
    48   40   29 2    
    49   31   30 1    
    50   66   30 1    
    51   32   31 ar   
    52   38   31 ar   
    53   33   32 ar   
    54   67   32 1    
    55   34   33 1    
    56   35   33 ar   
    57   76   34 1    
    58   77   34 1    
    59   78   34 1    
    60   36   35 1    
    61   37   35 ar   
    62   79   36 1    
    63   80   36 1    
    64   81   36 1    
    65   38   37 ar   
    66   68   37 1    
    67   39   38 1    
    68   40   39 1    
    69   41   39 1    
    70   42   41 1    
    71   69   41 1    
    72   70   41 1    
    73   43   42 1    
    74   44   42 1    
    75   71   42 1    
    76   84   43 1    
    77   45   44 1    
    78   46   44 1    
    79   72   44 1    
    80   85   45 1    
    81   47   46 1    
    82   48   46 1    
    83   73   46 1    
    84   86   47 1    
    85   49   48 1    
    86   74   48 1    
    87   75   48 1    
    88   50   49 1    
    89   51   50 ar   
    90   52   50 ar   
    91   53   50 1    
@<TRIPOS>SUBSTRUCTURE
     1 FDA2001     1 GROUP   
@<TRIPOS>SET

