#    Name: 1nax_IH5_1_INTS_M
#    Modification time : Mon Mar 24 17:54:07 2014

@<TRIPOS>MOLECULE
1nax_IH5_1_INTS_M
   97     0     9     0     0
SMALL
NO_CHARGES


@<TRIPOS>ATOM
      1 N           7.9790   16.7005   35.1430 N.am      1 SEC2        0.0000 
      2 N           8.2580   16.3210   33.8390 N.am      7 SEL2        0.0000 
      3 N           7.7000   17.0800   36.4470 N.am      4 SEP2        0.0000 
      4 NZ         10.9590   18.0375   34.9525 N.4       2 LYC4        0.0000 
      5 NZ         10.0930   17.6900   33.6300 N.4       8 LYL4        0.0000 
      6 NZ         12.9850   18.7070   35.7190 N.4       5 LYP4        0.0000 
      7 N          11.5940   18.2095   34.0130 N.am      1 SEC2        0.0000 
      8 N          10.0930   17.6900   33.6300 N.am      7 SEL2        0.0000 
      9 N          13.0950   18.7290   34.3960 N.am      4 SEP2        0.0000 
     10 N          10.9590   18.0375   34.9525 N.am      1 SEC2        0.0000 
     11 N          11.8250   18.3850   36.2750 N.am      4 SEP2        0.0000 
     12 CA          9.4295   16.5210   31.1455 C.3       3 GLC5        0.0000 
     13 CA          8.2520   18.0970   32.1980 C.3       9 GLL5        0.0000 
     14 CA         10.6070   14.9450   30.0930 C.3       6 GLP5        0.0000 
     15 CA          0.3325   25.1485   29.2980 C.3       3 GLC5        0.0000 
     16 CA          1.9860   24.0590   30.2110 C.3       9 GLL5        0.0000 
     17 CA         -1.3210   26.2380   28.3850 C.3       6 GLP5        0.0000 
     18 N           2.1830   25.2240   28.2225 N.am      1 SEC2        0.0000 
     19 N           1.7370   25.2190   29.5600 N.am      7 SEL2        0.0000 
     20 N           2.6290   25.2290   26.8850 N.am      4 SEP2        0.0000 
     21 CA          0.8650   22.8880   34.1080 C.3       3 GLC5        0.0000 
     22 CA          1.5420   22.4120   32.0850 C.3       9 GLL5        0.0000 
     23 CA          0.1880   23.3640   36.1310 C.3       6 GLP5        0.0000 
     24 CA         -0.7105   26.1225   30.7625 C.3       3 GLC5        0.0000 
     25 CA          0.1000   24.6810   31.9310 C.3       9 GLL5        0.0000 
     26 CA         -1.5210   27.5640   29.5940 C.3       6 GLP5        0.0000 
     27 CA         -0.6215   26.9985   33.2215 C.3       3 GLC5        0.0000 
     28 CA          0.7080   25.4970   33.0900 C.3       9 GLL5        0.0000 
     29 CA         -1.9510   28.5000   33.3530 C.3       6 GLP5        0.0000 
     30 CA          0.9395   26.9765   34.4120 C.3       3 GLC5        0.0000 
     31 CA          1.1710   28.4560   35.7340 C.3       6 GLP5        0.0000 
     32 CA          2.7280   25.3165   32.6085 C.3       3 GLC5        0.0000 
     33 CA          4.7480   25.1360   32.1270 C.3       6 GLP5        0.0000 
     34 CA         -1.9840   25.7580   33.2410 C.3       3 GLC5        0.0000 
     35 CA         -1.1790   23.9030   32.4340 C.3       9 GLL5        0.0000 
     36 CA         -2.7890   27.6130   34.0480 C.3       6 GLP5        0.0000 
     37 CA         -1.5805   23.0405   34.0490 C.3       3 GLC5        0.0000 
     38 CA         -1.9820   22.1780   35.6640 C.3       6 GLP5        0.0000 
     39 CA         -2.9495   24.1775   31.7445 C.3       3 GLC5        0.0000 
     40 CA         -4.7200   24.4520   31.0550 C.3       6 GLP5        0.0000 
     41 CA         -1.1975   22.6445   30.7455 C.3       3 GLC5        0.0000 
     42 CA         -1.2160   21.3860   29.0570 C.3       6 GLP5        0.0000 
     43 CA          7.9065   20.6550   33.7105 C.3       3 GLC5        0.0000 
     44 CA          6.3950   19.6370   33.3930 C.3       9 GLL5        0.0000 
     45 CA          9.4180   21.6730   34.0280 C.3       6 GLP5        0.0000 
     46 CA          5.4385   18.3705   34.6965 C.3       3 GLC5        0.0000 
     47 CA          4.4820   17.1040   36.0000 C.3       6 GLP5        0.0000 
     48 CA          4.7370   21.4115   36.4105 C.3       3 GLC5        0.0000 
     49 CA          4.5760   21.2190   34.6190 C.3       9 GLL5        0.0000 
     50 CA          4.8980   21.6040   38.2020 C.3       6 GLP5        0.0000 
     51 CA          5.6190   22.8945   34.9725 C.3       3 GLC5        0.0000 
     52 CA          6.6620   24.5700   35.3260 C.3       6 GLP5        0.0000 
     53 CA          3.4925   19.6190   34.8210 C.3       3 GLC5        0.0000 
     54 CA          2.4090   18.0190   35.0230 C.3       6 GLP5        0.0000 
     55 CA          3.3225   19.6600   28.3445 C.3       3 GLC5        0.0000 
     56 CA          3.5950   18.4660   29.9590 C.3       9 GLL5        0.0000 
     57 CA          3.0500   20.8540   26.7300 C.3       6 GLP5        0.0000 
     58 CA          4.8505   17.5160   28.3990 C.3       3 GLC5        0.0000 
     59 CA          6.1060   16.5660   26.8390 C.3       6 GLP5        0.0000 
     60 CA          4.4475   16.5230   30.3690 C.3       3 GLC5        0.0000 
     61 CA          5.3000   14.5800   30.7790 C.3       6 GLP5        0.0000 
     62 CA          1.6445   19.3185   29.5680 C.3       3 GLC5        0.0000 
     63 CA         -0.3060   20.1710   29.1770 C.3       6 GLP5        0.0000 
     64 CA          2.5955   17.7920   28.5605 C.3       3 GLC5        0.0000 
     65 CA          1.5960   17.1180   27.1620 C.3       6 GLP5        0.0000 
     66 CA          8.4860   20.0470   33.1455 C.3       3 GLC5        0.0000 
     67 CA          6.8560   18.7450   32.3280 C.3       9 GLL5        0.0000 
     68 CA          5.0743   17.4668   32.7540 C.3       3 GLC5        0.0000 
     69 CA          3.7430   16.3600   33.7190 C.3       6 GLP5        0.0000 
     70 CA          7.6007   19.1058   30.3062 C.3       3 GLC5        0.0000 
     71 CA          5.9550   18.4020   31.2500 C.3       9 GLL5        0.0000 
     72 CA          8.4470   19.8000   28.8560 C.3       6 GLP5        0.0000 
     73 CA          5.2982   16.6212   31.0155 C.3       3 GLC5        0.0000 
     74 CA          3.9298   17.5273   32.1628 C.3       3 GLC5        0.0000 
     75 CA          4.6380   18.9230   31.2540 C.3       9 GLL5        0.0000 
     76 CA          3.5103   19.0072   33.9355 C.3       3 GLC5        0.0000 
     77 CA          4.1690   19.8260   32.3280 C.3       9 GLL5        0.0000 
     78 CA          3.8520   23.4565   31.5260 C.3       3 GLC5        0.0000 
     79 CA          2.5960   21.5540   31.5360 C.3       9 GLL5        0.0000 
     80 CA          0.6055   20.5550   32.1913 C.3       3 GLC5        0.0000 
     81 CA         -0.8580   19.1270   32.5720 C.3       6 GLP5        0.0000 
     82 CA          3.9152   22.0790   28.4192 C.3       3 GLC5        0.0000 
     83 CA          3.3160   22.0000   30.3140 C.3       9 GLL5        0.0000 
     84 CA          4.6690   21.5480   26.8340 C.3       6 GLP5        0.0000 
     85 CA          3.6223   24.3877   31.0400 C.3       3 GLC5        0.0000 
     86 CA          3.0070   23.2200   29.6950 C.3       9 GLL5        0.0000 
     87 CA          0.9473   23.0418   29.0570 C.3       3 GLC5        0.0000 
     88 CA         -0.6020   22.4440   28.1610 C.3       6 GLP5        0.0000 
     89 CA          2.2612   23.9382   28.0530 C.3       3 GLC5        0.0000 
     90 CA          2.0260   24.2370   26.1530 C.3       6 GLP5        0.0000 
     91 CA          3.0637   24.0958   31.9413 C.3       3 GLC5        0.0000 
     92 CA          1.2170   23.6990   31.4260 C.3       9 GLL5        0.0000 
     93 CA          0.0283   23.3170   29.9198 C.3       3 GLC5        0.0000 
     94 CA          0.9715   21.1327   30.3410 C.3       3 GLC5        0.0000 
     95 CA          0.2960   24.2265   34.3208 C.3       3 GLC5        0.0000 
     96 CA          1.5185   26.5565   31.6173 C.3       3 GLC5        0.0000 
     97 CA          2.6330   28.0240   30.7240 C.3       6 GLP5        0.0000 
@<TRIPOS>BOND
@<TRIPOS>SUBSTRUCTURE
     1 SEC2        1 GROUP        1 X    SEC  0     ROOT SEC X 2
     2 LYC4        4 GROUP        1 X    LYC  0     **** LYC X 4
     3 GLC5       12 GROUP        1 X    GLC  0     **** GLC X 6
     4 SEP2        3 GROUP        1 Y    SEP  0     ROOT SEP Y 9
     5 LYP4        6 GROUP        1 Y    LYP  0     **** LYP Y 11
     6 GLP5       14 GROUP        1 Y    GLP  0     **** GLP Y 13
     7 SEL2        2 GROUP        1 Z    SEL  0     ROOT SEL Z 16
     8 LYL4        5 GROUP        1 Z    LYL  0     **** LYL Z 18
     9 GLL5       13 GROUP        1 Z    GLL  0     **** GLL Z 20
@<TRIPOS>SET

