#    Name: 1nax_IH5_1_ligand
#    Modification time : Mon Mar 24 17:54:07 2014

@<TRIPOS>MOLECULE
1nax_IH5_1_ligand
   38    39     1     0     0
SMALL
NO_CHARGES


@<TRIPOS>ATOM
      1 O3          8.2580   16.3210   33.8390 O.co2     1 IH5501      0.0000 
      2 C15         8.9500   17.3480   33.2920 C.2       1 IH5501      0.0000 
      3 O4         10.0930   17.6900   33.6300 O.co2     1 IH5501      0.0000 
      4 C13         8.2520   18.0970   32.1980 C.3       1 IH5501      0.0000 
      5 C01         6.8560   18.7450   32.3280 C.ar      1 IH5501      0.0000 
      6 C11         5.9550   18.4020   31.2500 C.ar      1 IH5501      0.0000 
      7 C09         4.6380   18.9230   31.2540 C.ar      1 IH5501      0.0000 
      8 C07         4.1690   19.8260   32.3280 C.ar      1 IH5501      0.0000 
      9 O2          2.8870   20.2670   32.2250 O.3       1 IH5501      0.0000 
     10 C2          2.5960   21.5540   31.5360 C.ar      1 IH5501      0.0000 
     11 C12         3.3160   22.0000   30.3140 C.ar      1 IH5501      0.0000 
     12 C10         3.0070   23.2200   29.6950 C.ar      1 IH5501      0.0000 
     13 C8          1.9860   24.0590   30.2110 C.ar      1 IH5501      0.0000 
     14 O1          1.7370   25.2190   29.5600 O.3       1 IH5501      0.0000 
     15 C6          1.2170   23.6990   31.4260 C.ar      1 IH5501      0.0000 
     16 C4          1.5420   22.4120   32.0850 C.ar      1 IH5501      0.0000 
     17 C14         0.1000   24.6810   31.9310 C.3       1 IH5501      0.0000 
     18 C16         0.7080   25.4970   33.0900 C.3       1 IH5501      0.0000 
     19 C18        -1.1790   23.9030   32.4340 C.3       1 IH5501      0.0000 
     20 C05         5.0540   20.1650   33.3680 C.ar      1 IH5501      0.0000 
     21 C03         6.3950   19.6370   33.3930 C.ar      1 IH5501      0.0000 
     22 CL5         4.5760   21.2190   34.6190 Cl        1 IH5501      0.0000 
     23 CL6         3.5950   18.4660   29.9590 Cl        1 IH5501      0.0000 
     24 H           8.2114   17.4173   31.2655 H         1 IH5501      0.0000 
     25 H           8.9624   18.9242   31.8180 H         1 IH5501      0.0000 
     26 H           6.2745   17.7959   30.5079 H         1 IH5501      0.0000 
     27 H           4.0402   21.3833   29.9480 H         1 IH5501      0.0000 
     28 H           3.5225   23.5161   28.8569 H         1 IH5501      0.0000 
     29 H           1.0383   22.1353   32.9037 H         1 IH5501      0.0000 
     30 H          -0.1675   25.3338   31.1439 H         1 IH5501      0.0000 
     31 H           7.0258   19.8775   34.1434 H         1 IH5501      0.0000 
     32 H           1.0072   24.9088   33.8414 H         1 IH5501      0.0000 
     33 H           1.5051   26.0240   32.7951 H         1 IH5501      0.0000 
     34 H           0.0510   26.1476   33.4708 H         1 IH5501      0.0000 
     35 H          -0.9644   23.2855   33.1907 H         1 IH5501      0.0000 
     36 H          -1.8900   24.5272   32.7578 H         1 IH5501      0.0000 
     37 H          -1.5850   23.3474   31.7084 H         1 IH5501      0.0000 
     38 H           2.3144   25.7964   30.1374 H         1 IH5501      0.0000 
@<TRIPOS>BOND
     1    2    1 ar   
     2    3    2 ar   
     3    4    2 1    
     4    5    4 1    
     5   24    4 1    
     6   25    4 1    
     7    6    5 ar   
     8   21    5 ar   
     9    7    6 ar   
    10   26    6 1    
    11    8    7 ar   
    12   23    7 1    
    13    9    8 1    
    14   20    8 ar   
    15   10    9 1    
    16   11   10 ar   
    17   16   10 ar   
    18   12   11 ar   
    19   27   11 1    
    20   13   12 ar   
    21   28   12 1    
    22   14   13 1    
    23   15   13 ar   
    24   38   14 1    
    25   16   15 ar   
    26   17   15 1    
    27   29   16 1    
    28   18   17 1    
    29   19   17 1    
    30   30   17 1    
    31   32   18 1    
    32   33   18 1    
    33   34   18 1    
    34   35   19 1    
    35   36   19 1    
    36   37   19 1    
    37   21   20 ar   
    38   22   20 1    
    39   31   21 1    
@<TRIPOS>SUBSTRUCTURE
     1 IH5501      1 GROUP   
@<TRIPOS>SET

