#    Name: 1rt6_UC3_1_INTS_M
#    Modification time : Tue Mar 25 01:12:58 2014

@<TRIPOS>MOLECULE
1rt6_UC3_1_INTS_M
   57     0     6     0     0
SMALL
NO_CHARGES


@<TRIPOS>ATOM
      1 CA          0.3945  -33.8255   20.7250 C.3       2 GLC5        0.0000 
      2 CA         -0.0230  -35.6750   21.0390 C.3       6 GLL5        0.0000 
      3 CA          0.8120  -31.9760   20.4110 C.3       4 GLP5        0.0000 
      4 CA         -0.2555  -34.9485   18.9450 C.3       2 GLC5        0.0000 
      5 CA         -0.4880  -34.2220   16.8510 C.3       4 GLP5        0.0000 
      6 CA          1.3055  -34.0330   19.4130 C.3       2 GLC5        0.0000 
      7 CA          0.9110  -35.9430   19.6510 C.3       6 GLL5        0.0000 
      8 CA          1.7000  -32.1230   19.1750 C.3       4 GLP5        0.0000 
      9 CA          1.7080  -35.7675   18.2155 C.3       2 GLC5        0.0000 
     10 CA          2.5050  -35.5920   16.7800 C.3       4 GLP5        0.0000 
     11 O          -1.5175  -34.7200   19.8500 O.2       1 ALC1        0.0000 
     12 O          -1.1070  -34.7630   21.0100 O.2       5 ALL1        0.0000 
     13 O          -1.9280  -34.6770   18.6900 O.2       3 ALP1        0.0000 
     14 CA         -2.5285  -36.2140   21.1940 C.3       2 GLC5        0.0000 
     15 CA         -1.9580  -34.2930   22.0900 C.3       6 GLL5        0.0000 
     16 CA         -3.0990  -38.1350   20.2980 C.3       4 GLP5        0.0000 
     17 CA         -4.5475  -34.8745   25.6440 C.3       2 GLC5        0.0000 
     18 CA         -4.6980  -32.8530   25.4730 C.3       6 GLL5        0.0000 
     19 CA         -4.3970  -36.8960   25.8150 C.3       4 GLP5        0.0000 
     20 CA         -5.2190  -33.1080   26.9705 C.3       2 GLC5        0.0000 
     21 CA         -5.7400  -33.3630   28.4680 C.3       4 GLP5        0.0000 
     22 CA         -1.5170  -32.4680   22.2300 C.3       2 GLC5        0.0000 
     23 CA         -3.2510  -33.7920   21.8130 C.3       6 GLL5        0.0000 
     24 CA          0.2170  -31.1440   22.6470 C.3       4 GLP5        0.0000 
     25 CA          0.3220  -31.1710   24.5895 C.3       2 GLC5        0.0000 
     26 CA          0.4270  -31.1980   26.5320 C.3       6 GLL5        0.0000 
     27 CA          0.9110  -29.9560   27.6670 C.3       2 GLC5        0.0000 
     28 CA          1.3950  -28.7140   28.8020 C.3       4 GLP5        0.0000 
     29 CA          1.6880  -33.7260   28.4305 C.3       2 GLC5        0.0000 
     30 CA         -0.2300  -32.6810   28.4920 C.3       6 GLL5        0.0000 
     31 CA          3.6060  -34.7710   28.3690 C.3       4 GLP5        0.0000 
     32 CA          0.4995  -30.9690   29.2900 C.3       2 GLC5        0.0000 
     33 CA          1.2290  -29.2570   30.0880 C.3       4 GLP5        0.0000 
     34 CA          2.5510  -36.9735   25.6905 C.3       2 GLC5        0.0000 
     35 CA          1.3860  -36.9670   24.2490 C.3       6 GLL5        0.0000 
     36 CA          3.7160  -36.9800   27.1320 C.3       4 GLP5        0.0000 
     37 CA         -0.3760  -37.1280   19.5190 C.3       2 GLC5        0.0000 
     38 CA         -1.1960  -38.4470   18.6930 C.3       4 GLP5        0.0000 
     39 CA         -0.9052  -32.6157   23.1339 C.3       2 GLC5        0.0000 
     40 CA         -3.6827  -35.2598   25.0733 C.3       2 GLC5        0.0000 
     41 CA         -2.3210  -33.8670   24.4810 C.3       6 GLL5        0.0000 
     42 CA         -4.3104  -35.3366   22.9419 C.3       2 GLC5        0.0000 
     43 CA         -4.0730  -33.3340   22.8520 C.3       6 GLL5        0.0000 
     44 CA         -5.2820  -36.9850   23.4820 C.3       4 GLP5        0.0000 
     45 CA         -4.3960  -31.2976   24.2809 C.3       2 GLC5        0.0000 
     46 CA         -4.6770  -29.3700   24.7220 C.3       4 GLP5        0.0000 
     47 CA         -5.5730  -33.7965   21.8953 C.3       2 GLC5        0.0000 
     48 CA         -7.4840  -34.0300   21.4580 C.3       4 GLP5        0.0000 
     49 CA         -0.7930  -33.8490   28.8137 C.3       2 GLC5        0.0000 
     50 CA         -0.1460  -32.5590   26.9630 C.3       6 GLL5        0.0000 
     51 CA         -1.3980  -35.0780   29.9000 C.3       4 GLP5        0.0000 
     52 CA          2.1288  -34.5133   22.3845 C.3       2 GLC5        0.0000 
     53 CA          1.4380  -36.2030   22.9020 C.3       6 GLL5        0.0000 
     54 CA          2.3010  -32.5140   22.3540 C.3       4 GLP5        0.0000 
     55 CA          2.4907  -38.4153   22.3324 C.3       2 GLC5        0.0000 
     56 CA          2.4750  -36.8220   21.9280 C.3       6 GLL5        0.0000 
     57 CA          3.0380  -40.1270   21.9130 C.3       4 GLP5        0.0000 
@<TRIPOS>BOND
@<TRIPOS>SUBSTRUCTURE
     1 ALC1       11 GROUP        1 X    ALC  0     ROOT ALC X 1
     2 GLC5        1 GROUP        1 X    GLC  0     **** GLC X 6
     3 ALP1       13 GROUP        1 Y    ALP  0     ROOT ALP Y 8
     4 GLP5        3 GROUP        1 Y    GLP  0     **** GLP Y 13
     5 ALL1       12 GROUP        1 Z    ALL  0     ROOT ALL Z 15
     6 GLL5        2 GROUP        1 Z    GLL  0     **** GLL Z 20
@<TRIPOS>SET

