#    Name: 1rt6_UC3_1_ligand
#    Modification time : Tue Mar 25 01:12:58 2014

@<TRIPOS>MOLECULE
1rt6_UC3_1_ligand
   38    38     1     0     0
SMALL
NO_CHARGES


@<TRIPOS>ATOM
      1 C          -0.0230  -35.6750   21.0390 C.2       1 UC3999      0.0000 
      2 S           0.9110  -35.9430   19.6510 S.2       1 UC3999      0.0000 
      3 N          -1.1070  -34.7630   21.0100 N.am      1 UC3999      0.0000 
      4 C1         -1.9580  -34.2930   22.0900 C.ar      1 UC3999      0.0000 
      5 C2         -1.5100  -34.3230   23.4310 C.ar      1 UC3999      0.0000 
      6 C3         -2.3210  -33.8670   24.4810 C.ar      1 UC3999      0.0000 
      7 C4         -3.6160  -33.3800   24.1820 C.ar      1 UC3999      0.0000 
      8 CL4        -4.6980  -32.8530   25.4730 Cl        1 UC3999      0.0000 
      9 C5         -4.0730  -33.3340   22.8520 C.ar      1 UC3999      0.0000 
     10 C6         -3.2510  -33.7920   21.8130 C.ar      1 UC3999      0.0000 
     11 CA         -1.7430  -33.9350   25.9080 C.2       1 UC3999      0.0000 
     12 OB         -1.4760  -32.6780   26.4190 O.3       1 UC3999      0.0000 
     13 OA         -1.5400  -34.9660   26.5260 O.2       1 UC3999      0.0000 
     14 CC         -0.1460  -32.5590   26.9630 C.3       1 UC3999      0.0000 
     15 CD          0.4270  -31.1980   26.5320 C.3       1 UC3999      0.0000 
     16 CE         -0.2300  -32.6810   28.4920 C.3       1 UC3999      0.0000 
     17 OF          0.1220  -36.2580   22.2850 O.3       1 UC3999      0.0000 
     18 CG          1.4380  -36.2030   22.9020 C.3       1 UC3999      0.0000 
     19 CH          1.3860  -36.9670   24.2490 C.3       1 UC3999      0.0000 
     20 CI          2.4750  -36.8220   21.9280 C.3       1 UC3999      0.0000 
     21 H          -1.3487  -34.3440   20.0370 H         1 UC3999      0.0000 
     22 H          -0.5673  -34.6884   23.6362 H         1 UC3999      0.0000 
     23 H          -5.0054  -32.9659   22.6457 H         1 UC3999      0.0000 
     24 H          -3.5847  -33.7658   20.8435 H         1 UC3999      0.0000 
     25 H           0.4908  -33.3332   26.5884 H         1 UC3999      0.0000 
     26 H           1.7214  -35.1871   23.0986 H         1 UC3999      0.0000 
     27 H           1.3518  -31.0559   26.8848 H         1 UC3999      0.0000 
     28 H           0.4769  -31.1144   25.5368 H         1 UC3999      0.0000 
     29 H          -0.1327  -30.4380   26.8623 H         1 UC3999      0.0000 
     30 H           0.6702  -32.6044   28.9207 H         1 UC3999      0.0000 
     31 H          -0.8060  -31.9673   28.8904 H         1 UC3999      0.0000 
     32 H          -0.6151  -33.5598   28.7739 H         1 UC3999      0.0000 
     33 H           2.2705  -36.9580   24.7155 H         1 UC3999      0.0000 
     34 H           0.7191  -36.5667   24.8775 H         1 UC3999      0.0000 
     35 H           1.1310  -37.9257   24.1226 H         1 UC3999      0.0000 
     36 H           3.3988  -36.8073   22.3106 H         1 UC3999      0.0000 
     37 H           2.2612  -37.7753   21.7147 H         1 UC3999      0.0000 
     38 H           2.5097  -36.3279   21.0593 H         1 UC3999      0.0000 
@<TRIPOS>BOND
     1    2    1 2    
     2    3    1 am   
     3   17    1 1    
     4    4    3 1    
     5   21    3 1    
     6    5    4 ar   
     7   10    4 ar   
     8    6    5 ar   
     9   22    5 1    
    10    7    6 ar   
    11   11    6 1    
    12    8    7 1    
    13    9    7 ar   
    14   10    9 ar   
    15   23    9 1    
    16   24   10 1    
    17   12   11 1    
    18   13   11 2    
    19   14   12 1    
    20   15   14 1    
    21   16   14 1    
    22   25   14 1    
    23   27   15 1    
    24   28   15 1    
    25   29   15 1    
    26   30   16 1    
    27   31   16 1    
    28   32   16 1    
    29   18   17 1    
    30   19   18 1    
    31   20   18 1    
    32   26   18 1    
    33   33   19 1    
    34   34   19 1    
    35   35   19 1    
    36   36   20 1    
    37   37   20 1    
    38   38   20 1    
@<TRIPOS>SUBSTRUCTURE
     1 UC3999      1 GROUP   
@<TRIPOS>SET

