#    Name: 2gyv_HBP_2_INTS_M
#    Modification time : Tue Mar 25 15:13:01 2014

@<TRIPOS>MOLECULE
2gyv_HBP_2_INTS_M
   50     0     3     0     0
SMALL
NO_CHARGES


@<TRIPOS>ATOM
      1 CA         14.8765   -9.2415  -36.4780 C.3       1 GLC5        0.0000 
      2 CA         13.3850   -9.6890  -37.0540 C.3       3 GLL5        0.0000 
      3 CA         16.3680   -8.7940  -35.9020 C.3       2 GLP5        0.0000 
      4 CA         12.3550  -12.7175  -38.9875 C.3       1 GLC5        0.0000 
      5 CA         13.7140  -12.4740  -38.0440 C.3       3 GLL5        0.0000 
      6 CA         10.9960  -12.9610  -39.9310 C.3       2 GLP5        0.0000 
      7 CA         15.5190  -12.2485  -37.8765 C.3       1 GLC5        0.0000 
      8 CA         17.3240  -12.0230  -37.7090 C.3       2 GLP5        0.0000 
      9 CA         14.2680   -7.2245  -41.2485 C.3       1 GLC5        0.0000 
     10 CA         14.7910   -9.1430  -40.4650 C.3       3 GLL5        0.0000 
     11 CA         13.7450   -5.3060  -42.0320 C.3       2 GLP5        0.0000 
     12 CA         11.4000   -7.6055  -38.0495 C.3       1 GLC5        0.0000 
     13 CA         11.9250   -9.2530  -37.1530 C.3       3 GLL5        0.0000 
     14 CA         10.8750   -5.9580  -38.9460 C.3       2 GLP5        0.0000 
     15 CA          8.0920   -8.7235  -34.7270 C.3       1 GLC5        0.0000 
     16 CA          9.1050   -7.8550  -35.7420 C.3       3 GLL5        0.0000 
     17 CA          7.0790   -9.5920  -33.7120 C.3       2 GLP5        0.0000 
     18 CA          7.8320   -7.6250  -34.0470 C.3       1 GLC5        0.0000 
     19 CA          8.3860   -6.5490  -35.4100 C.3       3 GLL5        0.0000 
     20 CA          7.2780   -8.7010  -32.6840 C.3       2 GLP5        0.0000 
     21 CA          5.8175   -6.5505  -34.1810 C.3       1 GLC5        0.0000 
     22 CA          6.9050   -6.6020  -35.8040 C.3       3 GLL5        0.0000 
     23 CA          4.7300   -6.4990  -32.5580 C.3       2 GLP5        0.0000 
     24 CA          6.9920   -8.0970  -34.7580 C.3       1 GLC5        0.0000 
     25 CA          6.4405   -1.4495  -34.5130 C.3       1 GLC5        0.0000 
     26 CA          5.8890   -2.9950  -35.6270 C.3       3 GLL5        0.0000 
     27 CA          6.9920    0.0960  -33.3990 C.3       2 GLP5        0.0000 
     28 CA          5.8410   -5.5210  -33.2745 C.3       1 GLC5        0.0000 
     29 CA          6.9520   -4.5430  -33.9910 C.3       3 GLL5        0.0000 
     30 CA          8.6020   -3.6605  -33.3680 C.3       1 GLC5        0.0000 
     31 CA         10.2520   -2.7780  -32.7450 C.3       2 GLP5        0.0000 
     32 CA          7.1150   -6.6220  -33.3375 C.3       1 GLC5        0.0000 
     33 CA         11.6870  -10.5425  -38.4447 C.3       1 GLC5        0.0000 
     34 CA         10.7190  -11.6140  -39.7860 C.3       2 GLP5        0.0000 
     35 CA         10.0633   -9.5495  -34.4548 C.3       1 GLC5        0.0000 
     36 CA         11.2660   -9.1750  -35.7810 C.3       3 GLL5        0.0000 
     37 CA          9.1880  -10.6000  -33.2860 C.3       2 GLP5        0.0000 
     38 CA         13.3537  -10.1491  -41.8025 C.3       1 GLC5        0.0000 
     39 CA         14.5810  -11.5020  -40.1280 C.3       3 GLL5        0.0000 
     40 CA         11.9320  -10.2430  -43.1050 C.3       2 GLP5        0.0000 
     41 CA         16.2540   -9.8450  -42.1827 C.3       1 GLC5        0.0000 
     42 CA         14.9390  -10.4330  -40.9420 C.3       3 GLL5        0.0000 
     43 CA         17.6430   -9.9020  -43.6620 C.3       2 GLP5        0.0000 
     44 CA          9.9985   -6.5760  -37.2265 C.3       1 GLC5        0.0000 
     45 CA         10.6110   -7.8230  -35.4660 C.3       3 GLL5        0.0000 
     46 CA          4.1792   -5.0572  -38.4298 C.3       1 GLC5        0.0000 
     47 CA          5.8630   -5.0780  -37.4080 C.3       3 GLL5        0.0000 
     48 CA          2.7470   -5.6640  -39.2610 C.3       2 GLP5        0.0000 
     49 CA         16.0984  -10.9551  -39.6054 C.3       1 GLC5        0.0000 
     50 CA         17.6120  -11.9300  -39.1920 C.3       2 GLP5        0.0000 
@<TRIPOS>BOND
@<TRIPOS>SUBSTRUCTURE
     1 GLC5        1 GROUP        1 X    GLC  0     ROOT GLC X 6
     2 GLP5        3 GROUP        1 Y    GLP  0     ROOT GLP Y 13
     3 GLL5        2 GROUP        1 Z    GLL  0     ROOT GLL Z 20
@<TRIPOS>SET

