#    Name: 2gyv_HBP_2_ligand
#    Modification time : Tue Mar 25 15:13:01 2014

@<TRIPOS>MOLECULE
2gyv_HBP_2_ligand
   49    50     1     0     0
SMALL
NO_CHARGES


@<TRIPOS>ATOM
      1 C1         13.3850   -9.6890  -37.0540 C.3       1 HBP545      0.0000 
      2 C5         11.2660   -9.1750  -35.7810 C.3       1 HBP545      0.0000 
      3 O10        12.8610  -13.3590  -36.0630 O.2       1 HBP545      0.0000 
      4 N9         13.2310  -12.3060  -36.8930 N.2       1 HBP545      0.0000 
      5 C8A        13.7140  -12.4740  -38.0440 C.2       1 HBP545      0.0000 
      6 C7         14.0760  -11.2760  -38.8500 C.2       1 HBP545      0.0000 
      7 C6         14.5810  -11.5020  -40.1280 C.2       1 HBP545      0.0000 
      8 C4         14.7910   -9.1430  -40.4650 C.2       1 HBP545      0.0000 
      9 C3         14.2810   -8.9560  -39.1790 C.2       1 HBP545      0.0000 
     10 N2         13.9280   -9.9990  -38.3920 N.pl3     1 HBP545      0.0000 
     11 C2         11.9250   -9.2530  -37.1530 C.3       1 HBP545      0.0000 
     12 C5A        14.9390  -10.4330  -40.9420 C.2       1 HBP545      0.0000 
     13 C8         10.6110   -7.8230  -35.4660 C.3       1 HBP545      0.0000 
     14 C11         9.1050   -7.8550  -35.7420 C.3       1 HBP545      0.0000 
     15 C14         8.3860   -6.5490  -35.4100 C.3       1 HBP545      0.0000 
     16 C17         6.9050   -6.6020  -35.8040 C.3       1 HBP545      0.0000 
     17 N20         6.3710   -5.2800  -36.1830 N.pl3     1 HBP545      0.0000 
     18 C21         5.8630   -5.0780  -37.4080 C.2       1 HBP545      0.0000 
     19 C22         5.3600   -3.8230  -37.7890 C.2       1 HBP545      0.0000 
     20 C23         5.3630   -2.7570  -36.8940 C.2       1 HBP545      0.0000 
     21 C24         5.8890   -2.9950  -35.6270 C.2       1 HBP545      0.0000 
     22 C25         6.3850   -4.2670  -35.3120 C.2       1 HBP545      0.0000 
     23 C26         6.9520   -4.5430  -33.9910 C.2       1 HBP545      0.0000 
     24 N27         7.0240   -3.6890  -33.0950 N.2       1 HBP545      0.0000 
     25 O28         7.5840   -4.1590  -31.9260 O.2       1 HBP545      0.0000 
     26 H          13.9568   -8.8822  -36.5862 H         1 HBP545      0.0000 
     27 H          13.4412  -10.5678  -36.4050 H         1 HBP545      0.0000 
     28 H          12.0218   -9.3901  -35.0052 H         1 HBP545      0.0000 
     29 H          10.4985   -9.9652  -35.7042 H         1 HBP545      0.0000 
     30 H          13.8952  -13.3740  -38.5116 H         1 HBP545      0.0000 
     31 H          14.6897  -12.4676  -40.4717 H         1 HBP545      0.0000 
     32 H          15.0482   -8.3391  -41.0380 H         1 HBP545      0.0000 
     33 H          14.1756   -7.9748  -38.8304 H         1 HBP545      0.0000 
     34 H          11.3792   -9.9672  -37.7748 H         1 HBP545      0.0000 
     35 H          11.8758   -8.2721  -37.6326 H         1 HBP545      0.0000 
     36 H          15.3072  -10.6020  -41.8822 H         1 HBP545      0.0000 
     37 H          11.0726   -7.0512  -36.0816 H         1 HBP545      0.0000 
     38 H          10.7787   -7.5815  -34.4166 H         1 HBP545      0.0000 
     39 H           8.6533   -8.6719  -35.1563 H         1 HBP545      0.0000 
     40 H           8.9433   -8.0929  -36.8058 H         1 HBP545      0.0000 
     41 H           8.8672   -5.7269  -35.9435 H         1 HBP545      0.0000 
     42 H           8.4626   -6.3578  -34.3378 H         1 HBP545      0.0000 
     43 H           6.3393   -7.0153  -34.9535 H         1 HBP545      0.0000 
     44 H           6.7983   -7.3130  -36.6390 H         1 HBP545      0.0000 
     45 H           5.8285   -5.8485  -38.1097 H         1 HBP545      0.0000 
     46 H           4.9868   -3.6961  -38.7405 H         1 HBP545      0.0000 
     47 H           5.0006   -1.8530  -37.1514 H         1 HBP545      0.0000 
     48 H           5.9150   -2.2485  -34.9277 H         1 HBP545      0.0000 
     49 H           7.2917   -5.5487  -33.8879 H         1 HBP545      0.0000 
@<TRIPOS>BOND
     1   10    1 1    
     2   11    1 1    
     3   26    1 1    
     4   27    1 1    
     5   11    2 1    
     6   13    2 1    
     7   28    2 1    
     8   29    2 1    
     9    4    3 2    
    10    5    4 1    
    11    6    5 2    
    12   30    5 1    
    13    7    6 1    
    14   10    6 1    
    15   12    7 2    
    16   31    7 1    
    17    9    8 2    
    18   12    8 1    
    19   32    8 1    
    20   10    9 1    
    21   33    9 1    
    22   34   11 1    
    23   35   11 1    
    24   36   12 1    
    25   14   13 1    
    26   37   13 1    
    27   38   13 1    
    28   15   14 1    
    29   39   14 1    
    30   40   14 1    
    31   16   15 1    
    32   41   15 1    
    33   42   15 1    
    34   17   16 1    
    35   43   16 1    
    36   44   16 1    
    37   18   17 1    
    38   22   17 1    
    39   19   18 2    
    40   45   18 1    
    41   20   19 1    
    42   46   19 1    
    43   21   20 2    
    44   47   20 1    
    45   22   21 1    
    46   48   21 1    
    47   23   22 2    
    48   24   23 1    
    49   49   23 1    
    50   25   24 2    
@<TRIPOS>SUBSTRUCTURE
     1 HBP545      1 GROUP   
@<TRIPOS>SET

