#    Name: 3ge7_AFQ_1_INTS_M
#    Modification time : Tue Mar 25 07:40:10 2014

@<TRIPOS>MOLECULE
3ge7_AFQ_1_INTS_M
   63     0    12     0     0
SMALL
NO_CHARGES


@<TRIPOS>ATOM
      1 N          19.6975   17.6490   24.8605 N.am      2 SEC2        0.0000 
      2 N          19.2780   17.5160   23.4350 N.am     10 SEL2        0.0000 
      3 N          20.1170   17.7820   26.2860 N.am      6 SEP2        0.0000 
      4 N          20.5825   17.5040   23.1020 N.am      2 SEC2        0.0000 
      5 N          21.8870   17.4920   22.7690 N.am      6 SEP2        0.0000 
      6 O          17.3050   16.9890   25.2875 O.2       1 ALC1        0.0000 
      7 O          17.1410   16.8660   23.8840 O.2       9 ALL1        0.0000 
      8 O          17.4690   17.1120   26.6910 O.2       5 ALP1        0.0000 
      9 O          13.9865   15.6500   22.9155 O.2       1 ALC1        0.0000 
     10 O          14.9990   16.0260   24.1950 O.2       9 ALL1        0.0000 
     11 O          12.9740   15.2740   21.6360 O.2       5 ALP1        0.0000 
     12 O          13.9740   15.1850   23.8925 O.2       1 ALC1        0.0000 
     13 O          12.9490   14.3440   23.5900 O.2       5 ALP1        0.0000 
     14 O          15.1580   16.7045   25.5660 O.2       1 ALC1        0.0000 
     15 O          15.3170   17.3830   26.9370 O.2       5 ALP1        0.0000 
     16 CA         14.7555   17.8120   19.1630 C.3       4 GLC5        0.0000 
     17 CA         15.1460   15.8650   19.1540 C.3      12 GLL5        0.0000 
     18 CA         14.3650   19.7590   19.1720 C.3       8 GLP5        0.0000 
     19 CA         16.8300   14.2810   17.2035 C.3       4 GLC5        0.0000 
     20 CA         15.3660   14.4250   18.5710 C.3      12 GLL5        0.0000 
     21 CA         18.2940   14.1370   15.8360 C.3       8 GLP5        0.0000 
     22 OD1        15.1300   12.7775   17.4685 O.co2     3 ASC3        0.0000 
     23 OD1        14.2220   14.2050   17.6420 O.co2    11 ASL3        0.0000 
     24 OD1        16.0380   11.3500   17.2950 O.co2     7 ASP3        0.0000 
     25 OD1        14.4575   13.2300   16.7310 O.co2     3 ASC3        0.0000 
     26 OD1        14.6930   12.2550   15.8200 O.co2     7 ASP3        0.0000 
     27 CA         12.0120   13.9935   20.0660 C.3       4 GLC5        0.0000 
     28 CA         12.8530   14.2330   18.2440 C.3      12 GLL5        0.0000 
     29 CA         11.1710   13.7540   21.8880 C.3       8 GLP5        0.0000 
     30 CA         10.7805   13.8650   19.7465 C.3       4 GLC5        0.0000 
     31 CA         10.3900   13.9760   17.6050 C.3      12 GLL5        0.0000 
     32 CA         17.8500   15.5250   17.3525 C.3       4 GLC5        0.0000 
     33 CA         17.4060   16.9130   18.8690 C.3      12 GLL5        0.0000 
     34 O          20.2225   18.6790   15.8760 O.2       1 ALC1        0.0000 
     35 O          19.2260   17.6600   15.9820 O.2       9 ALL1        0.0000 
     36 O          21.2190   19.6980   15.7700 O.2       5 ALP1        0.0000 
     37 CA         20.5040   17.2555   15.0440 C.3       4 GLC5        0.0000 
     38 CA         18.6080   17.4710   14.6850 C.3      12 GLL5        0.0000 
     39 CA         22.4000   17.0400   15.4030 C.3       8 GLP5        0.0000 
     40 CA         18.4510   15.8040   15.2605 C.3       4 GLC5        0.0000 
     41 O          20.8245   17.7830   18.2290 O.2       1 ALC1        0.0000 
     42 O          19.4460   17.6520   18.2440 O.2       9 ALL1        0.0000 
     43 O          22.2030   17.9140   18.2140 O.2       5 ALP1        0.0000 
     44 CA         20.8380   18.0740   21.6350 C.3       4 GLC5        0.0000 
     45 CA         18.9870   17.4340   20.6810 C.3      12 GLL5        0.0000 
     46 CA         22.6890   18.7140   22.5890 C.3       8 GLP5        0.0000 
     47 CA         15.3210   18.0218   21.0587 C.3       4 GLC5        0.0000 
     48 CA         16.7060   16.6270   21.1090 C.3      12 GLL5        0.0000 
     49 CA         14.0970   19.4690   21.6950 C.3       8 GLP5        0.0000 
     50 CA         17.5250   14.9042   20.3738 C.3       4 GLC5        0.0000 
     51 CA         18.5050   13.2340   20.3250 C.3       8 GLP5        0.0000 
     52 CA         16.8805   14.1895   19.5938 C.3       4 GLC5        0.0000 
     53 CA          7.9213   14.1725   17.7658 C.3       4 GLC5        0.0000 
     54 CA          9.3990   14.9600   16.9560 C.3      12 GLL5        0.0000 
     55 CA          5.9480   13.8770   18.2510 C.3       8 GLP5        0.0000 
     56 CA         11.7089   12.3739   17.8689 C.3       4 GLC5        0.0000 
     57 CA         12.0570   10.6240   18.1020 C.3       8 GLP5        0.0000 
     58 CA         18.2593   15.1795   19.7148 C.3       4 GLC5        0.0000 
     59 CA         18.8575   19.0380   21.8565 C.3       4 GLC5        0.0000 
     60 CA         19.2360   20.8410   22.5900 C.3       8 GLP5        0.0000 
     61 CA         18.4920   15.2345   20.7240 C.3       4 GLC5        0.0000 
     62 CA         10.1302   13.8117   15.2893 C.3       4 GLC5        0.0000 
     63 CA          9.8130   12.6920   13.7620 C.3       8 GLP5        0.0000 
@<TRIPOS>BOND
@<TRIPOS>SUBSTRUCTURE
     1 ALC1        6 GROUP        1 X    ALC  0     ROOT ALC X 1
     2 SEC2        1 GROUP        1 X    SEC  0     **** SEC X 2
     3 ASC3       22 GROUP        1 X    ASC  0     **** ASC X 3
     4 GLC5       16 GROUP        1 X    GLC  0     **** GLC X 6
     5 ALP1        8 GROUP        1 Y    ALP  0     ROOT ALP Y 8
     6 SEP2        3 GROUP        1 Y    SEP  0     **** SEP Y 9
     7 ASP3       24 GROUP        1 Y    ASP  0     **** ASP Y 10
     8 GLP5       18 GROUP        1 Y    GLP  0     **** GLP Y 13
     9 ALL1        7 GROUP        1 Z    ALL  0     ROOT ALL Z 15
    10 SEL2        2 GROUP        1 Z    SEL  0     **** SEL Z 16
    11 ASL3       23 GROUP        1 Z    ASL  0     **** ASL Z 17
    12 GLL5       17 GROUP        1 Z    GLL  0     **** GLL Z 20
@<TRIPOS>SET

