#    Name: 3ge7_AFQ_1_ligand
#    Modification time : Tue Mar 25 07:40:10 2014

@<TRIPOS>MOLECULE
3ge7_AFQ_1_ligand
   50    53     1     0     0
SMALL
NO_CHARGES


@<TRIPOS>ATOM
      1 C2         18.1830   17.1420   23.0550 C.2       1 AFQ390      0.0000 
      2 O16        19.2780   17.5160   23.4350 O.2       1 AFQ390      0.0000 
      3 N3         17.1410   16.8660   23.8840 N.am      1 AFQ390      0.0000 
      4 C4         15.9910   16.3740   23.3340 C.2       1 AFQ390      0.0000 
      5 N17        14.9990   16.0260   24.1950 N.pl3     1 AFQ390      0.0000 
      6 N5         15.7910   16.2930   22.0670 N.2       1 AFQ390      0.0000 
      7 C6         16.7060   16.6270   21.1090 C.ar      1 AFQ390      0.0000 
      8 C10        16.3840   16.5220   19.7360 C.ar      1 AFQ390      0.0000 
      9 C18        15.1460   15.8650   19.1540 C.3       1 AFQ390      0.0000 
     10 C19        15.3660   14.4250   18.5710 C.3       1 AFQ390      0.0000 
     11 N20        14.2220   14.2050   17.6420 N.4       1 AFQ390      0.0000 
     12 C21        12.8530   14.2330   18.2440 C.3       1 AFQ390      0.0000 
     13 C22        11.8100   14.3100   17.0890 C.3       1 AFQ390      0.0000 
     14 C26        11.6950   15.7160   16.4740 C.3       1 AFQ390      0.0000 
     15 C25        10.2480   15.7770   15.9240 C.3       1 AFQ390      0.0000 
     16 C24         9.3990   14.9600   16.9560 C.3       1 AFQ390      0.0000 
     17 C23        10.3900   13.9760   17.6050 C.3       1 AFQ390      0.0000 
     18 C9         17.4060   16.9130   18.8690 C.ar      1 AFQ390      0.0000 
     19 N11        17.4980   17.0470   17.5240 N.2       1 AFQ390      0.0000 
     20 C12        18.6620   17.4350   17.1700 C.2       1 AFQ390      0.0000 
     21 N14        19.2260   17.6600   15.9820 N.pl3     1 AFQ390      0.0000 
     22 C15        18.6080   17.4710   14.6850 C.3       1 AFQ390      0.0000 
     23 N13        19.4460   17.6520   18.2440 N.pl3     1 AFQ390      0.0000 
     24 C8         18.6210   17.3370   19.3400 C.ar      1 AFQ390      0.0000 
     25 C7         18.9870   17.4340   20.6810 C.ar      1 AFQ390      0.0000 
     26 C1         17.9710   17.0360   21.5650 C.ar      1 AFQ390      0.0000 
     27 H          17.2132   17.0218   24.8947 H         1 AFQ390      0.0000 
     28 H          14.3784   15.3064   23.8835 H         1 AFQ390      0.0000 
     29 H          14.9771   16.5203   25.0640 H         1 AFQ390      0.0000 
     30 H          14.7363   16.4952   18.3445 H         1 AFQ390      0.0000 
     31 H          14.3621   15.7964   19.9293 H         1 AFQ390      0.0000 
     32 H          15.3459   13.7333   19.3809 H         1 AFQ390      0.0000 
     33 H          16.2951   14.4171   18.0500 H         1 AFQ390      0.0000 
     34 H          12.7284   15.1029   18.8700 H         1 AFQ390      0.0000 
     35 H          12.6653   13.3331   18.8090 H         1 AFQ390      0.0000 
     36 H          12.0584   13.6137   16.3229 H         1 AFQ390      0.0000 
     37 H          12.3803   15.8148   15.6730 H         1 AFQ390      0.0000 
     38 H          11.8158   16.4489   17.2284 H         1 AFQ390      0.0000 
     39 H          10.2021   15.2991   14.9827 H         1 AFQ390      0.0000 
     40 H           9.9106   16.7783   15.9138 H         1 AFQ390      0.0000 
     41 H           8.6456   14.4258   16.4356 H         1 AFQ390      0.0000 
     42 H           9.0150   15.6238   17.6879 H         1 AFQ390      0.0000 
     43 H          10.3650   14.0933   18.6725 H         1 AFQ390      0.0000 
     44 H          10.1372   12.9717   17.3197 H         1 AFQ390      0.0000 
     45 H          20.2389   18.0179   15.9358 H         1 AFQ390      0.0000 
     46 H          20.3262   17.9408   18.2904 H         1 AFQ390      0.0000 
     47 H          19.8642   17.7479   20.9828 H         1 AFQ390      0.0000 
     48 H          19.2293   17.7110   13.9391 H         1 AFQ390      0.0000 
     49 H          18.3301   16.5213   14.5409 H         1 AFQ390      0.0000 
     50 H          17.7895   18.0354   14.5778 H         1 AFQ390      0.0000 
@<TRIPOS>BOND
     1    2    1 2    
     2    3    1 am   
     3   26    1 1    
     4    4    3 1    
     5   27    3 1    
     6    5    4 1    
     7    6    4 2    
     8   28    5 1    
     9   29    5 1    
    10    7    6 1    
    11    8    7 ar   
    12   26    7 ar   
    13    9    8 1    
    14   18    8 ar   
    15   10    9 1    
    16   30    9 1    
    17   31    9 1    
    18   11   10 1    
    19   32   10 1    
    20   33   10 1    
    21   12   11 1    
    22   13   12 1    
    23   34   12 1    
    24   35   12 1    
    25   14   13 1    
    26   17   13 1    
    27   36   13 1    
    28   15   14 1    
    29   37   14 1    
    30   38   14 1    
    31   16   15 1    
    32   39   15 1    
    33   40   15 1    
    34   17   16 1    
    35   41   16 1    
    36   42   16 1    
    37   43   17 1    
    38   44   17 1    
    39   19   18 1    
    40   24   18 ar   
    41   20   19 2    
    42   21   20 1    
    43   23   20 1    
    44   22   21 1    
    45   45   21 1    
    46   48   22 1    
    47   49   22 1    
    48   50   22 1    
    49   24   23 1    
    50   46   23 1    
    51   25   24 ar   
    52   26   25 ar   
    53   47   25 1    
@<TRIPOS>SUBSTRUCTURE
     1 AFQ390      1 GROUP   
@<TRIPOS>SET

