#    Name: 3u16_H89_1_INTS_M
#    Modification time : Mon Mar 24 21:17:53 2014

@<TRIPOS>MOLECULE
3u16_H89_1_INTS_M
   69     0     6     0     0
SMALL
NO_CHARGES


@<TRIPOS>ATOM
      1 CA        -24.5550   -8.0645   16.8055 C.3       2 GLC5        0.0000 
      2 CA        -26.0420   -6.9270   15.7070 C.3       6 GLL5        0.0000 
      3 CA        -23.0680   -9.2020   17.9040 C.3       4 GLP5        0.0000 
      4 CA        -26.1800   -8.7365   15.4240 C.3       2 GLC5        0.0000 
      5 CA        -26.3180  -10.5460   15.1410 C.3       4 GLP5        0.0000 
      6 CA        -26.7420   -5.5970   17.0355 C.3       2 GLC5        0.0000 
      7 CA        -27.4420   -4.2670   18.3640 C.3       4 GLP5        0.0000 
      8 CA        -23.4875   -7.9095   16.3570 C.3       2 GLC5        0.0000 
      9 CA        -23.9070   -6.6170   14.8100 C.3       6 GLL5        0.0000 
     10 N         -24.4685   -7.0480   17.3820 N.am      1 SEC2        0.0000 
     11 N         -24.7120   -6.7950   15.8740 N.am      5 SEL2        0.0000 
     12 N         -24.2250   -7.3010   18.8900 N.am      3 SEP2        0.0000 
     13 CA        -26.8305   -8.4110   12.3300 C.3       2 GLC5        0.0000 
     14 CA        -26.3940   -6.6090   11.9010 C.3       6 GLL5        0.0000 
     15 CA        -27.2670  -10.2130   12.7590 C.3       4 GLP5        0.0000 
     16 CA        -27.3530   -6.7215   10.1040 C.3       2 GLC5        0.0000 
     17 CA        -28.3120   -6.8340    8.3070 C.3       4 GLP5        0.0000 
     18 CA        -26.0800   -4.8655   13.2495 C.3       2 GLC5        0.0000 
     19 CA        -25.7660   -3.1220   14.5980 C.3       4 GLP5        0.0000 
     20 N         -25.7480   -3.8470   12.1420 N.am      1 SEC2        0.0000 
     21 N         -25.2070   -4.6580   11.0360 N.am      5 SEL2        0.0000 
     22 N         -26.2890   -3.0360   13.2480 N.am      3 SEP2        0.0000 
     23 CA        -24.5920  -10.4980   12.0210 C.3       2 GLC5        0.0000 
     24 CA        -23.1510  -10.6050   10.4120 C.3       6 GLL5        0.0000 
     25 CA        -26.0330  -10.3910   13.6300 C.3       4 GLP5        0.0000 
     26 CA        -24.8580  -12.8350   10.2060 C.3       2 GLC5        0.0000 
     27 CA        -22.8820  -11.9620   10.3520 C.3       6 GLL5        0.0000 
     28 CA        -26.8340  -13.7080   10.0600 C.3       4 GLP5        0.0000 
     29 CA        -22.1855  -14.5630   10.1025 C.3       2 GLC5        0.0000 
     30 CA        -21.9480  -12.4360    9.4400 C.3       6 GLL5        0.0000 
     31 CA        -22.4230  -16.6900   10.7650 C.3       4 GLP5        0.0000 
     32 CA        -23.2850  -18.5700    6.0850 C.3       2 GLC5        0.0000 
     33 CA        -21.5610  -17.4260    6.6970 C.3       6 GLL5        0.0000 
     34 CA        -25.0090  -19.7140    5.4730 C.3       4 GLP5        0.0000 
     35 CA        -21.6085  -15.3760    9.5380 C.3       2 GLC5        0.0000 
     36 CA        -20.7940  -14.0620    8.3110 C.3       6 GLL5        0.0000 
     37 CA        -27.7055   -7.6835   16.0740 C.3       2 GLC5        0.0000 
     38 CA        -26.6300   -6.8690   14.4410 C.3       6 GLL5        0.0000 
     39 CA        -29.0750   -8.4690   17.0740 C.3       4 GLP5        0.0000 
     40 CA        -26.0510   -5.0100   14.8360 C.3       2 GLC5        0.0000 
     41 CA        -26.1292   -8.5852   13.7545 C.3       2 GLC5        0.0000 
     42 CA        -25.1047   -8.4872   13.8980 C.3       2 GLC5        0.0000 
     43 CA        -24.4460   -6.5500   13.5220 C.3       6 GLL5        0.0000 
     44 CA        -23.2243   -5.1482   15.0550 C.3       2 GLC5        0.0000 
     45 CA        -22.2720   -3.7130   15.9440 C.3       4 GLP5        0.0000 
     46 CA        -25.1431   -4.8703   14.3564 C.3       2 GLC5        0.0000 
     47 CA        -28.2334   -6.1071   13.1145 C.3       2 GLC5        0.0000 
     48 CA        -30.1570   -5.5200   13.3390 C.3       4 GLP5        0.0000 
     49 CA        -21.8295  -10.8763   11.5478 C.3       2 GLC5        0.0000 
     50 CA        -22.4930   -9.7200    9.5690 C.3       6 GLL5        0.0000 
     51 CA        -20.8370  -11.5900   13.1050 C.3       4 GLP5        0.0000 
     52 CA        -24.0213  -11.2118    8.7665 C.3       2 GLC5        0.0000 
     53 CA        -25.0260  -11.1400    7.1510 C.3       4 GLP5        0.0000 
     54 CA        -21.6260  -11.8945   11.5005 C.3       2 GLC5        0.0000 
     55 CA        -23.3218  -11.5670    8.0815 C.3       2 GLC5        0.0000 
     56 CA        -23.5651  -10.3658    8.1460 C.3       2 GLC5        0.0000 
     57 CA        -21.5540  -10.1820    8.6510 C.3       6 GLL5        0.0000 
     58 CA        -23.6970  -13.7557    5.4310 C.3       2 GLC5        0.0000 
     59 CA        -22.2730  -14.7360    6.3890 C.3       6 GLL5        0.0000 
     60 CA        -24.8540  -12.2930    4.8980 C.3       4 GLP5        0.0000 
     61 CA        -24.0187  -15.2130    7.2685 C.3       2 GLC5        0.0000 
     62 CA        -25.7200  -15.1140    8.3230 C.3       4 GLP5        0.0000 
     63 CA        -24.2297  -17.4093    5.5195 C.3       2 GLC5        0.0000 
     64 CA        -22.8070  -15.7010    5.5390 C.3       6 GLL5        0.0000 
     65 CA        -25.8290  -18.4470    5.4210 C.3       4 GLP5        0.0000 
     66 CA        -21.9027  -16.6466    8.9224 C.3       2 GLC5        0.0000 
     67 CA        -23.7844   -6.6357    8.3347 C.3       2 GLC5        0.0000 
     68 CA        -22.8160   -8.2820    9.6930 C.3       6 GLL5        0.0000 
     69 CA        -24.8100   -6.3570    7.0620 C.3       4 GLP5        0.0000 
@<TRIPOS>BOND
@<TRIPOS>SUBSTRUCTURE
     1 SEC2       10 GROUP        1 X    SEC  0     ROOT SEC X 2
     2 GLC5        1 GROUP        1 X    GLC  0     **** GLC X 6
     3 SEP2       12 GROUP        1 Y    SEP  0     ROOT SEP Y 9
     4 GLP5        3 GROUP        1 Y    GLP  0     **** GLP Y 13
     5 SEL2       11 GROUP        1 Z    SEL  0     ROOT SEL Z 16
     6 GLL5        2 GROUP        1 Z    GLL  0     **** GLL Z 20
@<TRIPOS>SET

