#    Name: 3u16_H89_1_ligand
#    Modification time : Mon Mar 24 21:17:54 2014

@<TRIPOS>MOLECULE
3u16_H89_1_ligand
   52    56     1     0     0
SMALL
NO_CHARGES


@<TRIPOS>ATOM
      1 C1        -26.0420   -6.9270   15.7070 C.ar      1 H89543      0.0000 
      2 C2        -26.6300   -6.8690   14.4410 C.ar      1 H89543      0.0000 
      3 C3        -25.8210   -6.6900   13.3170 C.ar      1 H89543      0.0000 
      4 C4        -24.4460   -6.5500   13.5220 C.ar      1 H89543      0.0000 
      5 C5        -23.9070   -6.6170   14.8100 C.ar      1 H89543      0.0000 
      6 N6        -24.7120   -6.7950   15.8740 N.ar      1 H89543      0.0000 
      7 C7        -26.3940   -6.6090   11.9010 C.3       1 H89543      0.0000 
      8 N8        -25.2780   -6.0590   11.1220 N.pl3     1 H89543      0.0000 
      9 C9        -24.2570   -6.6540   10.5190 C.ar      1 H89543      0.0000 
     10 C10       -23.4960   -5.6180   10.0180 C.ar      1 H89543      0.0000 
     11 C11       -24.0880   -4.3460   10.3350 C.2       1 H89543      0.0000 
     12 N12       -25.2070   -4.6580   11.0360 N.2       1 H89543      0.0000 
     13 N13       -23.9200   -7.9510   10.3730 N.ar      1 H89543      0.0000 
     14 C14       -22.8160   -8.2820    9.6930 C.ar      1 H89543      0.0000 
     15 C15       -22.0030   -7.2910    9.1540 C.ar      1 H89543      0.0000 
     16 C16       -22.3400   -5.9490    9.3140 C.ar      1 H89543      0.0000 
     17 C18       -21.4510   -4.8860    8.7150 C.2       1 H89543      0.0000 
     18 O19       -21.7290   -3.6730    8.8420 O.co2     1 H89543      0.0000 
     19 O20       -20.4310   -5.2470    8.1000 O.co2     1 H89543      0.0000 
     20 C21       -22.4930   -9.7200    9.5690 C.ar      1 H89543      0.0000 
     21 C22       -23.1510  -10.6050   10.4120 C.ar      1 H89543      0.0000 
     22 C23       -22.8820  -11.9620   10.3520 C.ar      1 H89543      0.0000 
     23 C24       -21.9480  -12.4360    9.4400 C.ar      1 H89543      0.0000 
     24 C25       -21.2870  -11.5520    8.5840 C.ar      1 H89543      0.0000 
     25 C26       -21.5540  -10.1820    8.6510 C.ar      1 H89543      0.0000 
     26 O27       -21.6910  -13.7830    9.3900 O.3       1 H89543      0.0000 
     27 C28       -21.3830  -15.1100    7.3890 C.ar      1 H89543      0.0000 
     28 C29       -22.2730  -14.7360    6.3890 C.ar      1 H89543      0.0000 
     29 C30       -22.8070  -15.7010    5.5390 C.ar      1 H89543      0.0000 
     30 C31       -22.4540  -17.0420    5.6970 C.ar      1 H89543      0.0000 
     31 C32       -21.5610  -17.4260    6.6970 C.ar      1 H89543      0.0000 
     32 C33       -21.0250  -16.4510    7.5360 C.ar      1 H89543      0.0000 
     33 C34       -20.7940  -14.0620    8.3110 C.3       1 H89543      0.0000 
     34 H         -26.6680   -7.0772   16.5311 H         1 H89543      0.0000 
     35 H         -27.6431   -6.9568   14.3388 H         1 H89543      0.0000 
     36 H         -23.8228   -6.3958   12.7158 H         1 H89543      0.0000 
     37 H         -22.8804   -6.5267   14.9220 H         1 H89543      0.0000 
     38 H         -27.2286   -5.9482   11.9044 H         1 H89543      0.0000 
     39 H         -26.6487   -7.5901   11.5759 H         1 H89543      0.0000 
     40 H         -23.7433   -3.5261   10.0919 H         1 H89543      0.0000 
     41 H         -21.1523   -7.5479    8.6368 H         1 H89543      0.0000 
     42 H         -23.8453  -10.2476   11.0877 H         1 H89543      0.0000 
     43 H         -23.3689  -12.6150   10.9768 H         1 H89543      0.0000 
     44 H         -20.6047  -11.9087    7.9052 H         1 H89543      0.0000 
     45 H         -21.0662   -9.5314    8.0346 H         1 H89543      0.0000 
     46 H         -22.5371  -13.7497    6.2763 H         1 H89543      0.0000 
     47 H         -23.4606  -15.4275    4.7955 H         1 H89543      0.0000 
     48 H         -22.8565  -17.7535    5.0698 H         1 H89543      0.0000 
     49 H         -21.3041  -18.4068    6.8122 H         1 H89543      0.0000 
     50 H         -20.3566  -16.7222    8.2736 H         1 H89543      0.0000 
     51 H         -19.8272  -14.4367    8.6788 H         1 H89543      0.0000 
     52 H         -20.5897  -13.1602    7.7149 H         1 H89543      0.0000 
@<TRIPOS>BOND
     1    2    1 ar   
     2    6    1 ar   
     3   34    1 1    
     4    3    2 ar   
     5   35    2 1    
     6    4    3 ar   
     7    7    3 1    
     8    5    4 ar   
     9   36    4 1    
    10    6    5 ar   
    11   37    5 1    
    12    8    7 1    
    13   38    7 1    
    14   39    7 1    
    15    9    8 1    
    16   12    8 1    
    17   10    9 ar   
    18   13    9 ar   
    19   11   10 1    
    20   16   10 ar   
    21   12   11 2    
    22   40   11 1    
    23   14   13 ar   
    24   15   14 ar   
    25   20   14 1    
    26   16   15 ar   
    27   41   15 1    
    28   17   16 1    
    29   18   17 ar   
    30   19   17 ar   
    31   21   20 ar   
    32   25   20 ar   
    33   22   21 ar   
    34   42   21 1    
    35   23   22 ar   
    36   43   22 1    
    37   24   23 ar   
    38   26   23 1    
    39   25   24 ar   
    40   44   24 1    
    41   45   25 1    
    42   33   26 1    
    43   28   27 ar   
    44   32   27 ar   
    45   33   27 1    
    46   29   28 ar   
    47   46   28 1    
    48   30   29 ar   
    49   47   29 1    
    50   31   30 ar   
    51   48   30 1    
    52   32   31 ar   
    53   49   31 1    
    54   50   32 1    
    55   51   33 1    
    56   52   33 1    
@<TRIPOS>SUBSTRUCTURE
     1 H89543      1 GROUP   
@<TRIPOS>SET

