#    Name: 1s1r_NAP_1_INTS_M
#    Modification time : Tue Mar 25 01:44:48 2014

@<TRIPOS>MOLECULE
1s1r_NAP_1_INTS_M
  117     0    12     0     0
SMALL
NO_CHARGES


@<TRIPOS>ATOM
      1 N          33.8675  -29.1535   48.1665 N.am      2 SEC2        0.0000 
      2 N          33.1090  -28.5410   46.9920 N.am     10 SEL2        0.0000 
      3 N          34.6260  -29.7660   49.3410 N.am      6 SEP2        0.0000 
      4 N          31.9515  -28.2525   44.0690 N.am      2 SEC2        0.0000 
      5 N          31.2750  -27.9180   45.4050 N.am     10 SEL2        0.0000 
      6 N          32.6280  -28.5870   42.7330 N.am      6 SEP2        0.0000 
      7 N          29.8615  -27.6010   44.7075 N.am      2 SEC2        0.0000 
      8 N          28.4480  -27.2840   44.0100 N.am      6 SEP2        0.0000 
      9 CA         30.9535  -30.5195   45.1365 C.3       4 GLC5        0.0000 
     10 CA         29.7180  -30.2030   46.6090 C.3      12 GLL5        0.0000 
     11 CA         32.1890  -30.8360   43.6640 C.3       8 GLP5        0.0000 
     12 CA         28.7725  -28.5030   45.9290 C.3       4 GLC5        0.0000 
     13 CA         27.8270  -26.8030   45.2490 C.3       8 GLP5        0.0000 
     14 CA         28.6575  -29.2585   48.2540 C.3       4 GLC5        0.0000 
     15 CA         27.5970  -28.3140   49.8990 C.3       8 GLP5        0.0000 
     16 CA         28.5535  -30.0785   49.2365 C.3       4 GLC5        0.0000 
     17 CA         29.5100  -31.8430   48.5740 C.3      12 GLL5        0.0000 
     18 N          28.5470  -31.7660   50.8605 N.am      2 SEC2        0.0000 
     19 N          28.3190  -31.6060   49.3130 N.am     10 SEL2        0.0000 
     20 N          28.7750  -31.9260   52.4080 N.am      6 SEP2        0.0000 
     21 CA         31.5215  -33.4630   50.1060 C.3       4 GLC5        0.0000 
     22 CA         29.9630  -33.2960   48.6340 C.3      12 GLL5        0.0000 
     23 CA         33.0800  -33.6300   51.5780 C.3       8 GLP5        0.0000 
     24 N          34.9885  -34.7740   47.1545 N.am      2 SEC2        0.0000 
     25 N          33.5120  -35.0440   46.7670 N.am     10 SEL2        0.0000 
     26 N          36.4650  -34.5040   47.5420 N.am      6 SEP2        0.0000 
     27 O          35.1485  -38.3295   44.2825 O.2       1 ALC1        0.0000 
     28 O          34.5100  -37.3110   45.0900 O.2       9 ALL1        0.0000 
     29 O          35.7870  -39.3480   43.4750 O.2       5 ALP1        0.0000 
     30 O          35.7040  -36.5785   45.4350 O.2       1 ALC1        0.0000 
     31 O          36.8980  -35.8460   45.7800 O.2       5 ALP1        0.0000 
     32 CA         30.4340  -35.7780   43.3885 C.3       4 GLC5        0.0000 
     33 CA         30.9130  -37.2170   44.5150 C.3      12 GLL5        0.0000 
     34 CA         29.9550  -34.3390   42.2620 C.3       8 GLP5        0.0000 
     35 CA         32.5565  -36.4035   43.3240 C.3       4 GLC5        0.0000 
     36 CA         34.2000  -35.5900   42.1330 C.3       8 GLP5        0.0000 
     37 CA         31.1725  -37.9010   46.0945 C.3       4 GLC5        0.0000 
     38 CA         31.4320  -38.5850   47.6740 C.3       8 GLP5        0.0000 
     39 CA         30.7175  -34.9170   44.1440 C.3       4 GLC5        0.0000 
     40 CA         31.4800  -35.4950   46.0260 C.3      12 GLL5        0.0000 
     41 N          29.7365  -26.8230   50.8135 N.am      2 SEC2        0.0000 
     42 N          30.5400  -26.1060   49.8410 N.am     10 SEL2        0.0000 
     43 N          28.9330  -27.5400   51.7860 N.am      6 SEP2        0.0000 
     44 N          29.7975  -24.5325   46.4115 N.am      2 SEC2        0.0000 
     45 N          29.8970  -25.4340   47.4930 N.am     10 SEL2        0.0000 
     46 N          29.6980  -23.6310   45.3300 N.am      6 SEP2        0.0000 
     47 N          32.3770  -24.8670   46.6540 N.am      2 SEC2        0.0000 
     48 N          32.2800  -25.5380   48.1170 N.am     10 SEL2        0.0000 
     49 N          32.4740  -24.1960   45.1910 N.am      6 SEP2        0.0000 
     50 CA         35.4575  -25.6560   48.4420 C.3       4 GLC5        0.0000 
     51 CA         33.3780  -26.0230   48.8530 C.3      12 GLL5        0.0000 
     52 CA         37.5370  -25.2890   48.0310 C.3       8 GLP5        0.0000 
     53 CA         35.5955  -24.0595   49.5395 C.3       4 GLC5        0.0000 
     54 CA         33.8420  -25.0650   49.9350 C.3      12 GLL5        0.0000 
     55 CA         37.3490  -23.0540   49.1440 C.3       8 GLP5        0.0000 
     56 N          32.6040  -26.0040   53.5740 N.am      2 SEC2        0.0000 
     57 N          32.8120  -25.9310   51.9520 N.am     10 SEL2        0.0000 
     58 N          32.3960  -26.0770   55.1960 N.am      6 SEP2        0.0000 
     59 CA         33.0265  -22.3030   53.1115 C.3       4 GLC5        0.0000 
     60 CA         33.4620  -23.5740   51.6660 C.3      12 GLL5        0.0000 
     61 CA         32.5910  -21.0320   54.5570 C.3       8 GLP5        0.0000 
     62 O          35.5545  -22.9290   52.5945 O.2       1 ALC1        0.0000 
     63 O          34.5900  -23.8820   52.4660 O.2       9 ALL1        0.0000 
     64 O          36.5190  -21.9760   52.7230 O.2       5 ALP1        0.0000 
     65 CA         33.9305  -22.3790   48.5210 C.3       4 GLC5        0.0000 
     66 CA         33.9000  -22.8110   50.4150 C.3      12 GLL5        0.0000 
     67 CA         33.9610  -21.9470   46.6270 C.3       8 GLP5        0.0000 
     68 CA         35.6245  -22.9325   49.7795 C.3       4 GLC5        0.0000 
     69 N          31.4140  -16.1490   49.0340 N.am      2 SEC2        0.0000 
     70 N          31.2800  -17.3740   49.6230 N.am     10 SEL2        0.0000 
     71 N          31.5480  -14.9240   48.4450 N.am      6 SEP2        0.0000 
     72 O          34.2325  -16.6695   49.3270 O.2       1 ALC1        0.0000 
     73 O          33.6200  -17.8340   49.8270 O.2       9 ALL1        0.0000 
     74 O          34.8450  -15.5050   48.8270 O.2       5 ALP1        0.0000 
     75 O          34.7685  -18.7435   49.7115 O.2       1 ALC1        0.0000 
     76 O          35.9170  -19.6530   49.5960 O.2       5 ALP1        0.0000 
     77 NZ         29.2730  -33.0820   52.0360 N.4       3 LYC4        0.0000 
     78 NZ         29.7710  -34.2380   51.6640 N.4      11 LYL4        0.0000 
     79 NZ         28.7750  -31.9260   52.4080 N.4       7 LYP4        0.0000 
     80 N          29.2730  -33.0820   52.0360 N.am      2 SEC2        0.0000 
     81 N          29.7710  -34.2380   51.6640 N.am     10 SEL2        0.0000 
     82 N          30.8625  -34.3505   52.5990 N.am      2 SEC2        0.0000 
     83 N          31.9540  -34.4630   53.5340 N.am      6 SEP2        0.0000 
     84 NZ         28.5340  -37.4040   50.5205 N.4       3 LYC4        0.0000 
     85 NZ         28.2850  -36.0250   50.8280 N.4      11 LYL4        0.0000 
     86 NZ         29.5880  -39.1550   49.2200 N.4       7 LYP4        0.0000 
     87 N          28.5340  -37.4040   50.5205 N.am      2 SEC2        0.0000 
     88 N          28.2850  -36.0250   50.8280 N.am     10 SEL2        0.0000 
     89 N          28.7830  -38.7830   50.2130 N.am      6 SEP2        0.0000 
     90 NZ         30.6025  -37.1005   49.4110 N.4       3 LYC4        0.0000 
     91 NZ         30.6950  -35.8920   50.0540 N.4      11 LYL4        0.0000 
     92 N          31.8810  -35.9405   50.5610 N.am      2 SEC2        0.0000 
     93 N          30.6950  -35.8920   50.0540 N.am     10 SEL2        0.0000 
     94 N          33.0670  -35.9890   51.0680 N.am      6 SEP2        0.0000 
     95 N          30.6025  -37.1005   49.4110 N.am      2 SEC2        0.0000 
     96 N          30.5100  -38.3090   48.7680 N.am      6 SEP2        0.0000 
     97 N          29.7390  -37.3375   50.1335 N.am      2 SEC2        0.0000 
     98 CA         30.2488  -31.5812   50.1235 C.3       4 GLC5        0.0000 
     99 CA         30.7610  -30.5930   51.6430 C.3       8 GLP5        0.0000 
    100 CA         32.9868  -33.9107   45.5143 C.3       4 GLC5        0.0000 
    101 CA         33.8210  -32.1440   45.0360 C.3       8 GLP5        0.0000 
    102 CA         33.6110  -35.9938   43.8473 C.3       4 GLC5        0.0000 
    103 CA         32.8250  -35.8600   45.9590 C.3      12 GLL5        0.0000 
    104 CA         31.8415  -37.2656   46.7339 C.3       4 GLC5        0.0000 
    105 CA         33.2190  -36.9350   45.1640 C.3      12 GLL5        0.0000 
    106 CA         34.7685  -26.3380   50.8780 C.3       4 GLC5        0.0000 
    107 CA         35.9270  -27.1320   52.3620 C.3       8 GLP5        0.0000 
    108 CA         34.5443  -25.6653   51.8652 C.3       4 GLC5        0.0000 
    109 CA         32.8610  -24.8230   51.0710 C.3      12 GLL5        0.0000 
    110 CA         31.8513  -24.3852   52.9138 C.3       4 GLC5        0.0000 
    111 CA         30.5410  -24.5720   54.4590 C.3       8 GLP5        0.0000 
    112 CA         33.0162  -27.2022   50.5633 C.3       4 GLC5        0.0000 
    113 CA         32.7970  -29.2210   50.8940 C.3       8 GLP5        0.0000 
    114 CA         33.2360  -21.0415   48.2763 C.3       4 GLC5        0.0000 
    115 CA         32.9970  -20.5800   50.1290 C.3      12 GLL5        0.0000 
    116 CA         32.5829  -21.7808   47.9188 C.3       4 GLC5        0.0000 
    117 CA         31.6620  -22.3990   49.3670 C.3      12 GLL5        0.0000 
@<TRIPOS>BOND
@<TRIPOS>SUBSTRUCTURE
     1 ALC1       27 GROUP        1 X    ALC  0     ROOT ALC X 1
     2 SEC2        1 GROUP        1 X    SEC  0     **** SEC X 2
     3 LYC4       77 GROUP        1 X    LYC  0     **** LYC X 4
     4 GLC5        9 GROUP        1 X    GLC  0     **** GLC X 6
     5 ALP1       29 GROUP        1 Y    ALP  0     ROOT ALP Y 8
     6 SEP2        3 GROUP        1 Y    SEP  0     **** SEP Y 9
     7 LYP4       79 GROUP        1 Y    LYP  0     **** LYP Y 11
     8 GLP5       11 GROUP        1 Y    GLP  0     **** GLP Y 13
     9 ALL1       28 GROUP        1 Z    ALL  0     ROOT ALL Z 15
    10 SEL2        2 GROUP        1 Z    SEL  0     **** SEL Z 16
    11 LYL4       78 GROUP        1 Z    LYL  0     **** LYL Z 18
    12 GLL5       10 GROUP        1 Z    GLL  0     **** GLL Z 20
@<TRIPOS>SET

