#    Name: 1s1r_NAP_1_ligand
#    Modification time : Tue Mar 25 01:44:48 2014

@<TRIPOS>MOLECULE
1s1r_NAP_1_ligand
   73    77     1     0     0
SMALL
NO_CHARGES


@<TRIPOS>ATOM
      1 PA         31.6480  -28.4910   46.7780 P.3       1 NAP1001     0.0000 
      2 O1A        33.1090  -28.5410   46.9920 O.co2     1 NAP1001     0.0000 
      3 O2A        31.2750  -27.9180   45.4050 O.co2     1 NAP1001     0.0000 
      4 O5B        31.0690  -29.9780   46.8900 O.3       1 NAP1001     0.0000 
      5 C5B        29.7180  -30.2030   46.6090 C.3       1 NAP1001     0.0000 
      6 C4B        29.3150  -31.5920   47.0770 C.3       1 NAP1001     0.0000 
      7 O4B        30.0820  -32.5600   46.4060 O.3       1 NAP1001     0.0000 
      8 C3B        29.5100  -31.8430   48.5740 C.3       1 NAP1001     0.0000 
      9 O3B        28.3190  -31.6060   49.3130 O.3       1 NAP1001     0.0000 
     10 C2B        29.9630  -33.2960   48.6340 C.3       1 NAP1001     0.0000 
     11 O2B        29.0080  -34.1170   49.2760 O.3       1 NAP1001     0.0000 
     12 C1B        30.1210  -33.7330   47.1860 C.3       1 NAP1001     0.0000 
     13 N9A        31.3880  -34.4390   46.8800 N.pl3     1 NAP1001     0.0000 
     14 C8A        32.6540  -34.1570   47.3150 C.2       1 NAP1001     0.0000 
     15 N7A        33.5120  -35.0440   46.7670 N.2       1 NAP1001     0.0000 
     16 C5A        32.8250  -35.8600   45.9590 C.ar      1 NAP1001     0.0000 
     17 C6A        33.2190  -36.9350   45.1640 C.ar      1 NAP1001     0.0000 
     18 N6A        34.5100  -37.3110   45.0900 N.pl3     1 NAP1001     0.0000 
     19 N1A        32.2470  -37.5850   44.4510 N.ar      1 NAP1001     0.0000 
     20 C2A        30.9130  -37.2170   44.5150 C.ar      1 NAP1001     0.0000 
     21 N3A        30.5370  -36.1540   45.3090 N.ar      1 NAP1001     0.0000 
     22 C4A        31.4800  -35.4950   46.0260 C.ar      1 NAP1001     0.0000 
     23 O3         30.8850  -27.7240   47.9860 O.3       1 NAP1001     0.0000 
     24 PN         30.8240  -26.1520   48.3860 P.3       1 NAP1001     0.0000 
     25 O1N        30.5400  -26.1060   49.8410 O.co2     1 NAP1001     0.0000 
     26 O2N        29.8970  -25.4340   47.4930 O.co2     1 NAP1001     0.0000 
     27 O5D        32.2800  -25.5380   48.1170 O.3       1 NAP1001     0.0000 
     28 C5D        33.3780  -26.0230   48.8530 C.3       1 NAP1001     0.0000 
     29 C4D        33.8420  -25.0650   49.9350 C.3       1 NAP1001     0.0000 
     30 O4D        34.1840  -23.7860   49.4350 O.3       1 NAP1001     0.0000 
     31 C3D        32.8610  -24.8230   51.0710 C.3       1 NAP1001     0.0000 
     32 O3D        32.8120  -25.9310   51.9520 O.3       1 NAP1001     0.0000 
     33 C2D        33.4620  -23.5740   51.6660 C.3       1 NAP1001     0.0000 
     34 O2D        34.5900  -23.8820   52.4660 O.3       1 NAP1001     0.0000 
     35 C1D        33.9000  -22.8110   50.4150 C.3       1 NAP1001     0.0000 
     36 N1N        32.8110  -21.9170   49.9550 N.pl3     1 NAP1001     0.0000 
     37 C2N        32.9970  -20.5800   50.1290 C.ar      1 NAP1001     0.0000 
     38 C3N        32.0250  -19.6920   49.7220 C.ar      1 NAP1001     0.0000 
     39 C7N        32.3550  -18.2370   49.7340 C.2       1 NAP1001     0.0000 
     40 O7N        31.2800  -17.3740   49.6230 O.2       1 NAP1001     0.0000 
     41 N7N        33.6200  -17.8340   49.8270 N.am      1 NAP1001     0.0000 
     42 C4N        30.8350  -20.1430   49.1410 C.ar      1 NAP1001     0.0000 
     43 C5N        30.6600  -21.5170   48.9670 C.ar      1 NAP1001     0.0000 
     44 C6N        31.6620  -22.3990   49.3670 C.ar      1 NAP1001     0.0000 
     45 P2B        29.4490  -35.0940   50.4890 P.3       1 NAP1001     0.0000 
     46 O1X        29.7710  -34.2380   51.6640 O.co2     1 NAP1001     0.0000 
     47 O2X        28.2850  -36.0250   50.8280 O.co2     1 NAP1001     0.0000 
     48 O3X        30.6950  -35.8920   50.0540 O.co2     1 NAP1001     0.0000 
     49 H          29.4983  -30.1413   45.5312 H         1 NAP1001     0.0000 
     50 H          29.0587  -29.4800   47.1153 H         1 NAP1001     0.0000 
     51 H          28.2561  -31.7387   46.8569 H         1 NAP1001     0.0000 
     52 H          30.3375  -31.2329   48.8914 H         1 NAP1001     0.0000 
     53 H          30.9263  -33.3296   49.0940 H         1 NAP1001     0.0000 
     54 H          29.2789  -34.3686   46.9324 H         1 NAP1001     0.0000 
     55 H          32.8857  -33.4385   47.9159 H         1 NAP1001     0.0000 
     56 H          35.1873  -36.5916   45.2444 H         1 NAP1001     0.0000 
     57 H          34.6763  -38.2760   44.8873 H         1 NAP1001     0.0000 
     58 H          30.2096  -37.7351   43.9727 H         1 NAP1001     0.0000 
     59 H          34.2539  -26.2299   48.1963 H         1 NAP1001     0.0000 
     60 H          33.1446  -26.9934   49.3480 H         1 NAP1001     0.0000 
     61 H          34.7533  -25.5068   50.4097 H         1 NAP1001     0.0000 
     62 H          31.9286  -24.5636   50.6267 H         1 NAP1001     0.0000 
     63 H          32.7131  -23.0221   52.1452 H         1 NAP1001     0.0000 
     64 H          34.7686  -22.2403   50.6681 H         1 NAP1001     0.0000 
     65 H          33.8646  -20.2231   50.5656 H         1 NAP1001     0.0000 
     66 H          33.7654  -16.8452   49.8609 H         1 NAP1001     0.0000 
     67 H          34.3110  -18.5563   49.8546 H         1 NAP1001     0.0000 
     68 H          30.1170  -19.4860   48.8534 H         1 NAP1001     0.0000 
     69 H          29.7962  -21.8752   48.5460 H         1 NAP1001     0.0000 
     70 H          31.5368  -23.4110   49.2198 H         1 NAP1001     0.0000 
     71 H          28.0308  -32.5077   49.6353 H         1 NAP1001     0.0000 
     72 H          32.0868  -26.5170   51.5906 H         1 NAP1001     0.0000 
     73 H          35.1457  -23.0507   52.4606 H         1 NAP1001     0.0000 
@<TRIPOS>BOND
     1    2    1 ar   
     2    3    1 ar   
     3    4    1 1    
     4   23    1 1    
     5    5    4 1    
     6    6    5 1    
     7   49    5 1    
     8   50    5 1    
     9    7    6 1    
    10    8    6 1    
    11   51    6 1    
    12   12    7 1    
    13    9    8 1    
    14   10    8 1    
    15   52    8 1    
    16   71    9 1    
    17   11   10 1    
    18   12   10 1    
    19   53   10 1    
    20   45   11 1    
    21   13   12 1    
    22   54   12 1    
    23   14   13 1    
    24   22   13 1    
    25   15   14 2    
    26   55   14 1    
    27   16   15 1    
    28   17   16 ar   
    29   22   16 ar   
    30   18   17 1    
    31   19   17 ar   
    32   56   18 1    
    33   57   18 1    
    34   20   19 ar   
    35   21   20 ar   
    36   58   20 1    
    37   22   21 ar   
    38   24   23 1    
    39   25   24 ar   
    40   26   24 ar   
    41   27   24 1    
    42   28   27 1    
    43   29   28 1    
    44   59   28 1    
    45   60   28 1    
    46   30   29 1    
    47   31   29 1    
    48   61   29 1    
    49   35   30 1    
    50   32   31 1    
    51   33   31 1    
    52   62   31 1    
    53   72   32 1    
    54   34   33 1    
    55   35   33 1    
    56   63   33 1    
    57   73   34 1    
    58   36   35 1    
    59   64   35 1    
    60   37   36 ar   
    61   44   36 ar   
    62   38   37 ar   
    63   65   37 1    
    64   39   38 1    
    65   42   38 ar   
    66   40   39 2    
    67   41   39 am   
    68   66   41 1    
    69   67   41 1    
    70   43   42 ar   
    71   68   42 1    
    72   44   43 ar   
    73   69   43 1    
    74   70   44 1    
    75   46   45 ar   
    76   47   45 ar   
    77   48   45 ar   
@<TRIPOS>SUBSTRUCTURE
     1 NAP1001     1 GROUP   
@<TRIPOS>SET

