#    Name: 4bae_RWX_4_INTS_M
#    Modification time : Tue Mar 25 07:09:48 2014

@<TRIPOS>MOLECULE
4bae_RWX_4_INTS_M
   73     0    12     0     0
SMALL
NO_CHARGES


@<TRIPOS>ATOM
      1 CA          3.5755  -10.4885   31.5775 C.3       4 GLC5        0.0000 
      2 CA          4.3880   -8.8760   32.6060 C.3      12 GLL5        0.0000 
      3 CA          2.7630  -12.1010   30.5490 C.3       8 GLP5        0.0000 
      4 CA          3.1050  -10.3115   28.1225 C.3       4 GLC5        0.0000 
      5 CA          4.2190   -8.7020   28.1660 C.3      12 GLL5        0.0000 
      6 CA          1.9910  -11.9210   28.0790 C.3       8 GLP5        0.0000 
      7 CA          3.5490   -7.2420   25.7165 C.3       4 GLC5        0.0000 
      8 CA          4.5560   -8.4480   26.7120 C.3      12 GLL5        0.0000 
      9 CA          2.5420   -6.0360   24.7210 C.3       8 GLP5        0.0000 
     10 CA          4.1085  -10.4990   29.7855 C.3       4 GLC5        0.0000 
     11 CA          5.4540   -8.8970   29.0220 C.3      12 GLL5        0.0000 
     12 CA          3.1520   -8.8995   37.5740 C.3       4 GLC5        0.0000 
     13 CA          2.8560   -8.1710   35.8630 C.3      12 GLL5        0.0000 
     14 CA          3.4480   -9.6280   39.2850 C.3       8 GLP5        0.0000 
     15 CA          2.4330   -7.0845   37.5265 C.3       4 GLC5        0.0000 
     16 CA          2.0100   -5.9980   39.1900 C.3       8 GLP5        0.0000 
     17 CA          4.9530  -13.0680   22.6640 C.3       4 GLC5        0.0000 
     18 CA          6.1960  -13.0730   21.2000 C.3      12 GLL5        0.0000 
     19 CA          3.7100  -13.0630   24.1280 C.3       8 GLP5        0.0000 
     20 CA          4.7905  -12.0535   29.8870 C.3       4 GLC5        0.0000 
     21 CA          6.8180  -12.0060   29.2250 C.3      12 GLL5        0.0000 
     22 CA          6.4975  -14.1415   29.3800 C.3       4 GLC5        0.0000 
     23 CA          6.1770  -16.2770   29.5350 C.3       8 GLP5        0.0000 
     24 CA          8.4815  -11.8835   30.4435 C.3       4 GLC5        0.0000 
     25 CA         10.1450  -11.7610   31.6620 C.3       8 GLP5        0.0000 
     26 O           2.9775   -7.0085   33.4375 O.2       1 ALC1        0.0000 
     27 O           3.6560   -8.1360   33.4980 O.2       9 ALL1        0.0000 
     28 O           2.2990   -5.8810   33.3770 O.2       5 ALP1        0.0000 
     29 NZ          1.9670  -10.4585   21.0815 N.4       3 LYC4        0.0000 
     30 NZ          3.2920   -9.9680   20.9050 N.4      11 LYL4        0.0000 
     31 NZ          0.2840  -10.6870   22.5080 N.4       7 LYP4        0.0000 
     32 N           2.1350   -9.8845   22.0580 N.am      2 SEC2        0.0000 
     33 N           3.2920   -9.9680   20.9050 N.am     10 SEL2        0.0000 
     34 N           0.9780   -9.8010   23.2110 N.am      6 SEP2        0.0000 
     35 N           1.9670  -10.4585   21.0815 N.am      2 SEC2        0.0000 
     36 N           0.6420  -10.9490   21.2580 N.am      6 SEP2        0.0000 
     37 CA          3.3755   -7.6715   24.2685 C.3       4 GLC5        0.0000 
     38 CA          4.2090   -9.3070   23.8160 C.3      12 GLL5        0.0000 
     39 CA          3.9595  -11.1850   23.9720 C.3       4 GLC5        0.0000 
     40 CA          4.0100  -10.3385   37.5615 C.3       4 GLC5        0.0000 
     41 CA          4.5720  -11.0490   35.8380 C.3      12 GLL5        0.0000 
     42 CA          6.1230  -10.0170   35.4115 C.3       4 GLC5        0.0000 
     43 CA          7.6740   -8.9850   34.9850 C.3       8 GLP5        0.0000 
     44 CA          4.8450  -12.7200   36.5795 C.3       4 GLC5        0.0000 
     45 CA          5.1180  -14.3910   37.3210 C.3       8 GLP5        0.0000 
     46 CA          2.7540  -11.3605   36.1985 C.3       4 GLC5        0.0000 
     47 CA          0.9360  -11.6720   36.5590 C.3       8 GLP5        0.0000 
     48 CA          6.7580  -10.2465   33.8730 C.3       4 GLC5        0.0000 
     49 CA          5.8420  -11.5080   32.7610 C.3      12 GLL5        0.0000 
     50 CA          4.2285  -12.2100   32.3340 C.3       4 GLC5        0.0000 
     51 CA          2.6150  -12.9120   31.9070 C.3       8 GLP5        0.0000 
     52 CA          5.9015  -13.6540   32.3680 C.3       4 GLC5        0.0000 
     53 CA          5.9610  -15.8000   31.9750 C.3       8 GLP5        0.0000 
     54 CA          7.5085  -12.6645   32.7220 C.3       4 GLC5        0.0000 
     55 CA          9.1750  -13.8210   32.6830 C.3       8 GLP5        0.0000 
     56 CA          6.0795  -13.3210   33.9985 C.3       4 GLC5        0.0000 
     57 CA          6.3170  -15.1340   35.2360 C.3       8 GLP5        0.0000 
     58 CA          3.5797  -11.4360   32.9305 C.3       4 GLC5        0.0000 
     59 CA          4.7970  -10.0060   33.2950 C.3      12 GLL5        0.0000 
     60 CA          4.7012  -11.5987   23.4078 C.3       4 GLC5        0.0000 
     61 CA          6.3020  -10.3680   22.9140 C.3      12 GLL5        0.0000 
     62 CA          2.5146   -9.7445   33.1355 C.3       4 GLC5        0.0000 
     63 CA          0.5630  -10.0710   32.9910 C.3       8 GLP5        0.0000 
     64 CA          5.8488   -9.0325   34.4930 C.3       4 GLC5        0.0000 
     65 CA          3.9497   -6.5198   35.4093 C.3       4 GLC5        0.0000 
     66 CA          3.5810   -8.7420   34.7220 C.3      12 GLL5        0.0000 
     67 CA          4.6810   -4.5830   35.5260 C.3       8 GLP5        0.0000 
     68 CA          1.8907   -9.2637   34.1418 C.3       4 GLC5        0.0000 
     69 CA          2.2788   -8.5525   27.5770 C.3       4 GLC5        0.0000 
     70 CA          0.1700   -8.5300   27.7150 C.3       8 GLP5        0.0000 
     71 CA          5.3189   -7.0720   28.7353 C.3       4 GLC5        0.0000 
     72 CA          5.7170   -5.4080   29.2400 C.3       8 GLP5        0.0000 
     73 CA          2.1661  -10.2108   35.9121 C.3       4 GLC5        0.0000 
@<TRIPOS>BOND
@<TRIPOS>SUBSTRUCTURE
     1 ALC1       26 GROUP        1 X    ALC  0     ROOT ALC X 1
     2 SEC2       32 GROUP        1 X    SEC  0     **** SEC X 2
     3 LYC4       29 GROUP        1 X    LYC  0     **** LYC X 4
     4 GLC5        1 GROUP        1 X    GLC  0     **** GLC X 6
     5 ALP1       28 GROUP        1 Y    ALP  0     ROOT ALP Y 8
     6 SEP2       34 GROUP        1 Y    SEP  0     **** SEP Y 9
     7 LYP4       31 GROUP        1 Y    LYP  0     **** LYP Y 11
     8 GLP5        3 GROUP        1 Y    GLP  0     **** GLP Y 13
     9 ALL1       27 GROUP        1 Z    ALL  0     ROOT ALL Z 15
    10 SEL2       33 GROUP        1 Z    SEL  0     **** SEL Z 16
    11 LYL4       30 GROUP        1 Z    LYL  0     **** LYL Z 18
    12 GLL5        2 GROUP        1 Z    GLL  0     **** GLL Z 20
@<TRIPOS>SET

