#    Name: 4bae_RWX_4_ligand
#    Modification time : Tue Mar 25 07:09:48 2014

@<TRIPOS>MOLECULE
4bae_RWX_4_ligand
   53    56     1     0     0
SMALL
NO_CHARGES


@<TRIPOS>ATOM
      1 C28         9.1970  -11.3380   21.1290 C.2       1 RWX1257     0.0000 
      2 C3          4.2920   -9.9140   34.6130 C.2       1 RWX1257     0.0000 
      3 C4          4.7970  -10.0060   33.2950 C.2       1 RWX1257     0.0000 
      4 C20         6.3020  -10.3680   22.9140 C.2       1 RWX1257     0.0000 
      5 C5          4.3880   -8.8760   32.6060 C.2       1 RWX1257     0.0000 
      6 C21         5.0830   -9.9010   22.4610 C.2       1 RWX1257     0.0000 
      7 C2          3.5810   -8.7420   34.7220 C.2       1 RWX1257     0.0000 
      8 C26         7.3640  -10.9750   22.0800 C.2       1 RWX1257     0.0000 
      9 C18         5.4990   -9.7010   24.8910 C.2       1 RWX1257     0.0000 
     10 C7          4.5980   -8.3980   31.2760 C.2       1 RWX1257     0.0000 
     11 C23         4.4870   -9.8590   21.1540 C.2       1 RWX1257     0.0000 
     12 C11         4.2190   -8.7020   28.1660 C.3       1 RWX1257     0.0000 
     13 C12         4.5560   -8.4480   26.7120 C.3       1 RWX1257     0.0000 
     14 C14         6.7180   -9.4930   26.9530 C.3       1 RWX1257     0.0000 
     15 C10         5.4540   -8.8970   29.0220 C.3       1 RWX1257     0.0000 
     16 C15         6.4650   -9.8540   28.4090 C.3       1 RWX1257     0.0000 
     17 C1          2.8560   -8.1710   35.8630 C.3       1 RWX1257     0.0000 
     18 C31         6.1960  -13.0730   21.2000 C.3       1 RWX1257     0.0000 
     19 C17         6.8180  -12.0060   29.2250 C.3       1 RWX1257     0.0000 
     20 N27         8.5640  -10.4480   21.9570 N.2       1 RWX1257     0.0000 
     21 N29         8.4610  -12.3870   20.7380 N.2       1 RWX1257     0.0000 
     22 N19         6.5190  -10.2520   24.2620 N.2       1 RWX1257     0.0000 
     23 N6          3.6560   -8.1360   33.4980 N.pl3     1 RWX1257     0.0000 
     24 N30         7.2990  -12.1400   21.3560 N.pl3     1 RWX1257     0.0000 
     25 N13         5.4420   -9.4930   26.2440 N.3       1 RWX1257     0.0000 
     26 N9          5.1070   -9.2860   30.3640 N.am      1 RWX1257     0.0000 
     27 O8          4.3290   -7.2410   31.0020 O.2       1 RWX1257     0.0000 
     28 O24         3.2920   -9.9680   20.9050 O.co2     1 RWX1257     0.0000 
     29 O25         5.4380   -9.6750   20.1930 O.co2     1 RWX1257     0.0000 
     30 O16         5.9450  -11.1820   28.4570 O.3       1 RWX1257     0.0000 
     31 S22         4.2090   -9.3070   23.8160 S.3       1 RWX1257     0.0000 
     32 CL3         4.5720  -11.0490   35.8380 Cl        1 RWX1257     0.0000 
     33 BR3         5.8420  -11.5080   32.7610 Br        1 RWX1257     0.0000 
     34 H          10.1551  -11.1986   20.8414 H         1 RWX1257     0.0000 
     35 H           3.5846   -9.5962   28.2392 H         1 RWX1257     0.0000 
     36 H           3.6399   -7.8537   28.5564 H         1 RWX1257     0.0000 
     37 H           5.0275   -7.4663   26.6322 H         1 RWX1257     0.0000 
     38 H           3.6268   -8.4329   26.1387 H         1 RWX1257     0.0000 
     39 H           7.4006  -10.2264   26.5283 H         1 RWX1257     0.0000 
     40 H           7.1851   -8.5108   26.9162 H         1 RWX1257     0.0000 
     41 H           5.9631   -7.8961   29.0720 H         1 RWX1257     0.0000 
     42 H           7.3878   -9.7753   28.9466 H         1 RWX1257     0.0000 
     43 H           3.2372   -7.2760   33.2830 H         1 RWX1257     0.0000 
     44 H           5.2586  -10.2822   30.6225 H         1 RWX1257     0.0000 
     45 H           3.4602   -8.0080   36.6430 H         1 RWX1257     0.0000 
     46 H           2.4318   -7.2952   35.6328 H         1 RWX1257     0.0000 
     47 H           2.1256   -8.7763   36.1794 H         1 RWX1257     0.0000 
     48 H           6.4384  -13.8383   20.6037 H         1 RWX1257     0.0000 
     49 H           5.9124  -13.4626   22.0762 H         1 RWX1257     0.0000 
     50 H           5.3915  -12.6335   20.8005 H         1 RWX1257     0.0000 
     51 H           7.7372  -12.0402   28.8326 H         1 RWX1257     0.0000 
     52 H           6.9121  -11.6739   30.1635 H         1 RWX1257     0.0000 
     53 H           6.4873  -12.9482   29.2793 H         1 RWX1257     0.0000 
@<TRIPOS>BOND
     1   20    1 1    
     2   21    1 2    
     3   34    1 1    
     4    3    2 1    
     5    7    2 2    
     6   32    2 1    
     7    5    3 2    
     8   33    3 1    
     9    6    4 2    
    10    8    4 1    
    11   22    4 1    
    12   10    5 1    
    13   23    5 1    
    14   11    6 1    
    15   31    6 1    
    16   17    7 1    
    17   23    7 1    
    18   20    8 2    
    19   24    8 1    
    20   22    9 2    
    21   25    9 1    
    22   31    9 1    
    23   26   10 am   
    24   27   10 2    
    25   28   11 ar   
    26   29   11 ar   
    27   13   12 1    
    28   15   12 1    
    29   35   12 1    
    30   36   12 1    
    31   25   13 1    
    32   37   13 1    
    33   38   13 1    
    34   16   14 1    
    35   25   14 1    
    36   39   14 1    
    37   40   14 1    
    38   16   15 1    
    39   26   15 1    
    40   41   15 1    
    41   30   16 1    
    42   42   16 1    
    43   45   17 1    
    44   46   17 1    
    45   47   17 1    
    46   24   18 1    
    47   48   18 1    
    48   49   18 1    
    49   50   18 1    
    50   30   19 1    
    51   51   19 1    
    52   52   19 1    
    53   53   19 1    
    54   24   21 1    
    55   43   23 1    
    56   44   26 1    
@<TRIPOS>SUBSTRUCTURE
     1 RWX1257     1 GROUP   
@<TRIPOS>SET

