#    Name: 2FF1_2_CAVITY_N1_ALL.mol2
#    Modification time : Mon Mar 10 12:27:33 2014

@<TRIPOS>MOLECULE
2FF1_2_CAVITY_N1_ALL.mol2
   67     0     6     0     0
SMALL
NO_CHARGES


@<TRIPOS>ATOM
      1 CA         17.5221   28.3322   40.4718 C.3       5 GLY6        0.0000 
      2 CA         18.1166   26.9571   40.3964 C.3       5 GLY6        0.0000 
      3 N          17.9701   28.6029   39.0661 N.2       2 ALA2        0.0000 
      4 CZ         18.5646   27.2278   38.9906 C.ar      4 PHE5        0.0000 
      5 N          18.4180   28.8737   37.6603 N.2       2 ALA2        0.0000 
      6 CZ         19.0125   27.4986   37.5849 C.ar      4 PHE5        0.0000 
      7 N          18.8660   29.1444   36.2546 N.2       2 ALA2        0.0000 
      8 CZ         19.4605   27.7693   36.1792 C.ar      4 PHE5        0.0000 
      9 CZ         20.0550   26.3942   36.1038 C.ar      4 PHE5        0.0000 
     10 CZ         19.9085   28.0401   34.7735 C.ar      4 PHE5        0.0000 
     11 CA         20.5029   26.6650   34.6981 C.3       5 GLY6        0.0000 
     12 CA         20.9509   26.9357   33.2924 C.3       5 GLY6        0.0000 
     13 CA         16.2199   27.7976   39.9538 C.3       5 GLY6        0.0000 
     14 CA         16.8143   26.4225   39.8784 C.3       5 GLY6        0.0000 
     15 N          17.4088   25.0474   39.8030 N.2       2 ALA2        0.0000 
     16 N          16.6678   28.0683   38.5481 N.2       2 ALA2        0.0000 
     17 CZ         17.2623   26.6932   38.4727 C.ar      4 PHE5        0.0000 
     18 N          17.1158   28.3391   37.1424 N.2       2 ALA2        0.0000 
     19 CZ         17.7103   26.9640   37.0670 C.ar      4 PHE5        0.0000 
     20 CA         19.6486   26.4011   32.7744 C.3       5 GLY6        0.0000 
     21 N          16.1065   24.5128   39.2850 N.2       2 ALA2        0.0000 
     22 CZ         21.1691   28.2970   40.0266 C.ar      4 PHE5        0.0000 
     23 O          21.7636   26.9219   39.9512 O.2       2 ALA2        0.0000 
     24 CZ         22.3581   25.5468   39.8758 C.ar      4 PHE5        0.0000 
     25 CZ         22.2116   27.1927   38.5455 C.ar      4 PHE5        0.0000 
     26 CZ         22.8061   25.8176   38.4700 C.ar      4 PHE5        0.0000 
     27 CZ         22.6595   27.4634   37.1397 C.ar      4 PHE5        0.0000 
     28 CZ         23.2540   26.0883   37.0643 C.ar      4 PHE5        0.0000 
     29 CZ         22.5130   29.1093   35.8094 C.ar      4 PHE5        0.0000 
     30 OG         23.1075   27.7342   35.7340 O.2       1 SER1        0.0000 
     31 O          22.0234   28.5609   41.9503 O.2       2 ALA2        0.0000 
     32 O          22.6179   27.1858   41.8748 O.2       2 ALA2        0.0000 
     33 CA         23.2124   25.8107   41.7994 C.3       5 GLY6        0.0000 
     34 CZ         22.4714   28.8316   40.5445 C.ar      4 PHE5        0.0000 
     35 DU         23.0659   27.4565   40.4691 H         6 CUB7        0.0000 
     36 CZ         23.6604   26.0814   40.3937 C.ar      4 PHE5        0.0000 
     37 CZ         23.5138   27.7273   39.0634 C.ar      4 PHE5        0.0000 
     38 NZ         24.1083   26.3522   38.9880 N.2       3 LYS4        0.0000 
     39 NZ         23.9618   27.9980   37.6577 N.2       3 LYS4        0.0000 
     40 CZ         23.8153   29.6439   36.3274 C.ar      4 PHE5        0.0000 
     41 N          24.4098   28.2688   36.2520 N.2       2 ALA2        0.0000 
     42 CZ         18.8244   28.8668   40.9897 C.ar      4 PHE5        0.0000 
     43 CZ         19.8668   27.7624   39.5086 C.ar      4 PHE5        0.0000 
     44 CZ         20.4613   26.3873   39.4332 C.ar      4 PHE5        0.0000 
     45 CZ         20.3148   28.0332   38.1029 C.ar      4 PHE5        0.0000 
     46 CZ         20.9093   26.6581   38.0275 C.ar      4 PHE5        0.0000 
     47 CZ         20.7628   28.3039   36.6972 C.ar      4 PHE5        0.0000 
     48 CZ         21.3573   26.9288   36.6218 C.ar      4 PHE5        0.0000 
     49 CZ         21.2107   28.5747   35.2915 C.ar      4 PHE5        0.0000 
     50 OG         21.8052   27.1996   35.2161 O.2       1 SER1        0.0000 
     51 CA         23.3257   29.0955   42.4682 C.3       5 GLY6        0.0000 
     52 NZ         23.9202   27.7204   42.3928 N.2       3 LYS4        0.0000 
     53 NZ         24.5147   26.3453   42.3174 N.2       3 LYS4        0.0000 
     54 CZ         23.7737   29.3662   41.0625 C.ar      4 PHE5        0.0000 
     55 DU         24.3682   27.9911   40.9871 H         6 CUB7        0.0000 
     56 N          24.9626   26.6160   40.9117 N.2       2 ALA2        0.0000 
     57 CZ         24.8161   28.2619   39.5814 C.ar      4 PHE5        0.0000 
     58 NZ         25.4106   26.8868   39.5060 N.2       3 LYS4        0.0000 
     59 CZ         24.6696   29.9077   38.2511 C.ar      4 PHE5        0.0000 
     60 NZ         25.2641   28.5326   38.1757 N.2       3 LYS4        0.0000 
     61 CA         25.7120   28.8034   36.7700 C.3       5 GLY6        0.0000 
     62 N          25.6704   28.5257   41.5051 N.2       2 ALA2        0.0000 
     63 CZ         25.5239   30.1716   40.1748 C.ar      4 PHE5        0.0000 
     64 NZ         26.1184   28.7965   40.0994 N.2       3 LYS4        0.0000 
     65 NZ         26.7129   27.4214   40.0239 N.2       3 LYS4        0.0000 
     66 NZ         25.9719   30.4423   38.7691 N.2       3 LYS4        0.0000 
     67 NZ         26.5664   29.0672   38.6936 N.2       3 LYS4        0.0000 
@<TRIPOS>BOND
@<TRIPOS>SUBSTRUCTURE
     1 SER1       30 GROUP   
     2 ALA2        3 GROUP   
     3 LYS4       38 GROUP   
     4 PHE5        4 GROUP   
     5 GLY6        1 GROUP   
     6 CUB7       35 GROUP   
@<TRIPOS>SET

