#    Name: 2ff1_IMH_2_INTS_M
#    Modification time : Tue Mar 25 12:31:24 2014

@<TRIPOS>MOLECULE
2ff1_IMH_2_INTS_M
   39     0     9     0     0
SMALL
NO_CHARGES


@<TRIPOS>ATOM
      1 N          21.0305   27.2560   42.9140 N.am      2 SEC2        0.0000 
      2 N          22.3560   27.3620   42.8460 N.am      8 SEL2        0.0000 
      3 N          19.7050   27.1500   42.9820 N.am      5 SEP2        0.0000 
      4 N          23.0760   26.9190   43.8690 N.am      2 SEC2        0.0000 
      5 N          23.7960   26.4760   44.8920 N.am      5 SEP2        0.0000 
      6 CA         22.5440   27.5010   44.3970 C.3       3 GLC5        0.0000 
      7 CA         23.2550   28.4470   42.5240 C.3       9 GLL5        0.0000 
      8 CA         21.8330   26.5550   46.2700 C.3       6 GLP5        0.0000 
      9 CA         23.0250   30.2850   42.2545 C.3       3 GLC5        0.0000 
     10 CA         22.7950   32.1230   41.9850 C.3       6 GLP5        0.0000 
     11 CA         25.5195   29.5510   43.1930 C.3       3 GLC5        0.0000 
     12 CA         25.6250   29.0850   41.4010 C.3       9 GLL5        0.0000 
     13 CA         25.4140   30.0170   44.9850 C.3       6 GLP5        0.0000 
     14 CA         24.8935   30.8420   41.8980 C.3       3 GLC5        0.0000 
     15 CA         24.1620   32.5990   42.3950 C.3       6 GLP5        0.0000 
     16 N          27.3095   28.1020   43.0285 N.am      2 SEC2        0.0000 
     17 N          27.0270   28.9910   41.7960 N.am      8 SEL2        0.0000 
     18 N          27.5920   27.2130   44.2610 N.am      5 SEP2        0.0000 
     19 O          27.4640   30.1385   41.9445 O.2       1 ALC1        0.0000 
     20 O          27.0270   28.9910   41.7960 O.2       7 ALL1        0.0000 
     21 O          27.9010   31.2860   42.0930 O.2       4 ALP1        0.0000 
     22 CA         24.2630   30.1590   39.6585 C.3       3 GLC5        0.0000 
     23 CA         25.4420   28.7880   39.8550 C.3       9 GLL5        0.0000 
     24 CA         23.0840   31.5300   39.4620 C.3       6 GLP5        0.0000 
     25 O          27.6615   29.9510   39.5570 O.2       1 ALC1        0.0000 
     26 O          26.6680   28.9030   39.0640 O.2       7 ALL1        0.0000 
     27 O          28.6550   30.9990   40.0500 O.2       4 ALP1        0.0000 
     28 CA         24.8010   25.2315   39.7755 C.3       3 GLC5        0.0000 
     29 CA         24.8200   27.3540   39.7830 C.3       9 GLL5        0.0000 
     30 CA         24.7820   23.1090   39.7680 C.3       6 GLP5        0.0000 
     31 CA         22.0310   25.5930   35.0405 C.3       3 GLC5        0.0000 
     32 CA         21.1170   27.2720   36.1350 C.3       9 GLL5        0.0000 
     33 CA         22.9450   23.9140   33.9460 C.3       6 GLP5        0.0000 
     34 CA         25.7385   27.9195   35.4055 C.3       3 GLC5        0.0000 
     35 CA         23.5420   27.4820   35.3580 C.3       9 GLL5        0.0000 
     36 CA         27.9350   28.3570   35.4530 C.3       6 GLP5        0.0000 
     37 CA         23.2435   25.6980   34.6520 C.3       3 GLC5        0.0000 
     38 CA         24.7063   29.1330   43.6600 C.3       3 GLC5        0.0000 
     39 CA         24.7420   28.0510   42.1460 C.3       9 GLL5        0.0000 
@<TRIPOS>BOND
@<TRIPOS>SUBSTRUCTURE
     1 ALC1       19 GROUP        1 X    ALC  0     ROOT ALC X 1
     2 SEC2        1 GROUP        1 X    SEC  0     **** SEC X 2
     3 GLC5        6 GROUP        1 X    GLC  0     **** GLC X 6
     4 ALP1       21 GROUP        1 Y    ALP  0     ROOT ALP Y 8
     5 SEP2        3 GROUP        1 Y    SEP  0     **** SEP Y 9
     6 GLP5        8 GROUP        1 Y    GLP  0     **** GLP Y 13
     7 ALL1       20 GROUP        1 Z    ALL  0     ROOT ALL Z 15
     8 SEL2        2 GROUP        1 Z    SEL  0     **** SEL Z 16
     9 GLL5        7 GROUP        1 Z    GLL  0     **** GLL Z 20
@<TRIPOS>SET

