#    Name: 2ff1_IMH_2_ligand
#    Modification time : Tue Mar 25 12:31:24 2014

@<TRIPOS>MOLECULE
2ff1_IMH_2_ligand
   32    34     1     0     0
SMALL
NO_CHARGES


@<TRIPOS>ATOM
      1 O5'        22.3560   27.3620   42.8460 O.3       1 IMH402      0.0000 
      2 C5'        23.2550   28.4470   42.5240 C.3       1 IMH402      0.0000 
      3 C4'        24.7420   28.0510   42.1460 C.3       1 IMH402      0.0000 
      4 N4'        24.6540   26.9160   41.1770 N.4       1 IMH402      0.0000 
      5 C3'        25.6250   29.0850   41.4010 C.3       1 IMH402      0.0000 
      6 O3'        27.0270   28.9910   41.7960 O.3       1 IMH402      0.0000 
      7 C2'        25.4420   28.7880   39.8550 C.3       1 IMH402      0.0000 
      8 O2'        26.6680   28.9030   39.0640 O.3       1 IMH402      0.0000 
      9 C1'        24.8200   27.3540   39.7830 C.3       1 IMH402      0.0000 
     10 C9         23.3550   27.2750   39.0400 C.2       1 IMH402      0.0000 
     11 C8         22.1550   27.1490   39.6600 C.2       1 IMH402      0.0000 
     12 N7         21.0910   27.1240   38.7090 N.pl3     1 IMH402      0.0000 
     13 C5         21.7540   27.2400   37.4790 C.ar      1 IMH402      0.0000 
     14 C6         21.1170   27.2720   36.1350 C.ar      1 IMH402      0.0000 
     15 O6         19.9060   27.2030   35.8620 O.3       1 IMH402      0.0000 
     16 N1         22.1290   27.3960   35.1300 N.ar      1 IMH402      0.0000 
     17 C2         23.5420   27.4820   35.3580 C.ar      1 IMH402      0.0000 
     18 N3         24.0180   27.4500   36.6100 N.ar      1 IMH402      0.0000 
     19 C4         23.1070   27.3300   37.6300 C.ar      1 IMH402      0.0000 
     20 H          23.3365   29.1735   43.3710 H         1 IMH402      0.0000 
     21 H          22.8709   29.0531   41.6655 H         1 IMH402      0.0000 
     22 H          25.2519   27.7031   43.0153 H         1 IMH402      0.0000 
     23 H          25.2140   30.0588   41.5786 H         1 IMH402      0.0000 
     24 H          24.6675   29.4703   39.5069 H         1 IMH402      0.0000 
     25 H          25.4801   26.7058   39.2639 H         1 IMH402      0.0000 
     26 H          22.0010   27.0825   40.6114 H         1 IMH402      0.0000 
     27 H          20.2028   27.0501   38.8764 H         1 IMH402      0.0000 
     28 H          24.1535   27.5671   34.5346 H         1 IMH402      0.0000 
     29 H          22.3495   26.7812   42.0320 H         1 IMH402      0.0000 
     30 H          27.2007   29.8172   42.3320 H         1 IMH402      0.0000 
     31 H          27.1826   29.6465   39.4910 H         1 IMH402      0.0000 
     32 H          19.4402   27.2166   36.7468 H         1 IMH402      0.0000 
@<TRIPOS>BOND
     1    2    1 1    
     2   29    1 1    
     3    3    2 1    
     4   20    2 1    
     5   21    2 1    
     6    4    3 1    
     7    5    3 1    
     8   22    3 1    
     9    9    4 1    
    10    6    5 1    
    11    7    5 1    
    12   23    5 1    
    13   30    6 1    
    14    8    7 1    
    15    9    7 1    
    16   24    7 1    
    17   31    8 1    
    18   10    9 1    
    19   25    9 1    
    20   11   10 2    
    21   19   10 1    
    22   12   11 1    
    23   26   11 1    
    24   13   12 1    
    25   27   12 1    
    26   14   13 ar   
    27   19   13 ar   
    28   15   14 1    
    29   16   14 ar   
    30   32   15 1    
    31   17   16 ar   
    32   18   17 ar   
    33   28   17 1    
    34   19   18 ar   
@<TRIPOS>SUBSTRUCTURE
     1 IMH402      1 GROUP   
@<TRIPOS>SET

