#    Name: 4FXQ_2_CAVITY_N1_6.mol2
#    Modification time : Mon Mar 10 21:18:05 2014

@<TRIPOS>MOLECULE
4FXQ_2_CAVITY_N1_6.mol2
  113     0     6     0     0
SMALL
NO_CHARGES


@<TRIPOS>ATOM
      1 N         -32.5198 -122.2852    2.6039 N.2       2 ALA2        0.0000 
      2 CA        -34.6006 -121.8812    2.5191 C.3       5 GLY6        0.0000 
      3 N         -33.7657 -123.1173    2.6770 N.2       2 ALA2        0.0000 
      4 DU        -32.9309 -124.3535    2.8349 H         6 CUB7        0.0000 
      5 CZ        -35.0116 -123.9494    2.7501 C.ar      4 PHE5        0.0000 
      6 DU        -34.1768 -125.1856    2.9080 H         6 CUB7        0.0000 
      7 NZ        -36.6686 -126.8497    3.0543 N.2       3 LYS4        0.0000 
      8 CZ        -40.8301 -126.0416    2.8848 C.ar      4 PHE5        0.0000 
      9 CZ        -39.9953 -127.2778    3.0427 C.ar      4 PHE5        0.0000 
     10 DU        -39.1604 -128.5139    3.2005 H         6 CUB7        0.0000 
     11 OG        -42.0760 -126.8737    2.9579 O.2       1 SER1        0.0000 
     12 DU        -41.2412 -128.1099    3.1158 H         6 CUB7        0.0000 
     13 DU        -39.5715 -130.5822    3.4315 H         6 CUB7        0.0000 
     14 O         -42.4871 -128.9419    3.1889 O.2       2 ALA2        0.0000 
     15 DU        -41.6522 -130.1781    3.3468 H         6 CUB7        0.0000 
     16 NZ        -36.5448 -122.3363   -5.0150 N.2       3 LYS4        0.0000 
     17 CZ        -35.7099 -123.5724   -4.8571 C.ar      4 PHE5        0.0000 
     18 CA        -37.7907 -123.1683   -4.9419 C.3       5 GLY6        0.0000 
     19 CZ        -36.9558 -124.4045   -4.7840 C.ar      4 PHE5        0.0000 
     20 N         -38.2017 -125.2366   -4.7108 N.2       2 ALA2        0.0000 
     21 CZ        -37.3669 -126.4728   -4.5530 C.ar      4 PHE5        0.0000 
     22 N         -39.4476 -126.0687   -4.6377 N.2       2 ALA2        0.0000 
     23 N         -38.6128 -127.3048   -4.4798 N.2       2 ALA2        0.0000 
     24 N         -37.7634 -123.3402   -6.4317 N.2       2 ALA2        0.0000 
     25 OG        -36.9285 -124.5763   -6.2738 O.2       1 SER1        0.0000 
     26 CA        -39.0093 -124.1723   -6.3586 C.3       5 GLY6        0.0000 
     27 N         -38.1744 -125.4084   -6.2007 N.2       2 ALA2        0.0000 
     28 CZ        -37.3396 -126.6446   -6.0428 C.ar      4 PHE5        0.0000 
     29 CA        -39.4203 -126.2405   -6.1276 C.3       5 GLY6        0.0000 
     30 O         -38.5855 -127.4767   -5.9697 O.2       2 ALA2        0.0000 
     31 CZ        -31.2466 -121.6250    1.0409 C.ar      4 PHE5        0.0000 
     32 OG        -30.4118 -122.8611    1.1988 O.2       1 SER1        0.0000 
     33 N         -32.4925 -122.4571    1.1140 N.2       2 ALA2        0.0000 
     34 OG        -31.6577 -123.6932    1.2719 O.2       1 SER1        0.0000 
     35 DU        -30.8228 -124.9294    1.4298 H         6 CUB7        0.0000 
     36 N         -34.5733 -122.0530    1.0293 N.2       2 ALA2        0.0000 
     37 OG        -33.7384 -123.2892    1.1871 O.2       1 SER1        0.0000 
     38 OG        -32.9036 -124.5253    1.3450 O.2       1 SER1        0.0000 
     39 CZ        -35.8192 -122.8851    1.1024 C.ar      4 PHE5        0.0000 
     40 OG        -34.9843 -124.1212    1.2603 O.2       1 SER1        0.0000 
     41 OG        -34.1495 -125.3574    1.4182 O.2       1 SER1        0.0000 
     42 CZ        -36.2302 -124.9533    1.3334 C.ar      4 PHE5        0.0000 
     43 OG        -35.3954 -126.1895    1.4913 O.2       1 SER1        0.0000 
     44 CZ        -37.8872 -127.8537    1.6375 C.ar      4 PHE5        0.0000 
     45 DU        -37.0523 -129.0898    1.7954 H         6 CUB7        0.0000 
     46 OG        -39.9680 -127.4496    1.5528 O.2       1 SER1        0.0000 
     47 DU        -39.1331 -128.6858    1.7107 H         6 CUB7        0.0000 
     48 O         -42.0487 -127.0455    1.4680 O.2       2 ALA2        0.0000 
     49 O         -41.2139 -128.2817    1.6259 O.2       2 ALA2        0.0000 
     50 DU        -40.3790 -129.5179    1.7838 H         6 CUB7        0.0000 
     51 OG        -38.7093 -131.9902    2.0996 O.2       1 SER1        0.0000 
     52 O         -43.2946 -127.8776    1.5412 O.2       2 ALA2        0.0000 
     53 O         -42.4598 -129.1138    1.6990 O.2       2 ALA2        0.0000 
     54 DU        -41.6249 -130.3499    1.8569 H         6 CUB7        0.0000 
     55 DU        -40.7901 -131.5861    2.0148 H         6 CUB7        0.0000 
     56 OG        -38.1471 -125.5803   -7.6906 O.2       1 SER1        0.0000 
     57 OG        -37.3123 -126.8164   -7.5327 O.2       1 SER1        0.0000 
     58 NZ        -36.5721 -122.1644   -3.5251 N.2       3 LYS4        0.0000 
     59 CZ        -35.7372 -123.4006   -3.3672 C.ar      4 PHE5        0.0000 
     60 CZ        -36.9832 -124.2327   -3.2941 C.ar      4 PHE5        0.0000 
     61 CA        -38.2291 -125.0648   -3.2210 C.3       5 GLY6        0.0000 
     62 CZ        -37.3942 -126.3009   -3.0631 C.ar      4 PHE5        0.0000 
     63 O         -38.6401 -127.1330   -2.9900 O.2       2 ALA2        0.0000 
     64 N         -37.8053 -128.3692   -2.8321 N.2       2 ALA2        0.0000 
     65 O         -39.8860 -127.9651   -2.9168 O.2       2 ALA2        0.0000 
     66 NZ        -35.3535 -121.1605   -2.1084 N.2       3 LYS4        0.0000 
     67 OG        -34.5187 -122.3967   -1.9505 O.2       1 SER1        0.0000 
     68 NZ        -36.5994 -121.9926   -2.0352 N.2       3 LYS4        0.0000 
     69 OG        -35.7646 -123.2287   -1.8774 O.2       1 SER1        0.0000 
     70 CA        -37.8453 -122.8247   -1.9621 C.3       5 GLY6        0.0000 
     71 OG        -37.0105 -124.0608   -1.8042 O.2       1 SER1        0.0000 
     72 OG        -38.2564 -124.8929   -1.7311 O.2       1 SER1        0.0000 
     73 CZ        -37.4215 -126.1291   -1.5732 C.ar      4 PHE5        0.0000 
     74 CZ        -36.5867 -127.3653   -1.4153 C.ar      4 PHE5        0.0000 
     75 OG        -38.6674 -126.9612   -1.5001 O.2       1 SER1        0.0000 
     76 CZ        -37.8326 -128.1973   -1.3422 C.ar      4 PHE5        0.0000 
     77 OG        -36.9977 -129.4335   -1.1843 O.2       1 SER1        0.0000 
     78 O         -39.9133 -127.7933   -1.4270 O.2       2 ALA2        0.0000 
     79 N         -39.0785 -129.0294   -1.2691 N.2       2 ALA2        0.0000 
     80 N         -38.2436 -130.2656   -1.1112 N.2       2 ALA2        0.0000 
     81 CA        -40.3244 -129.8615   -1.1960 C.3       5 GLY6        0.0000 
     82 CA        -39.4895 -131.0977   -1.0381 C.3       5 GLY6        0.0000 
     83 O         -38.6547 -132.3338   -0.8802 O.2       2 ALA2        0.0000 
     84 CA        -35.0390 -123.7776    4.2400 C.3       5 GLY6        0.0000 
     85 NZ        -34.2041 -125.0137    4.3979 N.2       3 LYS4        0.0000 
     86 NZ        -40.0226 -127.1059    4.5325 N.2       3 LYS4        0.0000 
     87 DU        -41.2685 -127.9380    4.6057 H         6 CUB7        0.0000 
     88 DU        -40.4336 -129.1742    4.7635 H         6 CUB7        0.0000 
     89 CZ        -30.3845 -123.0330   -0.2911 C.ar      4 PHE5        0.0000 
     90 OG        -32.4652 -122.6289   -0.3759 O.2       1 SER1        0.0000 
     91 OG        -31.6304 -123.8651   -0.2180 O.2       1 SER1        0.0000 
     92 OG        -30.7955 -125.1012   -0.0601 O.2       1 SER1        0.0000 
     93 N         -35.3808 -120.9887   -0.6185 N.2       2 ALA2        0.0000 
     94 N         -34.5460 -122.2248   -0.4606 N.2       2 ALA2        0.0000 
     95 CZ        -36.6267 -121.8207   -0.5454 C.ar      4 PHE5        0.0000 
     96 OG        -35.7919 -123.0569   -0.3875 O.2       1 SER1        0.0000 
     97 CZ        -37.0378 -123.8890   -0.3143 C.ar      4 PHE5        0.0000 
     98 OG        -36.2029 -125.1252   -0.1565 O.2       1 SER1        0.0000 
     99 OG        -35.3681 -126.3613    0.0014 O.2       1 SER1        0.0000 
    100 OG        -37.4488 -125.9573   -0.0833 O.2       1 SER1        0.0000 
    101 CZ        -36.6140 -127.1934    0.0745 C.ar      4 PHE5        0.0000 
    102 OG        -35.7791 -128.4296    0.2324 O.2       1 SER1        0.0000 
    103 OG        -37.8599 -128.0255    0.1477 O.2       1 SER1        0.0000 
    104 OG        -37.0250 -129.2617    0.3055 O.2       1 SER1        0.0000 
    105 OG        -39.9406 -127.6214    0.0629 O.2       1 SER1        0.0000 
    106 DU        -39.1058 -128.8576    0.2208 H         6 CUB7        0.0000 
    107 DU        -38.2709 -130.0938    0.3787 H         6 CUB7        0.0000 
    108 O         -40.3517 -129.6897    0.2939 O.2       2 ALA2        0.0000 
    109 DU        -39.5168 -130.9259    0.4518 H         6 CUB7        0.0000 
    110 OG        -38.6820 -132.1620    0.6097 O.2       1 SER1        0.0000 
    111 O         -41.5976 -130.5218    0.3671 O.2       2 ALA2        0.0000 
    112 CA        -40.7628 -131.7579    0.5249 C.3       5 GLY6        0.0000 
    113 N         -42.8435 -131.3539    0.4402 N.2       2 ALA2        0.0000 
@<TRIPOS>BOND
@<TRIPOS>SUBSTRUCTURE
     1 SER1       11 GROUP   
     2 ALA2        1 GROUP   
     3 LYS4        7 GROUP   
     4 PHE5        5 GROUP   
     5 GLY6        2 GROUP   
     6 CUB7        4 GROUP   
@<TRIPOS>SET

