#    Name: 4fxq_G9L_2_INTS_M
#    Modification time : Mon Mar 24 21:01:25 2014

@<TRIPOS>MOLECULE
4fxq_G9L_2_INTS_M
   55     0     9     0     0
SMALL
NO_CHARGES


@<TRIPOS>ATOM
      1 O         -38.3810 -129.1245   -4.4435 O.2       1 ALC1        0.0000 
      2 O         -38.0110 -127.7810   -4.4090 O.2       7 ALL1        0.0000 
      3 O         -38.7510 -130.4680   -4.4780 O.2       4 ALP1        0.0000 
      4 N         -38.6090 -128.6435   -6.9580 N.am      2 SEC2        0.0000 
      5 N         -37.9900 -127.4480   -6.7160 N.am      8 SEL2        0.0000 
      6 N         -39.2280 -129.8390   -7.2000 N.am      5 SEP2        0.0000 
      7 CA        -37.9455 -122.7425   -8.8005 C.3       3 GLC5        0.0000 
      8 CA        -36.9520 -122.4670   -7.1180 C.3       9 GLL5        0.0000 
      9 CA        -38.9390 -123.0180  -10.4830 C.3       6 GLP5        0.0000 
     10 CA        -37.8635 -121.0465   -5.3825 C.3       3 GLC5        0.0000 
     11 CA        -36.9330 -122.7990   -4.7980 C.3       9 GLL5        0.0000 
     12 CA        -38.7940 -119.2940   -5.9670 C.3       6 GLP5        0.0000 
     13 CA        -37.5945 -124.3240   -8.5695 C.3       3 GLC5        0.0000 
     14 CA        -37.3910 -124.6480   -6.3620 C.3       9 GLL5        0.0000 
     15 CA        -37.7980 -124.0000  -10.7770 C.3       6 GLP5        0.0000 
     16 CA        -37.1795 -124.8915    1.7390 C.3       3 GLC5        0.0000 
     17 CA        -35.6460 -125.3350    1.0320 C.3       9 GLL5        0.0000 
     18 CA        -38.7130 -124.4480    2.4460 C.3       6 GLP5        0.0000 
     19 CA        -34.7900 -125.6205   -0.8290 C.3       3 GLC5        0.0000 
     20 CA        -33.9340 -125.9060   -2.6900 C.3       6 GLP5        0.0000 
     21 CA        -36.2735 -124.5645    2.6910 C.3       3 GLC5        0.0000 
     22 CA        -34.6130 -125.5180    2.1570 C.3       9 GLL5        0.0000 
     23 CA        -37.9340 -123.6110    3.2250 C.3       6 GLP5        0.0000 
     24 CA        -38.7520 -125.8325    0.3005 C.3       3 GLC5        0.0000 
     25 CA        -38.2430 -127.6710   -0.6690 C.3       9 GLL5        0.0000 
     26 CA        -39.2610 -123.9940    1.2700 C.3       6 GLP5        0.0000 
     27 CA        -36.2215 -127.4610   -1.5890 C.3       3 GLC5        0.0000 
     28 CA        -34.2000 -127.2510   -2.5090 C.3       6 GLP5        0.0000 
     29 CA        -38.3350 -124.7450   -0.0855 C.3       3 GLC5        0.0000 
     30 CA        -37.4090 -125.4960   -1.4410 C.3       9 GLL5        0.0000 
     31 CA        -35.6715 -125.7010   -2.0655 C.3       3 GLC5        0.0000 
     32 CA        -35.8875 -126.6160   -2.6890 C.3       3 GLC5        0.0000 
     33 CA        -37.5750 -125.9810   -2.8690 C.3       9 GLL5        0.0000 
     34 CA        -38.7815 -123.6265   -3.5695 C.3       3 GLC5        0.0000 
     35 CA        -37.4060 -125.0270   -3.9850 C.3       9 GLL5        0.0000 
     36 CA        -40.1570 -122.2260   -3.1540 C.3       6 GLP5        0.0000 
     37 CA        -36.0090 -126.9620   -5.6890 C.3       3 GLC5        0.0000 
     38 CA        -37.5370 -125.5100   -5.2720 C.3       9 GLL5        0.0000 
     39 CA        -34.4810 -128.4140   -6.1060 C.3       6 GLP5        0.0000 
     40 CA        -35.2957 -122.3143   -7.1430 C.3       3 GLC5        0.0000 
     41 CA        -37.0890 -123.2920   -6.1040 C.3       9 GLL5        0.0000 
     42 CA        -33.5710 -121.7490   -7.6750 C.3       6 GLP5        0.0000 
     43 CA        -37.2892 -120.9857   -6.7495 C.3       3 GLC5        0.0000 
     44 CA        -37.5580 -119.0920   -6.8880 C.3       6 GLP5        0.0000 
     45 CA        -39.2344 -123.6119   -6.9898 C.3       3 GLC5        0.0000 
     46 CA        -41.2630 -123.4600   -7.4930 C.3       6 GLP5        0.0000 
     47 CA        -32.4415 -120.5755    2.6787 C.3       3 GLC5        0.0000 
     48 CA        -33.0100 -122.5270    1.9930 C.3       9 GLL5        0.0000 
     49 CA        -32.4600 -118.4590    2.8190 C.3       6 GLP5        0.0000 
     50 CA        -35.0953 -122.0393    2.8913 C.3       3 GLC5        0.0000 
     51 CA        -36.8100 -121.3860    3.6730 C.3       6 GLP5        0.0000 
     52 CA        -36.1700 -127.9355   -3.0888 C.3       3 GLC5        0.0000 
     53 CA        -38.0530 -128.2910   -2.0020 C.3       9 GLL5        0.0000 
     54 CA        -34.3840 -128.0580   -3.6140 C.3       6 GLP5        0.0000 
     55 CA        -38.6033 -122.7426   -4.1685 C.3       3 GLC5        0.0000 
@<TRIPOS>BOND
@<TRIPOS>SUBSTRUCTURE
     1 ALC1        1 GROUP        1 X    ALC  0     ROOT ALC X 1
     2 SEC2        4 GROUP        1 X    SEC  0     **** SEC X 2
     3 GLC5        7 GROUP        1 X    GLC  0     **** GLC X 6
     4 ALP1        3 GROUP        1 Y    ALP  0     ROOT ALP Y 8
     5 SEP2        6 GROUP        1 Y    SEP  0     **** SEP Y 9
     6 GLP5        9 GROUP        1 Y    GLP  0     **** GLP Y 13
     7 ALL1        2 GROUP        1 Z    ALL  0     ROOT ALL Z 15
     8 SEL2        5 GROUP        1 Z    SEL  0     **** SEL Z 16
     9 GLL5        8 GROUP        1 Z    GLL  0     **** GLL Z 20
@<TRIPOS>SET

