#    Name: 4fxq_G9L_2_ligand
#    Modification time : Mon Mar 24 21:01:25 2014

@<TRIPOS>MOLECULE
4fxq_G9L_2_ligand
   51    54     1     0     0
SMALL
NO_CHARGES


@<TRIPOS>ATOM
      1 N11       -33.6340 -124.4730    2.3790 N.4       1 G9L501      0.0000 
      2 N12       -37.4000 -126.5340   -0.4410 N.am      1 G9L501      0.0000 
      3 N13       -38.0110 -127.7810   -4.4090 N.am      1 G9L501      0.0000 
      4 OAA       -36.6300 -127.4360    1.5240 O.2       1 G9L501      0.0000 
      5 OAB       -37.9900 -127.4480   -6.7160 O.2       1 G9L501      0.0000 
      6 FAC       -36.9520 -122.4670   -7.1180 F         1 G9L501      0.0000 
      7 CAD       -36.9330 -122.7990   -4.7980 C.ar      1 G9L501      0.0000 
      8 CAE       -37.0870 -123.6540   -3.7260 C.ar      1 G9L501      0.0000 
      9 CAF       -37.3910 -124.6480   -6.3620 C.ar      1 G9L501      0.0000 
     10 CAG       -31.8360 -122.8570    3.0840 C.3       1 G9L501      0.0000 
     11 CAH       -31.9170 -124.4090    3.5890 C.3       1 G9L501      0.0000 
     12 CAI       -33.0100 -122.5270    1.9930 C.3       1 G9L501      0.0000 
     13 CAJ       -35.6460 -125.3350    1.0320 C.3       1 G9L501      0.0000 
     14 CAK       -38.0530 -128.2910   -2.0020 C.3       1 G9L501      0.0000 
     15 CAL       -32.1880 -124.9360    2.9830 C.3       1 G9L501      0.0000 
     16 CAM       -33.7510 -122.8580    2.2260 C.3       1 G9L501      0.0000 
     17 CAN       -34.6130 -125.5180    2.1570 C.3       1 G9L501      0.0000 
     18 CAO       -38.2430 -127.6710   -0.6690 C.3       1 G9L501      0.0000 
     19 CAP       -37.4090 -125.4960   -1.4410 C.3       1 G9L501      0.0000 
     20 CAR       -36.5630 -126.5010    0.7360 C.2       1 G9L501      0.0000 
     21 CAS       -37.0890 -123.2920   -6.1040 C.ar      1 G9L501      0.0000 
     22 CAT       -37.8590 -127.3350   -3.1250 C.2       1 G9L501      0.0000 
     23 CAU       -37.5750 -125.9810   -2.8690 C.2       1 G9L501      0.0000 
     24 CAV       -37.8430 -126.9380   -5.4710 C.2       1 G9L501      0.0000 
     25 CAW       -37.4060 -125.0270   -3.9850 C.ar      1 G9L501      0.0000 
     26 CAX       -37.5370 -125.5100   -5.2720 C.ar      1 G9L501      0.0000 
     27 H         -33.0747 -124.5748    1.0750 H         1 G9L501      0.0000 
     28 H         -38.2589 -128.7796   -4.5793 H         1 G9L501      0.0000 
     29 H         -36.7066 -121.8104   -4.6543 H         1 G9L501      0.0000 
     30 H         -36.9820 -123.3420   -2.7679 H         1 G9L501      0.0000 
     31 H         -37.4970 -124.9781   -7.3111 H         1 G9L501      0.0000 
     32 H         -30.8895 -122.7043    2.6148 H         1 G9L501      0.0000 
     33 H         -31.9748 -122.2200    3.9291 H         1 G9L501      0.0000 
     34 H         -32.4912 -124.1545    4.6268 H         1 G9L501      0.0000 
     35 H         -30.8182 -124.4123    4.1028 H         1 G9L501      0.0000 
     36 H         -32.3511 -122.8419    1.0281 H         1 G9L501      0.0000 
     37 H         -32.7429 -121.3503    1.9009 H         1 G9L501      0.0000 
     38 H         -35.0955 -125.0590    0.0989 H         1 G9L501      0.0000 
     39 H         -36.2660 -124.4370    1.2749 H         1 G9L501      0.0000 
     40 H         -38.9296 -128.9453   -2.2301 H         1 G9L501      0.0000 
     41 H         -37.1785 -128.9855   -1.9618 H         1 G9L501      0.0000 
     42 H         -31.6716 -125.1156    1.9034 H         1 G9L501      0.0000 
     43 H         -32.4967 -126.0973    3.1262 H         1 G9L501      0.0000 
     44 H         -34.3183 -122.6859    3.2778 H         1 G9L501      0.0000 
     45 H         -34.7673 -122.8798    1.5746 H         1 G9L501      0.0000 
     46 H         -35.1962 -125.7152    3.1066 H         1 G9L501      0.0000 
     47 H         -34.0941 -126.5054    1.9660 H         1 G9L501      0.0000 
     48 H         -39.3169 -127.3876   -0.5603 H         1 G9L501      0.0000 
     49 H         -38.0671 -128.4490    0.1115 H         1 G9L501      0.0000 
     50 H         -36.4660 -124.8969   -1.3947 H         1 G9L501      0.0000 
     51 H         -38.2256 -124.7600   -1.2366 H         1 G9L501      0.0000 
@<TRIPOS>BOND
     1   15    1 1    
     2   16    1 1    
     3   17    1 1    
     4   27    1 1    
     5   18    2 1    
     6   19    2 1    
     7   20    2 am   
     8   22    3 1    
     9   24    3 am   
    10   28    3 1    
    11   20    4 2    
    12   24    5 2    
    13   21    6 1    
    14    8    7 ar   
    15   21    7 ar   
    16   29    7 1    
    17   25    8 ar   
    18   30    8 1    
    19   21    9 ar   
    20   26    9 ar   
    21   31    9 1    
    22   11   10 1    
    23   12   10 1    
    24   32   10 1    
    25   33   10 1    
    26   15   11 1    
    27   34   11 1    
    28   35   11 1    
    29   16   12 1    
    30   36   12 1    
    31   37   12 1    
    32   17   13 1    
    33   20   13 1    
    34   38   13 1    
    35   39   13 1    
    36   18   14 1    
    37   22   14 1    
    38   40   14 1    
    39   41   14 1    
    40   42   15 1    
    41   43   15 1    
    42   44   16 1    
    43   45   16 1    
    44   46   17 1    
    45   47   17 1    
    46   48   18 1    
    47   49   18 1    
    48   23   19 1    
    49   50   19 1    
    50   51   19 1    
    51   23   22 2    
    52   25   23 1    
    53   26   24 1    
    54   26   25 ar   
@<TRIPOS>SUBSTRUCTURE
     1 G9L501      1 GROUP   
@<TRIPOS>SET

