#    Name: 4ek6_10K_1_INTS_M
#    Modification time : Mon Mar 24 18:06:48 2014

@<TRIPOS>MOLECULE
4ek6_10K_1_INTS_M
   50     0     6     0     0
SMALL
NO_CHARGES


@<TRIPOS>ATOM
      1 CA          2.3605  -12.7270  -32.4230 C.3       2 GLC5        0.0000 
      2 CA          4.0950  -13.3350  -32.8540 C.3       6 GLL5        0.0000 
      3 CA          0.6260  -12.1190  -31.9920 C.3       4 GLP5        0.0000 
      4 O           4.0400   -5.5025  -29.7285 O.2       1 ALC1        0.0000 
      5 O           2.9860   -6.1820  -29.0530 O.2       5 ALL1        0.0000 
      6 O           5.0940   -4.8230  -30.4040 O.2       3 ALP1        0.0000 
      7 CA          2.6965   -8.3130  -31.3705 C.3       2 GLC5        0.0000 
      8 CA          4.8870   -8.4510  -31.1910 C.3       6 GLL5        0.0000 
      9 CA          0.5060   -8.1750  -31.5500 C.3       4 GLP5        0.0000 
     10 CA          6.2410   -6.7785  -31.2895 C.3       2 GLC5        0.0000 
     11 CA          7.5950   -5.1060  -31.3880 C.3       4 GLP5        0.0000 
     12 CA          3.1740   -9.8645  -32.9160 C.3       2 GLC5        0.0000 
     13 CA          4.9200   -9.3720  -32.2510 C.3       6 GLL5        0.0000 
     14 CA          1.4280  -10.3570  -33.5810 C.3       4 GLP5        0.0000 
     15 CA          4.1865   -6.7485  -26.9575 C.3       2 GLC5        0.0000 
     16 CA          4.6780   -7.9130  -28.7610 C.3       6 GLL5        0.0000 
     17 CA          3.6950   -5.5840  -25.1540 C.3       4 GLP5        0.0000 
     18 CA         -0.7775   -2.2100  -26.9645 C.3       2 GLC5        0.0000 
     19 CA         -1.3790   -4.2100  -27.5410 C.3       6 GLL5        0.0000 
     20 CA         -0.1760   -0.2100  -26.3880 C.3       4 GLP5        0.0000 
     21 CA         -2.3915   -2.7810  -28.2300 C.3       2 GLC5        0.0000 
     22 CA         -3.4040   -1.3520  -28.9190 C.3       4 GLP5        0.0000 
     23 CA         -0.9510   -4.1280  -24.5495 C.3       2 GLC5        0.0000 
     24 CA         -1.7800   -4.7020  -26.1610 C.3       6 GLL5        0.0000 
     25 CA         -0.1220   -3.5540  -22.9380 C.3       4 GLP5        0.0000 
     26 CA         -2.7330   -6.8050  -28.5195 C.3       2 GLC5        0.0000 
     27 CA         -2.4690   -5.2570  -27.3770 C.3       6 GLL5        0.0000 
     28 CA         -2.9970   -8.3530  -29.6620 C.3       4 GLP5        0.0000 
     29 CA          3.4640  -12.5580  -36.0650 C.3       2 GLC5        0.0000 
     30 CA          4.6060  -13.8000  -34.4080 C.3       6 GLL5        0.0000 
     31 CA          1.9790  -11.8070  -37.4000 C.3       4 GLP5        0.0000 
     32 CA          3.2655  -11.0215  -33.6120 C.3       2 GLC5        0.0000 
     33 CA          5.4070  -11.6200  -34.2490 C.3       6 GLL5        0.0000 
     34 CA          2.7814  -10.6260  -31.2855 C.3       2 GLC5        0.0000 
     35 CA          4.7090  -10.7600  -31.9790 C.3       6 GLL5        0.0000 
     36 CA          1.0730  -10.6530  -32.1160 C.3       4 GLP5        0.0000 
     37 CA          6.5172   -7.7125  -28.7668 C.3       2 GLC5        0.0000 
     38 CA          4.6450   -8.8710  -29.8820 C.3       6 GLL5        0.0000 
     39 CA          8.3730   -7.0330  -28.2120 C.3       4 GLP5        0.0000 
     40 CA          0.8775   -6.8875  -30.0332 C.3       2 GLC5        0.0000 
     41 CA          1.8370   -5.4410  -28.9020 C.3       6 GLL5        0.0000 
     42 CA         -0.2295   -5.0515  -29.8407 C.3       2 GLC5        0.0000 
     43 CA         -1.7080   -4.5030  -31.1650 C.3       4 GLP5        0.0000 
     44 CA          1.8695   -4.5995  -27.2432 C.3       2 GLC5        0.0000 
     45 CA          0.6610   -5.7590  -28.1310 C.3       6 GLL5        0.0000 
     46 CA          2.4900   -3.5990  -25.9700 C.3       4 GLP5        0.0000 
     47 CA         -1.8160   -4.6182  -29.3120 C.3       2 GLC5        0.0000 
     48 CA          0.4553   -4.0275  -26.4105 C.3       2 GLC5        0.0000 
     49 CA         -3.6513   -3.7953  -27.2285 C.3       2 GLC5        0.0000 
     50 CA         -5.1780   -2.6110  -27.6880 C.3       4 GLP5        0.0000 
@<TRIPOS>BOND
@<TRIPOS>SUBSTRUCTURE
     1 ALC1        4 GROUP        1 X    ALC  0     ROOT ALC X 1
     2 GLC5        1 GROUP        1 X    GLC  0     **** GLC X 6
     3 ALP1        6 GROUP        1 Y    ALP  0     ROOT ALP Y 8
     4 GLP5        3 GROUP        1 Y    GLP  0     **** GLP Y 13
     5 ALL1        5 GROUP        1 Z    ALL  0     ROOT ALL Z 15
     6 GLL5        2 GROUP        1 Z    GLL  0     **** GLL Z 20
@<TRIPOS>SET

