#    Name: 4ek6_10K_1_ligand
#    Modification time : Mon Mar 24 18:06:48 2014

@<TRIPOS>MOLECULE
4ek6_10K_1_ligand
   40    43     1     0     0
SMALL
NO_CHARGES


@<TRIPOS>ATOM
      1 O           2.4360   -8.0210  -27.8060 O.2       1 10K301      0.0000 
      2 S           4.0950  -13.3350  -32.8540 S.3       1 10K301      0.0000 
      3 C1          4.6060  -13.8000  -34.4080 C.2       1 10K301      0.0000 
      4 N1          2.9860   -6.1820  -29.0530 N.am      1 10K301      0.0000 
      5 C2          5.2920  -12.8180  -35.0520 C.2       1 10K301      0.0000 
      6 N2          1.7810   -4.1560  -29.3440 N.pl3     1 10K301      0.0000 
      7 C3          5.4070  -11.6200  -34.2490 C.2       1 10K301      0.0000 
      8 N3          0.6230   -3.6610  -28.8760 N.2       1 10K301      0.0000 
      9 C4          4.7990  -11.7520  -33.0370 C.2       1 10K301      0.0000 
     10 C5          4.7090  -10.7600  -31.9790 C.ar      1 10K301      0.0000 
     11 C6          4.4440  -11.1640  -30.6450 C.ar      1 10K301      0.0000 
     12 C7          4.4030  -10.2360  -29.5980 C.ar      1 10K301      0.0000 
     13 C8          4.6450   -8.8710  -29.8820 C.ar      1 10K301      0.0000 
     14 C9          4.8870   -8.4510  -31.1910 C.ar      1 10K301      0.0000 
     15 C10         4.9200   -9.3720  -32.2510 C.ar      1 10K301      0.0000 
     16 C11         4.6780   -7.9130  -28.7610 C.3       1 10K301      0.0000 
     17 C12         3.2550   -7.4050  -28.4750 C.2       1 10K301      0.0000 
     18 C13         1.8370   -5.4410  -28.9020 C.2       1 10K301      0.0000 
     19 C14        -0.0980   -4.5890  -28.1380 C.2       1 10K301      0.0000 
     20 C15         0.6610   -5.7590  -28.1310 C.2       1 10K301      0.0000 
     21 C16        -1.3790   -4.2100  -27.5410 C.3       1 10K301      0.0000 
     22 C17        -1.7800   -4.7020  -26.1610 C.3       1 10K301      0.0000 
     23 C18        -2.4690   -5.2570  -27.3770 C.3       1 10K301      0.0000 
     24 H           4.3563  -14.6759  -34.6392 H         1 10K301      0.0000 
     25 H           3.7538   -5.7665  -29.6861 H         1 10K301      0.0000 
     26 H           5.6756  -12.8690  -35.9411 H         1 10K301      0.0000 
     27 H           2.4298   -3.7113  -29.8723 H         1 10K301      0.0000 
     28 H           5.8734  -10.8346  -34.5767 H         1 10K301      0.0000 
     29 H           4.2793  -12.1638  -30.4513 H         1 10K301      0.0000 
     30 H           4.2033  -10.5306  -28.6470 H         1 10K301      0.0000 
     31 H           5.0444   -7.4502  -31.3868 H         1 10K301      0.0000 
     32 H           5.0908   -9.0672  -33.2034 H         1 10K301      0.0000 
     33 H           5.3045   -7.0562  -29.0025 H         1 10K301      0.0000 
     34 H           5.0595   -8.3868  -27.8582 H         1 10K301      0.0000 
     35 H           0.4786   -6.5637  -27.7343 H         1 10K301      0.0000 
     36 H          -1.8732   -3.3582  -27.6570 H         1 10K301      0.0000 
     37 H          -2.3439   -4.0451  -25.7722 H         1 10K301      0.0000 
     38 H          -1.1266   -5.3286  -25.8761 H         1 10K301      0.0000 
     39 H          -2.0883   -6.1031  -27.5755 H         1 10K301      0.0000 
     40 H          -3.3056   -4.8196  -27.4716 H         1 10K301      0.0000 
@<TRIPOS>BOND
     1   17    1 2    
     2    3    2 1    
     3    9    2 1    
     4    5    3 2    
     5   24    3 1    
     6   17    4 am   
     7   18    4 1    
     8   25    4 1    
     9    7    5 1    
    10   26    5 1    
    11    8    6 1    
    12   18    6 1    
    13   27    6 1    
    14    9    7 2    
    15   28    7 1    
    16   19    8 2    
    17   10    9 1    
    18   11   10 ar   
    19   15   10 ar   
    20   12   11 ar   
    21   29   11 1    
    22   13   12 ar   
    23   30   12 1    
    24   14   13 ar   
    25   16   13 1    
    26   15   14 ar   
    27   31   14 1    
    28   32   15 1    
    29   17   16 1    
    30   33   16 1    
    31   34   16 1    
    32   20   18 2    
    33   20   19 1    
    34   21   19 1    
    35   35   20 1    
    36   22   21 1    
    37   23   21 1    
    38   36   21 1    
    39   23   22 1    
    40   37   22 1    
    41   38   22 1    
    42   39   23 1    
    43   40   23 1    
@<TRIPOS>SUBSTRUCTURE
     1 10K301      1 GROUP   
@<TRIPOS>SET

