#    Name: 3pm1_ET_1_INTS_M
#    Modification time : Tue Mar 25 08:10:58 2014

@<TRIPOS>MOLECULE
3pm1_ET_1_INTS_M
   38     0     6     0     0
SMALL
NO_CHARGES


@<TRIPOS>ATOM
      1 CA         36.1810  -13.5485    8.4840 C.3       2 GLC5        0.0000 
      2 CA         35.4180  -11.4640    8.3100 C.3       6 GLL5        0.0000 
      3 CA         36.9440  -15.6330    8.6580 C.3       4 GLP5        0.0000 
      4 CA         31.1800  -11.1870    9.4200 C.3       2 GLC5        0.0000 
      5 CA         33.2440  -10.7430    9.0230 C.3       6 GLL5        0.0000 
      6 CA         29.1160  -11.6310    9.8170 C.3       4 GLP5        0.0000 
      7 CA         41.1390  -11.0120    6.4215 C.3       2 GLC5        0.0000 
      8 CA         39.1420  -11.9760    6.2640 C.3       6 GLL5        0.0000 
      9 CA         43.1360  -10.0480    6.5790 C.3       4 GLP5        0.0000 
     10 CA         40.8830  -14.9430    7.0870 C.3       2 GLC5        0.0000 
     11 CA         39.7110  -13.0430    6.9550 C.3       6 GLL5        0.0000 
     12 CA         42.0550  -16.8430    7.2190 C.3       4 GLP5        0.0000 
     13 CA         40.5600  -14.0055   10.0905 C.3       2 GLC5        0.0000 
     14 CA         39.5080  -13.1750    8.3260 C.3       6 GLL5        0.0000 
     15 CA         41.6120  -14.8360   11.8550 C.3       4 GLP5        0.0000 
     16 CA         39.0215   -9.6875   11.7960 C.3       2 GLC5        0.0000 
     17 CA         39.4860   -9.0880    9.7310 C.3       6 GLL5        0.0000 
     18 CA         38.5570  -10.2870   13.8610 C.3       4 GLP5        0.0000 
     19 CA         42.0200   -8.5540    8.9865 C.3       2 GLC5        0.0000 
     20 CA         39.9510   -8.0350    8.7170 C.3       6 GLL5        0.0000 
     21 CA         44.0890   -9.0730    9.2560 C.3       4 GLP5        0.0000 
     22 O          32.1820  -13.2555    6.7085 O.2       1 ALC1        0.0000 
     23 O          33.5040  -12.6260    7.6090 O.2       5 ALL1        0.0000 
     24 O          30.8600  -13.8850    5.8080 O.2       3 ALP1        0.0000 
     25 CA         34.4007   -5.2680   11.2910 C.3       2 GLC5        0.0000 
     26 CA         35.0340   -7.5820   11.2230 C.3       6 GLL5        0.0000 
     27 CA         33.4640   -3.4700   11.0030 C.3       4 GLP5        0.0000 
     28 CA         37.9748   -5.2833   10.5120 C.3       2 GLC5        0.0000 
     29 CA         37.7980   -7.3050   11.1940 C.3       6 GLL5        0.0000 
     30 CA         38.5390   -3.7080    9.4650 C.3       4 GLP5        0.0000 
     31 CA         33.9907  -10.8707   11.2892 C.3       2 GLC5        0.0000 
     32 CA         34.4460  -11.5170   13.1940 C.3       4 GLP5        0.0000 
     33 CA         33.2901   -9.5805    7.4006 C.3       2 GLC5        0.0000 
     34 CA         33.8270   -9.7060    9.7460 C.3       6 GLL5        0.0000 
     35 CA         32.8450   -8.7160    5.5970 C.3       4 GLP5        0.0000 
     36 CA         34.8821  -10.1506   11.7504 C.3       2 GLC5        0.0000 
     37 CA         35.2150   -9.5340    9.7590 C.3       6 GLL5        0.0000 
     38 CA         38.0581  -14.1535    8.4896 C.3       2 GLC5        0.0000 
@<TRIPOS>BOND
@<TRIPOS>SUBSTRUCTURE
     1 ALC1       22 GROUP        1 X    ALC  0     ROOT ALC X 1
     2 GLC5        1 GROUP        1 X    GLC  0     **** GLC X 6
     3 ALP1       24 GROUP        1 Y    ALP  0     ROOT ALP Y 8
     4 GLP5        3 GROUP        1 Y    GLP  0     **** GLP Y 13
     5 ALL1       23 GROUP        1 Z    ALL  0     ROOT ALL Z 15
     6 GLL5        2 GROUP        1 Z    GLL  0     **** GLL Z 20
@<TRIPOS>SET

