#    Name: 3pm1_ET_1_ligand
#    Modification time : Tue Mar 25 08:10:58 2014

@<TRIPOS>MOLECULE
3pm1_ET_1_ligand
   44    47     1     0     0
SMALL
NO_CHARGES


@<TRIPOS>ATOM
      1 C1         35.0340   -7.5820   11.2230 C.ar      1 ET25        0.0000 
      2 C2         35.6410   -6.5500   11.9350 C.ar      1 ET25        0.0000 
      3 C3         37.0230   -6.4120   11.9240 C.ar      1 ET25        0.0000 
      4 C4         37.7980   -7.3050   11.1940 C.ar      1 ET25        0.0000 
      5 N5         38.0050   -9.2330    9.7390 N.ar      1 ET25        0.0000 
      6 C6         37.3990  -10.2680    9.0190 C.ar      1 ET25        0.0000 
      7 C7         35.4180  -11.4640    8.3100 C.ar      1 ET25        0.0000 
      8 C8         34.0430  -11.6250    8.3020 C.ar      1 ET25        0.0000 
      9 C9         33.2440  -10.7430    9.0230 C.ar      1 ET25        0.0000 
     10 C10        33.8270   -9.7060    9.7460 C.ar      1 ET25        0.0000 
     11 C11        36.0120  -10.4230    9.0300 C.ar      1 ET25        0.0000 
     12 C12        35.2150   -9.5340    9.7590 C.ar      1 ET25        0.0000 
     13 C13        35.8090   -8.4870   10.4860 C.ar      1 ET25        0.0000 
     14 C14        37.2010   -8.3390   10.4740 C.ar      1 ET25        0.0000 
     15 C15        38.1760  -11.1690    8.3100 C.ar      1 ET25        0.0000 
     16 C16        38.3680  -11.0330    6.9380 C.ar      1 ET25        0.0000 
     17 C17        39.1420  -11.9760    6.2640 C.ar      1 ET25        0.0000 
     18 C18        39.7110  -13.0430    6.9550 C.ar      1 ET25        0.0000 
     19 C19        39.5080  -13.1750    8.3260 C.ar      1 ET25        0.0000 
     20 C20        38.7350  -12.2390    9.0020 C.ar      1 ET25        0.0000 
     21 C21        39.4860   -9.0880    9.7310 C.3       1 ET25        0.0000 
     22 C22        39.9510   -8.0350    8.7170 C.3       1 ET25        0.0000 
     23 N23        37.6090   -5.4290   12.6010 N.pl3     1 ET25        0.0000 
     24 N24        33.5040  -12.6260    7.6090 N.pl3     1 ET25        0.0000 
     25 H          34.0100   -7.6833   11.2362 H         1 ET25        0.0000 
     26 H          35.0618   -5.8883   12.4706 H         1 ET25        0.0000 
     27 H          38.8250   -7.2037   11.1834 H         1 ET25        0.0000 
     28 H          36.0175  -12.1176    7.7796 H         1 ET25        0.0000 
     29 H          32.2221  -10.8570    9.0220 H         1 ET25        0.0000 
     30 H          33.2302   -9.0546   10.2799 H         1 ET25        0.0000 
     31 H          37.9473  -10.2523    6.4309 H         1 ET25        0.0000 
     32 H          39.2937  -11.8829    5.2497 H         1 ET25        0.0000 
     33 H          40.2820  -13.7344    6.4515 H         1 ET25        0.0000 
     34 H          39.9284  -13.9614    8.8345 H         1 ET25        0.0000 
     35 H          38.5756  -12.3362   10.0130 H         1 ET25        0.0000 
     36 H          39.9589  -10.0447    9.4773 H         1 ET25        0.0000 
     37 H          39.8430   -8.7919   10.7251 H         1 ET25        0.0000 
     38 H          36.9974   -4.7972   13.0772 H         1 ET25        0.0000 
     39 H          38.6084   -5.4103   12.5729 H         1 ET25        0.0000 
     40 H          34.1449  -13.2188    7.1213 H         1 ET25        0.0000 
     41 H          32.5068  -12.6948    7.6386 H         1 ET25        0.0000 
     42 H          40.9462   -7.9367    8.7135 H         1 ET25        0.0000 
     43 H          39.6765   -8.2705    7.7847 H         1 ET25        0.0000 
     44 H          39.5681   -7.1330    8.9163 H         1 ET25        0.0000 
@<TRIPOS>BOND
     1    2    1 ar   
     2   13    1 ar   
     3   25    1 1    
     4    3    2 ar   
     5   26    2 1    
     6    4    3 ar   
     7   23    3 1    
     8   14    4 ar   
     9   27    4 1    
    10    6    5 ar   
    11   14    5 ar   
    12   21    5 1    
    13   11    6 ar   
    14   15    6 1    
    15    8    7 ar   
    16   11    7 ar   
    17   28    7 1    
    18    9    8 ar   
    19   24    8 1    
    20   10    9 ar   
    21   29    9 1    
    22   12   10 ar   
    23   30   10 1    
    24   12   11 ar   
    25   13   12 ar   
    26   14   13 ar   
    27   16   15 ar   
    28   20   15 ar   
    29   17   16 ar   
    30   31   16 1    
    31   18   17 ar   
    32   32   17 1    
    33   19   18 ar   
    34   33   18 1    
    35   20   19 ar   
    36   34   19 1    
    37   35   20 1    
    38   22   21 1    
    39   36   21 1    
    40   37   21 1    
    41   42   22 1    
    42   43   22 1    
    43   44   22 1    
    44   38   23 1    
    45   39   23 1    
    46   40   24 1    
    47   41   24 1    
@<TRIPOS>SUBSTRUCTURE
     1 ET25        1 GROUP   
@<TRIPOS>SET

