#    Name: 9hvp_0E9_1_INTS_M
#    Modification time : Tue Mar 25 14:01:01 2014

@<TRIPOS>MOLECULE
9hvp_0E9_1_INTS_M
  112     0     9     0     0
SMALL
NO_CHARGES


@<TRIPOS>ATOM
      1 N         -13.0265   16.9510   34.3350 N.am      2 SEC2        0.0000 
      2 N         -12.6000   15.6490   33.6620 N.am      8 SEL2        0.0000 
      3 N         -13.4530   18.2530   35.0080 N.am      5 SEP2        0.0000 
      4 CA        -10.2950   10.1665   36.5390 C.3       3 GLC5        0.0000 
      5 CA        -12.2150    9.6550   36.5140 C.3       9 GLL5        0.0000 
      6 CA         -8.3750   10.6780   36.5640 C.3       6 GLP5        0.0000 
      7 O         -10.5505   13.2480   32.5840 O.2       1 ALC1        0.0000 
      8 O         -10.9760   14.5410   32.5060 O.2       7 ALL1        0.0000 
      9 O         -10.1250   11.9550   32.6620 O.2       4 ALP1        0.0000 
     10 CA        -11.2305   17.2875   32.4735 C.3       3 GLC5        0.0000 
     11 CA        -10.2250   15.6900   32.0200 C.3       9 GLL5        0.0000 
     12 CA        -12.2360   18.8850   32.9270 C.3       6 GLP5        0.0000 
     13 CA         -6.6230   17.1565   33.5195 C.3       3 GLC5        0.0000 
     14 CA         -8.0760   17.0320   32.1460 C.3       9 GLL5        0.0000 
     15 CA         -5.1700   17.2810   34.8930 C.3       6 GLP5        0.0000 
     16 CA         -6.7000   18.0720   31.8050 C.3       3 GLC5        0.0000 
     17 CA         -5.3240   19.1120   31.4640 C.3       6 GLP5        0.0000 
     18 CA         -6.9175   16.4635   34.4845 C.3       3 GLC5        0.0000 
     19 CA         -8.6650   15.6460   34.0760 C.3       9 GLL5        0.0000 
     20 CA         -7.4115   14.4505   34.8335 C.3       3 GLC5        0.0000 
     21 CA         -6.1580   13.2550   35.5910 C.3       6 GLP5        0.0000 
     22 CA        -13.3370   17.8745   28.8405 C.3       3 GLC5        0.0000 
     23 CA        -12.3970   16.2450   27.9550 C.3       9 GLL5        0.0000 
     24 CA        -14.2770   19.5040   29.7260 C.3       6 GLP5        0.0000 
     25 O         -12.4215   17.0175   30.4775 O.2       1 ALC1        0.0000 
     26 O         -10.9200   16.4470   29.8780 O.2       7 ALL1        0.0000 
     27 O         -13.9230   17.5880   31.0770 O.2       4 ALP1        0.0000 
     28 O         -11.6715   19.5130   27.7140 O.2       1 ALC1        0.0000 
     29 O         -10.5550   18.7350   28.5720 O.2       7 ALL1        0.0000 
     30 O         -12.7880   20.2910   26.8560 O.2       4 ALP1        0.0000 
     31 CA         -8.9240   20.3400   27.1600 C.3       3 GLC5        0.0000 
     32 CA         -7.9110   18.6430   28.0820 C.3       9 GLL5        0.0000 
     33 CA         -9.9370   22.0370   26.2380 C.3       6 GLP5        0.0000 
     34 CA         -8.1520   20.8255   26.2880 C.3       3 GLC5        0.0000 
     35 CA         -6.3670   19.6140   26.3380 C.3       9 GLL5        0.0000 
     36 CA         -2.4310   17.0960   27.3250 C.3       3 GLC5        0.0000 
     37 CA         -4.4380   17.6730   26.8960 C.3       9 GLL5        0.0000 
     38 CA         -0.4240   16.5190   27.7540 C.3       6 GLP5        0.0000 
     39 CA         -4.9105   15.6900   26.3175 C.3       3 GLC5        0.0000 
     40 CA         -5.3830   13.7070   25.7390 C.3       6 GLP5        0.0000 
     41 O          -5.8880   15.7595   23.2660 O.2       1 ALC1        0.0000 
     42 O          -7.0430   16.7750   23.4060 O.2       7 ALL1        0.0000 
     43 O          -4.7330   14.7440   23.1260 O.2       4 ALP1        0.0000 
     44 CA        -10.7170   13.4910   23.9800 C.3       3 GLC5        0.0000 
     45 CA        -10.5990   15.5070   23.4070 C.3       9 GLL5        0.0000 
     46 CA        -10.8350   11.4750   24.5530 C.3       6 GLP5        0.0000 
     47 CA        -11.7555   14.3615   22.1995 C.3       3 GLC5        0.0000 
     48 CA        -12.9120   13.2160   20.9920 C.3       6 GLP5        0.0000 
     49 CA        -12.2095   14.9745   24.1070 C.3       3 GLC5        0.0000 
     50 CA        -13.8200   14.4420   24.8070 C.3       6 GLP5        0.0000 
     51 CA         -8.9070   13.6575   20.6985 C.3       3 GLC5        0.0000 
     52 CA         -8.7550   15.1110   21.6910 C.3       9 GLL5        0.0000 
     53 CA         -9.0590   12.2040   19.7060 C.3       6 GLP5        0.0000 
     54 N          -8.2390   19.5620   21.4475 N.am      2 SEC2        0.0000 
     55 N          -7.5630   18.4100   21.8750 N.am      8 SEL2        0.0000 
     56 N          -8.9150   20.7140   21.0200 N.am      5 SEP2        0.0000 
     57 CA         -6.0055   19.8670   20.3190 C.3       3 GLC5        0.0000 
     58 CA         -4.6830   18.4410   21.3980 C.3       9 GLL5        0.0000 
     59 CA         -7.3280   21.2930   19.2400 C.3       6 GLP5        0.0000 
     60 CA        -10.9327    9.9205   34.5943 C.3       3 GLC5        0.0000 
     61 CA        -12.5480   10.6110   35.5570 C.3       9 GLL5        0.0000 
     62 CA         -9.4840    9.7080   33.1530 C.3       6 GLP5        0.0000 
     63 CA        -10.8562   11.7850   37.5625 C.3       3 GLC5        0.0000 
     64 CA        -12.1380   10.0200   37.8370 C.3       9 GLL5        0.0000 
     65 CA         -9.4460   12.8980   37.1040 C.3       6 GLP5        0.0000 
     66 CA        -11.1083   12.4109   36.7384 C.3       3 GLC5        0.0000 
     67 CA        -12.7360   12.3010   37.2760 C.3       9 GLL5        0.0000 
     68 CA         -9.6522   17.9580   32.8010 C.3       3 GLC5        0.0000 
     69 CA         -8.7490   15.7380   32.5720 C.3       9 GLL5        0.0000 
     70 CA        -10.8920   19.5310   33.2430 C.3       6 GLP5        0.0000 
     71 CA         -7.2063   14.7855   31.7455 C.3       3 GLC5        0.0000 
     72 CA         -6.0000   13.1860   31.1320 C.3       6 GLP5        0.0000 
     73 CA        -13.1917   14.9887   26.5010 C.3       3 GLC5        0.0000 
     74 CA         -7.0505   20.5607   28.0083 C.3       3 GLC5        0.0000 
     75 CA         -6.8720   22.4310   28.2780 C.3       6 GLP5        0.0000 
     76 CA        -14.3968   13.6955   27.5682 C.3       3 GLC5        0.0000 
     77 CA        -12.7300   14.8260   28.4350 C.3       9 GLL5        0.0000 
     78 CA        -16.3560   13.1080   27.0220 C.3       6 GLP5        0.0000 
     79 CA        -11.5275   12.2933   26.3075 C.3       3 GLC5        0.0000 
     80 CA        -12.2950   12.4830   28.3300 C.3       9 GLL5        0.0000 
     81 CA        -13.0200   13.7767   26.4345 C.3       3 GLC5        0.0000 
     82 CA        -12.1450   13.7400   27.7940 C.3       9 GLL5        0.0000 
     83 CA        -13.1555   10.7652   28.3720 C.3       3 GLC5        0.0000 
     84 CA        -13.6470    9.1390   27.8350 C.3       6 GLP5        0.0000 
     85 CA        -14.5100   12.7498   27.9655 C.3       3 GLC5        0.0000 
     86 CA        -13.0330   12.3000   29.4880 C.3       9 GLL5        0.0000 
     87 CA        -10.7452   12.2109   29.3830 C.3       3 GLC5        0.0000 
     88 CA         -8.8640   11.7160   29.9910 C.3       6 GLP5        0.0000 
     89 CA        -14.9553   13.5600   28.4362 C.3       3 GLC5        0.0000 
     90 CA        -13.6280   13.3790   30.1080 C.3       9 GLL5        0.0000 
     91 CA        -14.7611   15.9081   28.4445 C.3       3 GLC5        0.0000 
     92 CA        -13.4810   14.6450   29.5930 C.3       9 GLL5        0.0000 
     93 CA        -16.5000   16.7260   27.9950 C.3       6 GLP5        0.0000 
     94 CA         -4.7375   19.8070   27.9352 C.3       3 GLC5        0.0000 
     95 CA         -6.5470   18.7380   27.3950 C.3       9 GLL5        0.0000 
     96 CA         -3.0180   20.4380   29.0040 C.3       6 GLP5        0.0000 
     97 CA         -6.3380   20.9992   27.1107 C.3       3 GLC5        0.0000 
     98 CA         -3.8910   19.7360   27.3472 C.3       3 GLC5        0.0000 
     99 CA         -5.2410   19.5210   25.5490 C.3       9 GLL5        0.0000 
    100 CA         -4.0107   19.0815   28.1460 C.3       3 GLC5        0.0000 
    101 CA         -4.7803   16.2850   28.7425 C.3       3 GLC5        0.0000 
    102 CA         -4.5570   14.8450   30.1970 C.3       6 GLP5        0.0000 
    103 CA         -5.8615   18.6729   29.5866 C.3       3 GLC5        0.0000 
    104 CA         -5.5690   17.7770   27.6800 C.3       9 GLL5        0.0000 
    105 CA         -8.6115   13.4727   23.3755 C.3       3 GLC5        0.0000 
    106 CA         -9.1210   15.3060   23.1670 C.3       9 GLL5        0.0000 
    107 CA         -8.2850   11.7370   24.3220 C.3       6 GLP5        0.0000 
    108 CA        -10.3933   17.3027   23.0640 C.3       3 GLC5        0.0000 
    109 CA        -11.1020   18.8950   22.6820 C.3       6 GLP5        0.0000 
    110 CA         -3.1975   14.3837   21.9627 C.3       3 GLC5        0.0000 
    111 CA         -3.1380   16.4680   21.3740 C.3       9 GLL5        0.0000 
    112 CA         -3.8740   12.5850   22.4490 C.3       6 GLP5        0.0000 
@<TRIPOS>BOND
@<TRIPOS>SUBSTRUCTURE
     1 ALC1        7 GROUP        1 X    ALC  0     ROOT ALC X 1
     2 SEC2        1 GROUP        1 X    SEC  0     **** SEC X 2
     3 GLC5        4 GROUP        1 X    GLC  0     **** GLC X 6
     4 ALP1        9 GROUP        1 Y    ALP  0     ROOT ALP Y 8
     5 SEP2        3 GROUP        1 Y    SEP  0     **** SEP Y 9
     6 GLP5        6 GROUP        1 Y    GLP  0     **** GLP Y 13
     7 ALL1        8 GROUP        1 Z    ALL  0     ROOT ALL Z 15
     8 SEL2        2 GROUP        1 Z    SEL  0     **** SEL Z 16
     9 GLL5        5 GROUP        1 Z    GLL  0     **** GLL Z 20
@<TRIPOS>SET

