#    Name: 9hvp_0E9_1_ligand
#    Modification time : Tue Mar 25 14:01:01 2014

@<TRIPOS>MOLECULE
9hvp_0E9_1_ligand
  106   109     1     0     0
SMALL
NO_CHARGES


@<TRIPOS>ATOM
      1 C1        -12.0830   14.5940   33.2610 C.2       1 0E9100      0.0000 
      2 O1        -12.6000   15.6490   33.6620 O.2       1 0E9100      0.0000 
      3 O2        -12.6010   13.3120   33.6680 O.3       1 0E9100      0.0000 
      4 C2        -13.2990   13.0090   34.8480 C.3       1 0E9100      0.0000 
      5 C3        -12.8260   11.9560   35.9160 C.ar      1 0E9100      0.0000 
      6 C4        -12.5480   10.6110   35.5570 C.ar      1 0E9100      0.0000 
      7 C5        -12.2150    9.6550   36.5140 C.ar      1 0E9100      0.0000 
      8 C6        -12.1380   10.0200   37.8370 C.ar      1 0E9100      0.0000 
      9 C7        -12.3950   11.3240   38.2050 C.ar      1 0E9100      0.0000 
     10 C8        -12.7360   12.3010   37.2760 C.ar      1 0E9100      0.0000 
     11 N         -10.9760   14.5410   32.5060 N.am      1 0E9100      0.0000 
     12 CA        -10.2250   15.6900   32.0200 C.3       1 0E9100      0.0000 
     13 C         -10.1590   15.5510   30.5150 C.2       1 0E9100      0.0000 
     14 O          -9.4670   14.6840   29.9680 O.2       1 0E9100      0.0000 
     15 CB         -8.7490   15.7380   32.5720 C.3       1 0E9100      0.0000 
     16 CG1        -8.0760   17.0320   32.1460 C.3       1 0E9100      0.0000 
     17 CG2        -8.6650   15.6460   34.0760 C.3       1 0E9100      0.0000 
     18 C11       -12.3970   16.2450   27.9550 C.3       1 0E9100      0.0000 
     19 C21       -10.9880   16.5300   28.4010 C.3       1 0E9100      0.0000 
     20 N2        -10.9200   16.4470   29.8780 N.am      1 0E9100      0.0000 
     21 C31       -10.3550   17.6980   27.6880 C.3       1 0E9100      0.0000 
     22 O3        -10.5550   18.7350   28.5720 O.3       1 0E9100      0.0000 
     23 C41        -8.8160   17.5400   27.4670 C.3       1 0E9100      0.0000 
     24 N4         -8.6210   17.4690   26.0050 N.am      1 0E9100      0.0000 
     25 C51        -7.9110   18.6430   28.0820 C.3       1 0E9100      0.0000 
     26 C1A       -12.7300   14.8260   28.4350 C.ar      1 0E9100      0.0000 
     27 C2A       -12.1450   13.7400   27.7940 C.ar      1 0E9100      0.0000 
     28 C3A       -12.2950   12.4830   28.3300 C.ar      1 0E9100      0.0000 
     29 C4A       -13.0330   12.3000   29.4880 C.ar      1 0E9100      0.0000 
     30 C5A       -13.6280   13.3790   30.1080 C.ar      1 0E9100      0.0000 
     31 C6A       -13.4810   14.6450   29.5930 C.ar      1 0E9100      0.0000 
     32 C1B        -6.5470   18.7380   27.3950 C.ar      1 0E9100      0.0000 
     33 C2B        -6.3670   19.6140   26.3380 C.ar      1 0E9100      0.0000 
     34 C3B        -5.2410   19.5210   25.5490 C.ar      1 0E9100      0.0000 
     35 C4B        -4.2870   18.5470   25.8320 C.ar      1 0E9100      0.0000 
     36 C5B        -4.4380   17.6730   26.8960 C.ar      1 0E9100      0.0000 
     37 C6B        -5.5690   17.7770   27.6800 C.ar      1 0E9100      0.0000 
     38 N1         -7.0430   16.7750   23.4060 N.am      1 0E9100      0.0000 
     39 CA1        -8.4190   16.5220   23.8030 C.3       1 0E9100      0.0000 
     40 C9         -8.3660   16.3310   25.3210 C.2       1 0E9100      0.0000 
     41 O4         -7.9880   15.2560   25.8270 O.2       1 0E9100      0.0000 
     42 CB1        -9.1210   15.3060   23.1670 C.3       1 0E9100      0.0000 
     43 CG11      -10.5990   15.5070   23.4070 C.3       1 0E9100      0.0000 
     44 CG21       -8.7550   15.1110   21.6910 C.3       1 0E9100      0.0000 
     45 C12        -6.7510   17.8020   22.6040 C.2       1 0E9100      0.0000 
     46 O11        -7.5630   18.4100   21.8750 O.2       1 0E9100      0.0000 
     47 O21        -5.4000   18.1330   22.5140 O.3       1 0E9100      0.0000 
     48 C22        -4.6830   18.4410   21.3980 C.3       1 0E9100      0.0000 
     49 C32        -3.2830   17.8450   21.4820 C.ar      1 0E9100      0.0000 
     50 C42        -2.2080   18.6600   21.7690 C.ar      1 0E9100      0.0000 
     51 C52        -0.9790   18.0670   21.9600 C.ar      1 0E9100      0.0000 
     52 C61        -0.8230   16.6920   21.8730 C.ar      1 0E9100      0.0000 
     53 C71        -1.9040   15.8970   21.5790 C.ar      1 0E9100      0.0000 
     54 C81        -3.1380   16.4680   21.3740 C.ar      1 0E9100      0.0000 
     55 H         -14.3945   12.7048   34.6090 H         1 0E9100      0.0000 
     56 H         -13.5002   13.9735   35.4637 H         1 0E9100      0.0000 
     57 H         -12.5968   10.3459   34.5586 H         1 0E9100      0.0000 
     58 H         -12.0300    8.6870   36.2248 H         1 0E9100      0.0000 
     59 H         -11.8887    9.3217   38.5544 H         1 0E9100      0.0000 
     60 H         -12.3328   11.5915   39.2134 H         1 0E9100      0.0000 
     61 H         -12.9204   13.2606   37.5715 H         1 0E9100      0.0000 
     62 H         -10.5755   13.5967   32.2124 H         1 0E9100      0.0000 
     63 H         -10.7037   16.6085   32.2574 H         1 0E9100      0.0000 
     64 H          -8.2025   14.9145   32.1308 H         1 0E9100      0.0000 
     65 H         -12.4625   16.2781   26.8844 H         1 0E9100      0.0000 
     66 H         -13.0787   16.9384   28.4090 H         1 0E9100      0.0000 
     67 H         -10.4035   15.5886   28.0230 H         1 0E9100      0.0000 
     68 H         -11.5103   17.1399   30.3866 H         1 0E9100      0.0000 
     69 H         -10.8304   17.8547   26.7613 H         1 0E9100      0.0000 
     70 H          -8.5278   16.5749   27.8932 H         1 0E9100      0.0000 
     71 H          -8.6952   18.3944   25.5057 H         1 0E9100      0.0000 
     72 H          -7.7689   18.4231   29.1439 H         1 0E9100      0.0000 
     73 H          -8.4282   19.6030   27.9980 H         1 0E9100      0.0000 
     74 H         -11.6088   13.8823   26.9311 H         1 0E9100      0.0000 
     75 H         -11.8567   11.6671   27.8701 H         1 0E9100      0.0000 
     76 H         -13.1363   11.3533   29.8856 H         1 0E9100      0.0000 
     77 H         -14.1883   13.2323   30.9664 H         1 0E9100      0.0000 
     78 H         -13.9168   15.4526   30.0512 H         1 0E9100      0.0000 
     79 H          -7.0779   20.3358   26.1433 H         1 0E9100      0.0000 
     80 H          -5.1009   20.1602   24.7591 H         1 0E9100      0.0000 
     81 H          -3.4431   18.4766   25.2291 H         1 0E9100      0.0000 
     82 H          -3.7266   16.9679   27.0940 H         1 0E9100      0.0000 
     83 H          -5.7035   17.1453   28.4853 H         1 0E9100      0.0000 
     84 H          -6.3288   16.1293   23.7729 H         1 0E9100      0.0000 
     85 H          -9.0315   17.4070   23.6343 H         1 0E9100      0.0000 
     86 H          -8.8049   14.4272   23.7342 H         1 0E9100      0.0000 
     87 H          -4.5558   19.5319   21.2476 H         1 0E9100      0.0000 
     88 H          -5.1386   18.0527   20.4650 H         1 0E9100      0.0000 
     89 H          -2.3199   19.6701   21.8376 H         1 0E9100      0.0000 
     90 H          -0.1509   18.6583   22.1735 H         1 0E9100      0.0000 
     91 H           0.1058   16.2722   22.0298 H         1 0E9100      0.0000 
     92 H          -1.7908   14.8728   21.5119 H         1 0E9100      0.0000 
     93 H          -3.9522   15.8844   21.1419 H         1 0E9100      0.0000 
     94 H          -7.1356   17.0894   32.4813 H         1 0E9100      0.0000 
     95 H          -8.0382   17.1208   31.1507 H         1 0E9100      0.0000 
     96 H          -8.5607   17.8346   32.4937 H         1 0E9100      0.0000 
     97 H          -7.7189   15.6813   34.3980 H         1 0E9100      0.0000 
     98 H          -9.1545   16.3954   34.5218 H         1 0E9100      0.0000 
     99 H          -9.0595   14.7934   34.4185 H         1 0E9100      0.0000 
    100 H         -10.8140   15.5524   24.3825 H         1 0E9100      0.0000 
    101 H         -10.9303   16.3554   22.9941 H         1 0E9100      0.0000 
    102 H         -11.1426   14.7615   23.0214 H         1 0E9100      0.0000 
    103 H          -7.7734   14.9648   21.5679 H         1 0E9100      0.0000 
    104 H          -9.2211   14.3203   21.2941 H         1 0E9100      0.0000 
    105 H          -9.0045   15.9062   21.1383 H         1 0E9100      0.0000 
    106 H         -11.2499   19.3113   28.1418 H         1 0E9100      0.0000 
@<TRIPOS>BOND
     1    2    1 2    
     2    3    1 1    
     3   11    1 am   
     4    4    3 1    
     5    5    4 1    
     6   55    4 1    
     7   56    4 1    
     8    6    5 ar   
     9   10    5 ar   
    10    7    6 ar   
    11   57    6 1    
    12    8    7 ar   
    13   58    7 1    
    14    9    8 ar   
    15   59    8 1    
    16   10    9 ar   
    17   60    9 1    
    18   61   10 1    
    19   12   11 1    
    20   62   11 1    
    21   13   12 1    
    22   15   12 1    
    23   63   12 1    
    24   14   13 2    
    25   20   13 am   
    26   16   15 1    
    27   17   15 1    
    28   64   15 1    
    29   94   16 1    
    30   95   16 1    
    31   96   16 1    
    32   97   17 1    
    33   98   17 1    
    34   99   17 1    
    35   19   18 1    
    36   26   18 1    
    37   65   18 1    
    38   66   18 1    
    39   20   19 1    
    40   21   19 1    
    41   67   19 1    
    42   68   20 1    
    43   22   21 1    
    44   23   21 1    
    45   69   21 1    
    46  106   22 1    
    47   24   23 1    
    48   25   23 1    
    49   70   23 1    
    50   40   24 am   
    51   71   24 1    
    52   32   25 1    
    53   72   25 1    
    54   73   25 1    
    55   27   26 ar   
    56   31   26 ar   
    57   28   27 ar   
    58   74   27 1    
    59   29   28 ar   
    60   75   28 1    
    61   30   29 ar   
    62   76   29 1    
    63   31   30 ar   
    64   77   30 1    
    65   78   31 1    
    66   33   32 ar   
    67   37   32 ar   
    68   34   33 ar   
    69   79   33 1    
    70   35   34 ar   
    71   80   34 1    
    72   36   35 ar   
    73   81   35 1    
    74   37   36 ar   
    75   82   36 1    
    76   83   37 1    
    77   39   38 1    
    78   45   38 am   
    79   84   38 1    
    80   40   39 1    
    81   42   39 1    
    82   85   39 1    
    83   41   40 2    
    84   43   42 1    
    85   44   42 1    
    86   86   42 1    
    87  100   43 1    
    88  101   43 1    
    89  102   43 1    
    90  103   44 1    
    91  104   44 1    
    92  105   44 1    
    93   46   45 2    
    94   47   45 1    
    95   48   47 1    
    96   49   48 1    
    97   87   48 1    
    98   88   48 1    
    99   50   49 ar   
   100   54   49 ar   
   101   51   50 ar   
   102   89   50 1    
   103   52   51 ar   
   104   90   51 1    
   105   53   52 ar   
   106   91   52 1    
   107   54   53 ar   
   108   92   53 1    
   109   93   54 1    
@<TRIPOS>SUBSTRUCTURE
     1 0E9100      1 GROUP   
@<TRIPOS>SET

