#    Name: 3E79_3_CAVITY_N1_6.mol2
#    Modification time : Mon Mar 10 12:29:37 2014

@<TRIPOS>MOLECULE
3E79_3_CAVITY_N1_6.mol2
  115     0     7     0     0
SMALL
NO_CHARGES


@<TRIPOS>ATOM
      1 CA         27.9796   30.9655   34.0575 C.3       6 GLY6        0.0000 
      2 O          28.4975   30.4472   32.7486 O.2       2 ALA2        0.0000 
      3 N          29.0155   29.9290   31.4397 N.2       2 ALA2        0.0000 
      4 N          29.5335   29.4107   30.1309 N.2       2 ALA2        0.0000 
      5 CA         27.2110   32.0298   33.3319 C.3       6 GLY6        0.0000 
      6 N          27.7290   31.5116   32.0230 N.2       2 ALA2        0.0000 
      7 N          28.2469   30.9933   30.7142 N.2       2 ALA2        0.0000 
      8 CA         28.7649   30.4751   29.4053 C.3       6 GLY6        0.0000 
      9 CA         25.9245   33.6124   33.9152 C.3       6 GLY6        0.0000 
     10 O          26.4424   33.0942   32.6063 O.2       2 ALA2        0.0000 
     11 N          26.9604   32.5759   31.2975 N.2       2 ALA2        0.0000 
     12 O          25.6739   34.1585   31.8808 O.2       2 ALA2        0.0000 
     13 CA         24.3874   35.7411   32.4641 C.3       6 GLY6        0.0000 
     14 CA         23.1008   37.3237   33.0473 C.3       6 GLY6        0.0000 
     15 N          23.6188   36.8055   31.7385 N.2       2 ALA2        0.0000 
     16 CZ         30.4455   30.3040   33.5762 C.ar      5 PHE5        0.0000 
     17 DU         30.9635   29.7858   32.2673 H         7 CUB7        0.0000 
     18 DU         31.4814   29.2676   30.9584 H         7 CUB7        0.0000 
     19 CZ         29.1590   31.8866   34.1595 C.ar      5 PHE5        0.0000 
     20 N          29.6769   31.3684   32.8506 N.2       2 ALA2        0.0000 
     21 N          30.1949   30.8502   31.5417 N.2       2 ALA2        0.0000 
     22 N          30.7129   30.3319   30.2329 N.2       2 ALA2        0.0000 
     23 CZ         28.3904   32.9510   33.4339 C.ar      5 PHE5        0.0000 
     24 N          28.9084   32.4328   32.1250 N.2       2 ALA2        0.0000 
     25 CZ         27.1039   34.5336   34.0172 C.ar      5 PHE5        0.0000 
     26 CA         27.6219   34.0154   32.7083 C.3       6 GLY6        0.0000 
     27 OG         26.3353   35.5980   33.2916 O.2       1 SER1        0.0000 
     28 CZ         25.0488   37.1806   33.8749 C.ar      5 PHE5        0.0000 
     29 CA         25.5668   36.6623   32.5661 C.3       6 GLY6        0.0000 
     30 NZ         32.3935   30.1609   34.4037 N.2       4 LYS4        0.0000 
     31 NZ         32.9114   29.6426   33.0949 N.2       4 LYS4        0.0000 
     32 DU         33.4294   29.1244   31.7860 H         7 CUB7        0.0000 
     33 CZ         31.6249   31.2252   33.6782 C.ar      5 PHE5        0.0000 
     34 DU         32.1429   30.7070   32.3693 H         7 CUB7        0.0000 
     35 DU         32.6609   30.1887   31.0604 H         7 CUB7        0.0000 
     36 CZ         30.3384   32.8078   34.2615 C.ar      5 PHE5        0.0000 
     37 OG         30.8564   32.2896   32.9526 O.2       1 SER1        0.0000 
     38 N          31.3743   31.7713   31.6437 N.2       2 ALA2        0.0000 
     39 N          31.8923   31.2531   30.3349 N.2       2 ALA2        0.0000 
     40 NZ         32.4103   30.7349   29.0260 N.2       4 LYS4        0.0000 
     41 OG         29.5698   33.8722   33.5359 O.2       1 SER1        0.0000 
     42 N          30.0878   33.3539   32.2270 N.2       2 ALA2        0.0000 
     43 CZ         28.2833   35.4548   34.1192 C.ar      5 PHE5        0.0000 
     44 CA         28.8013   34.9365   32.8103 C.3       6 GLY6        0.0000 
     45 OG         27.5148   36.5191   33.3936 O.2       1 SER1        0.0000 
     46 OD1        37.4325   26.3342   32.7559 O.3       3 ASP3        0.0000 
     47 OD1        37.9504   25.8160   31.4470 O.3       3 ASP3        0.0000 
     48 OD1        37.1819   26.8804   30.7214 O.3       3 ASP3        0.0000 
     49 NZ         34.8594   29.4994   33.9225 N.2       4 LYS4        0.0000 
     50 OD1        35.3774   28.9812   32.6136 O.3       3 ASP3        0.0000 
     51 DU         35.8954   28.4630   31.3047 H         7 CUB7        0.0000 
     52 NZ         33.5729   31.0820   34.5057 N.2       4 LYS4        0.0000 
     53 NZ         34.0909   30.5638   33.1969 N.2       4 LYS4        0.0000 
     54 DU         34.6088   30.0456   31.8880 H         7 CUB7        0.0000 
     55 DU         35.1268   29.5273   30.5791 H         7 CUB7        0.0000 
     56 CZ         32.8043   32.1464   33.7802 C.ar      5 PHE5        0.0000 
     57 DU         33.3223   31.6282   32.4713 H         7 CUB7        0.0000 
     58 DU         33.8403   31.1099   31.1624 H         7 CUB7        0.0000 
     59 NZ         34.3582   30.5917   29.8536 N.2       4 LYS4        0.0000 
     60 CZ         31.5178   33.7290   34.3635 C.ar      5 PHE5        0.0000 
     61 OG         32.0358   33.2108   33.0546 O.2       1 SER1        0.0000 
     62 OG         32.5537   32.6925   31.7457 O.2       1 SER1        0.0000 
     63 NZ         33.0717   32.1743   30.4369 N.2       4 LYS4        0.0000 
     64 CZ         30.2313   35.3116   34.9468 C.ar      5 PHE5        0.0000 
     65 N          32.3032   33.2386   29.7113 N.2       2 ALA2        0.0000 
     66 OG         28.9448   36.8942   35.5301 O.2       1 SER1        0.0000 
     67 OG         29.4627   36.3759   34.2212 O.2       1 SER1        0.0000 
     68 OD1        38.6119   27.2554   32.8579 O.3       3 ASP3        0.0000 
     69 OD1        37.3254   28.8380   33.4412 O.3       3 ASP3        0.0000 
     70 OD1        37.8433   28.3198   32.1323 O.3       3 ASP3        0.0000 
     71 OD1        36.0388   30.4206   34.0245 O.3       3 ASP3        0.0000 
     72 OD1        36.5568   29.9024   32.7156 O.3       3 ASP3        0.0000 
     73 CA         37.0748   29.3841   31.4067 C.3       6 GLY6        0.0000 
     74 OD1        37.5927   28.8659   30.0978 O.3       3 ASP3        0.0000 
     75 CA         34.7523   32.0032   34.6078 C.3       6 GLY6        0.0000 
     76 CZ         35.2703   31.4850   33.2989 C.ar      5 PHE5        0.0000 
     77 DU         35.7883   30.9667   31.9900 H         7 CUB7        0.0000 
     78 CA         36.3062   30.4485   30.6811 C.3       6 GLY6        0.0000 
     79 CZ         32.9478   34.1040   36.4999 C.ar      5 PHE5        0.0000 
     80 CZ         33.4658   33.5858   35.1911 C.ar      5 PHE5        0.0000 
     81 CZ         33.9838   33.0676   33.8822 C.ar      5 PHE5        0.0000 
     82 CZ         34.5017   32.5493   32.5733 C.ar      5 PHE5        0.0000 
     83 NZ         35.0197   32.0311   31.2644 N.2       4 LYS4        0.0000 
     84 NZ         35.5377   31.5129   29.9556 N.2       4 LYS4        0.0000 
     85 CZ         32.1793   35.1684   35.7743 C.ar      5 PHE5        0.0000 
     86 OG         32.6972   34.6502   34.4655 O.2       1 SER1        0.0000 
     87 OG         33.7332   33.6137   31.8477 O.2       1 SER1        0.0000 
     88 NZ         34.2511   33.0955   30.5389 N.2       4 LYS4        0.0000 
     89 CZ         30.8927   36.7510   36.3576 C.ar      5 PHE5        0.0000 
     90 OG         31.4107   36.2328   35.0488 O.2       1 SER1        0.0000 
     91 CZ         30.1242   37.8154   35.6321 C.ar      5 PHE5        0.0000 
     92 OG         30.6422   37.2971   34.3232 O.2       1 SER1        0.0000 
     93 OG         38.5048   29.7592   33.5432 O.2       1 SER1        0.0000 
     94 OD1        39.0228   29.2410   32.2343 O.3       3 ASP3        0.0000 
     95 OG         37.2183   31.3418   34.1265 O.2       1 SER1        0.0000 
     96 OG         37.7362   30.8236   32.8176 O.2       1 SER1        0.0000 
     97 CA         38.2542   30.3053   31.5087 C.3       6 GLY6        0.0000 
     98 OG         36.9677   31.8879   32.0920 O.2       1 SER1        0.0000 
     99 CA         37.4856   31.3697   30.7831 C.3       6 GLY6        0.0000 
    100 CZ         34.1272   35.0252   36.6019 C.ar      5 PHE5        0.0000 
    101 CZ         35.6811   33.4705   32.6753 C.ar      5 PHE5        0.0000 
    102 NZ         36.1991   32.9523   31.3664 N.2       4 LYS4        0.0000 
    103 CZ         32.8407   36.6078   37.1852 C.ar      5 PHE5        0.0000 
    104 CA         33.3587   36.0896   35.8764 C.3       6 GLY6        0.0000 
    105 CZ         33.8767   35.5713   34.5675 C.ar      5 PHE5        0.0000 
    106 CZ         34.9126   34.5349   31.9497 C.ar      5 PHE5        0.0000 
    107 CZ         32.0722   37.6722   36.4596 C.ar      5 PHE5        0.0000 
    108 CZ         32.5901   37.1539   35.1508 C.ar      5 PHE5        0.0000 
    109 O          40.2022   30.1621   32.3363 O.2       2 ALA2        0.0000 
    110 OG         39.4336   31.2265   31.6107 O.2       1 SER1        0.0000 
    111 CA         26.0316   31.1086   33.2299 C.3       6 GLY6        0.0000 
    112 N          26.5495   30.5904   31.9210 N.2       2 ALA2        0.0000 
    113 N          27.0675   30.0722   30.6122 N.2       2 ALA2        0.0000 
    114 N          27.5855   29.5539   29.3033 N.2       2 ALA2        0.0000 
    115 N          25.2630   32.1730   32.5043 N.2       2 ALA2        0.0000 
@<TRIPOS>BOND
@<TRIPOS>SUBSTRUCTURE
     1 SER1       27 GROUP   
     2 ALA2        2 GROUP   
     3 ASP3       46 GROUP   
     4 LYS4       30 GROUP   
     5 PHE5       16 GROUP   
     6 GLY6        1 GROUP   
     7 CUB7       17 GROUP   
@<TRIPOS>SET

