#    Name: 3e79_TPP_3_INTS_M
#    Modification time : Tue Mar 25 01:01:36 2014

@<TRIPOS>MOLECULE
3e79_TPP_3_INTS_M
   56     0     9     0     0
SMALL
NO_CHARGES


@<TRIPOS>ATOM
      1 CA         28.4540   34.6785   31.6565 C.3       3 GLC5        0.0000 
      2 CA         28.9560   33.7180   33.2930 C.3       9 GLL5        0.0000 
      3 CA         27.9520   35.6390   30.0200 C.3       6 GLP5        0.0000 
      4 CA         30.7625   31.9070   35.1795 C.3       3 GLC5        0.0000 
      5 CA         31.0340   32.2990   33.5410 C.3       9 GLL5        0.0000 
      6 CA         30.4910   31.5150   36.8180 C.3       6 GLP5        0.0000 
      7 CA         35.3770   34.0250   34.6080 C.3       3 GLC5        0.0000 
      8 CA         33.9810   32.9860   34.1350 C.3       9 GLL5        0.0000 
      9 CA         36.7730   35.0640   35.0810 C.3       6 GLP5        0.0000 
     10 CA         33.8620   32.0060   35.8970 C.3       3 GLC5        0.0000 
     11 CA         33.7430   31.0260   37.6590 C.3       6 GLP5        0.0000 
     12 CA         32.3135   32.9310   35.5460 C.3       3 GLC5        0.0000 
     13 CA         30.6460   32.8760   36.9570 C.3       6 GLP5        0.0000 
     14 CA         33.8520   34.9725   33.1340 C.3       3 GLC5        0.0000 
     15 CA         33.7230   36.9590   32.1330 C.3       6 GLP5        0.0000 
     16 CA         34.6420   35.2660   31.8070 C.3       3 GLC5        0.0000 
     17 CA         35.5610   33.5730   31.4810 C.3       9 GLL5        0.0000 
     18 CA         37.8655   31.7900   29.9040 C.3       3 GLC5        0.0000 
     19 CA         36.4690   32.3800   31.1920 C.3       9 GLL5        0.0000 
     20 CA         39.2620   31.2000   28.6160 C.3       6 GLP5        0.0000 
     21 NZ         36.3015   28.5245   34.4120 N.4       2 LYC4        0.0000 
     22 NZ         36.0890   29.1100   33.1580 N.4       8 LYL4        0.0000 
     23 NZ         36.5140   27.9390   35.6660 N.4       5 LYP4        0.0000 
     24 N          36.3015   28.5245   34.4120 N.am      1 SEC2        0.0000 
     25 N          36.0890   29.1100   33.1580 N.am      7 SEL2        0.0000 
     26 N          36.5140   27.9390   35.6660 N.am      4 SEP2        0.0000 
     27 N          39.2005   32.0195   33.5615 N.am      1 SEC2        0.0000 
     28 N          39.1770   30.7830   34.0260 N.am      7 SEL2        0.0000 
     29 N          39.2240   33.2560   33.0970 N.am      4 SEP2        0.0000 
     30 N          40.0550   30.8815   35.1845 N.am      1 SEC2        0.0000 
     31 N          40.9330   30.9800   36.3430 N.am      4 SEP2        0.0000 
     32 N          38.5940   30.7915   35.2325 N.am      1 SEC2        0.0000 
     33 N          38.0110   30.8000   36.4390 N.am      4 SEP2        0.0000 
     34 NZ         40.3905   28.2090   31.5145 N.4       2 LYC4        0.0000 
     35 NZ         40.6650   29.4940   32.4110 N.4       8 LYL4        0.0000 
     36 NZ         40.1160   26.9240   30.6180 N.4       5 LYP4        0.0000 
     37 N          40.3905   28.2090   31.5145 N.am      1 SEC2        0.0000 
     38 N          40.6650   29.4940   32.4110 N.am      7 SEL2        0.0000 
     39 N          40.1160   26.9240   30.6180 N.am      4 SEP2        0.0000 
     40 N          41.6475   29.5245   33.4105 N.am      1 SEC2        0.0000 
     41 N          42.6300   29.5550   34.4100 N.am      4 SEP2        0.0000 
     42 NZ         39.5380   27.5670   32.2095 N.4       2 LYC4        0.0000 
     43 NZ         38.9600   28.2100   33.8010 N.4       8 LYL4        0.0000 
     44 NZ         37.7370   28.0745   34.7335 N.4       2 LYC4        0.0000 
     45 N          39.7830   27.8330   34.7650 N.am      1 SEC2        0.0000 
     46 N          38.9600   28.2100   33.8010 N.am      7 SEL2        0.0000 
     47 N          40.6060   27.4560   35.7290 N.am      4 SEP2        0.0000 
     48 CA         24.7692   33.7682   33.5782 C.3       3 GLC5        0.0000 
     49 CA         26.8690   32.8600   32.5810 C.3       9 GLL5        0.0000 
     50 CA         23.4040   34.5490   34.7380 C.3       6 GLP5        0.0000 
     51 CA         25.8368   32.3132   34.3347 C.3       3 GLC5        0.0000 
     52 CA         25.4000   33.1150   32.2560 C.3       9 GLL5        0.0000 
     53 CA         25.5390   31.6390   36.2510 C.3       6 GLP5        0.0000 
     54 CA         27.0433   34.3132   31.2192 C.3       3 GLC5        0.0000 
     55 CA         37.2200   33.6218   32.4507 C.3       3 GLC5        0.0000 
     56 CA         38.4250   34.2670   33.5650 C.3       6 GLP5        0.0000 
@<TRIPOS>BOND
@<TRIPOS>SUBSTRUCTURE
     1 SEC2       24 GROUP        1 X    SEC  0     ROOT SEC X 2
     2 LYC4       21 GROUP        1 X    LYC  0     **** LYC X 4
     3 GLC5        1 GROUP        1 X    GLC  0     **** GLC X 6
     4 SEP2       26 GROUP        1 Y    SEP  0     ROOT SEP Y 9
     5 LYP4       23 GROUP        1 Y    LYP  0     **** LYP Y 11
     6 GLP5        3 GROUP        1 Y    GLP  0     **** GLP Y 13
     7 SEL2       25 GROUP        1 Z    SEL  0     ROOT SEL Z 16
     8 LYL4       22 GROUP        1 Z    LYL  0     **** LYL Z 18
     9 GLL5        2 GROUP        1 Z    GLL  0     **** GLL Z 20
@<TRIPOS>SET

