#    Name: 3e79_TPP_3_ligand
#    Modification time : Tue Mar 25 01:01:36 2014

@<TRIPOS>MOLECULE
3e79_TPP_3_ligand
   42    43     1     0     0
SMALL
NO_CHARGES


@<TRIPOS>ATOM
      1 N1'        27.6600   33.8680   33.0250 N.ar      1 TPP551      0.0000 
      2 C2'        26.8690   32.8600   32.5810 C.ar      1 TPP551      0.0000 
      3 CM2        25.4000   33.1150   32.2560 C.3       1 TPP551      0.0000 
      4 N3'        27.3660   31.6030   32.5270 N.ar      1 TPP551      0.0000 
      5 C4'        28.6980   31.4170   32.7590 C.ar      1 TPP551      0.0000 
      6 N4'        29.1640   30.1740   32.6720 N.pl3     1 TPP551      0.0000 
      7 C5'        29.5430   32.4470   33.1930 C.ar      1 TPP551      0.0000 
      8 C6'        28.9560   33.7180   33.2930 C.ar      1 TPP551      0.0000 
      9 C7'        31.0340   32.2990   33.5410 C.3       1 TPP551      0.0000 
     10 N3         32.0220   32.6030   32.4920 N.pl3     1 TPP551      0.0000 
     11 C2         31.6670   32.5860   31.2010 C.2       1 TPP551      0.0000 
     12 S1         33.0580   32.9490   30.2300 S.3       1 TPP551      0.0000 
     13 C5         34.0960   33.1530   31.6130 C.2       1 TPP551      0.0000 
     14 C4         33.3330   32.8940   32.7400 C.2       1 TPP551      0.0000 
     15 CM4        33.9810   32.9860   34.1350 C.3       1 TPP551      0.0000 
     16 C6         35.5610   33.5730   31.4810 C.3       1 TPP551      0.0000 
     17 C7         36.4690   32.3800   31.1920 C.3       1 TPP551      0.0000 
     18 O7         36.3110   31.4100   32.2410 O.3       1 TPP551      0.0000 
     19 PA         36.6490   29.8680   32.0320 P.3       1 TPP551      0.0000 
     20 O1A        36.0890   29.1100   33.1580 O.co2     1 TPP551      0.0000 
     21 O2A        36.1940   29.4420   30.6590 O.co2     1 TPP551      0.0000 
     22 O3A        38.2240   29.7670   31.8960 O.3       1 TPP551      0.0000 
     23 PB         39.2340   29.6230   33.0990 P.3       1 TPP551      0.0000 
     24 O1B        39.1770   30.7830   34.0260 O.co2     1 TPP551      0.0000 
     25 O2B        40.6650   29.4940   32.4110 O.co2     1 TPP551      0.0000 
     26 O3B        38.9600   28.2100   33.8010 O.co2     1 TPP551      0.0000 
     27 H          30.1458   30.0605   32.8245 H         1 TPP551      0.0000 
     28 H          28.4905   29.4653   32.4619 H         1 TPP551      0.0000 
     29 H          29.5539   34.5128   33.5756 H         1 TPP551      0.0000 
     30 H          31.1868   31.2484   33.9154 H         1 TPP551      0.0000 
     31 H          31.2306   32.9384   34.4464 H         1 TPP551      0.0000 
     32 H          30.9111   32.4389   30.7072 H         1 TPP551      0.0000 
     33 H          35.8809   34.0518   32.4098 H         1 TPP551      0.0000 
     34 H          35.6530   34.2998   30.6701 H         1 TPP551      0.0000 
     35 H          37.4962   32.7442   31.1322 H         1 TPP551      0.0000 
     36 H          36.1891   31.9704   30.2198 H         1 TPP551      0.0000 
     37 H          25.2925   33.7995   31.5350 H         1 TPP551      0.0000 
     38 H          24.9393   32.2845   31.9428 H         1 TPP551      0.0000 
     39 H          24.8955   33.4472   33.0530 H         1 TPP551      0.0000 
     40 H          34.9535   33.2118   34.0786 H         1 TPP551      0.0000 
     41 H          33.5491   33.6894   34.6995 H         1 TPP551      0.0000 
     42 H          33.9089   32.1233   34.6356 H         1 TPP551      0.0000 
@<TRIPOS>BOND
     1    2    1 ar   
     2    8    1 ar   
     3    3    2 1    
     4    4    2 ar   
     5   37    3 1    
     6   38    3 1    
     7   39    3 1    
     8    5    4 ar   
     9    6    5 1    
    10    7    5 ar   
    11   27    6 1    
    12   28    6 1    
    13    8    7 ar   
    14    9    7 1    
    15   29    8 1    
    16   10    9 1    
    17   30    9 1    
    18   31    9 1    
    19   11   10 2    
    20   14   10 1    
    21   12   11 1    
    22   32   11 1    
    23   13   12 1    
    24   14   13 2    
    25   16   13 1    
    26   15   14 1    
    27   40   15 1    
    28   41   15 1    
    29   42   15 1    
    30   17   16 1    
    31   33   16 1    
    32   34   16 1    
    33   18   17 1    
    34   35   17 1    
    35   36   17 1    
    36   19   18 1    
    37   20   19 ar   
    38   21   19 ar   
    39   22   19 1    
    40   23   22 1    
    41   24   23 ar   
    42   25   23 ar   
    43   26   23 ar   
@<TRIPOS>SUBSTRUCTURE
     1 TPP551      1 GROUP   
@<TRIPOS>SET

