#    Name: 3ov4_EQU_2_INTS_M
#    Modification time : Tue Mar 25 05:19:46 2014

@<TRIPOS>MOLECULE
3ov4_EQU_2_INTS_M
   56     0     6     0     0
SMALL
NO_CHARGES


@<TRIPOS>ATOM
      1 CA         -3.4330   29.4675   19.1990 C.3       2 GLC5        0.0000 
      2 CA         -2.4960   30.5240   20.3990 C.3       6 GLL5        0.0000 
      3 CA         -4.3700   28.4110   17.9990 C.3       4 GLP5        0.0000 
      4 CA         -5.7600   30.0450   21.2495 C.3       2 GLC5        0.0000 
      5 CA         -3.6020   30.2360   21.2710 C.3       6 GLL5        0.0000 
      6 CA         -7.9180   29.8540   21.2280 C.3       4 GLP5        0.0000 
      7 CA          3.2010   27.8540   21.4660 C.3       2 GLC5        0.0000 
      8 CA          1.3260   29.0660   21.2510 C.3       6 GLL5        0.0000 
      9 CA          5.0760   26.6420   21.6810 C.3       4 GLP5        0.0000 
     10 CA          1.8145   28.5110   18.2000 C.3       2 GLC5        0.0000 
     11 CA          2.2880   30.2110   19.1880 C.3       6 GLL5        0.0000 
     12 CA          1.3410   26.8110   17.2120 C.3       4 GLP5        0.0000 
     13 CA          1.1045   30.8095   15.8550 C.3       2 GLC5        0.0000 
     14 CA          0.8030   31.4740   17.6500 C.3       6 GLL5        0.0000 
     15 CA          1.4060   30.1450   14.0600 C.3       4 GLP5        0.0000 
     16 CA         -1.9000   32.5625   18.5975 C.3       2 GLC5        0.0000 
     17 CA         -0.4090   31.2650   18.5530 C.3       6 GLL5        0.0000 
     18 CA         -3.3910   33.8600   18.6420 C.3       4 GLP5        0.0000 
     19 CA          5.6825   29.7730   19.5980 C.3       2 GLC5        0.0000 
     20 CA          3.6910   30.4700   19.8240 C.3       6 GLL5        0.0000 
     21 CA          7.6740   29.0760   19.3720 C.3       4 GLP5        0.0000 
     22 CA          4.3760   30.6355   21.8515 C.3       2 GLC5        0.0000 
     23 CA          5.0610   30.8010   23.8790 C.3       4 GLP5        0.0000 
     24 CA          4.3835   28.5560   20.7525 C.3       2 GLC5        0.0000 
     25 CA          5.7215   31.6640   17.1220 C.3       2 GLC5        0.0000 
     26 CA          4.3970   30.8360   18.5200 C.3       6 GLL5        0.0000 
     27 CA          7.0460   32.4920   15.7240 C.3       4 GLP5        0.0000 
     28 CA          5.6940   29.7525   17.7200 C.3       2 GLC5        0.0000 
     29 CA          6.9910   28.6690   16.9200 C.3       4 GLP5        0.0000 
     30 CA          5.8980   32.1935   19.0705 C.3       2 GLC5        0.0000 
     31 CA          7.3990   33.5510   19.6210 C.3       4 GLP5        0.0000 
     32 CA          0.7360   34.5720   19.6775 C.3       2 GLC5        0.0000 
     33 CA          1.9790   32.8290   19.4800 C.3       6 GLL5        0.0000 
     34 CA         -0.5070   36.3150   19.8750 C.3       4 GLP5        0.0000 
     35 CA          2.6065   34.2940   20.5630 C.3       2 GLC5        0.0000 
     36 CA          3.2340   35.7590   21.6460 C.3       4 GLP5        0.0000 
     37 CA          2.8645   34.3900   18.4810 C.3       2 GLC5        0.0000 
     38 CA          3.7500   35.9510   17.4820 C.3       4 GLP5        0.0000 
     39 CA          0.9695   33.9520   17.8525 C.3       2 GLC5        0.0000 
     40 CA         -0.0400   35.0750   16.2250 C.3       4 GLP5        0.0000 
     41 N           4.8635   32.6885   16.6370 N.am      1 SEC2        0.0000 
     42 N           3.6170   32.3310   16.7020 N.am      5 SEL2        0.0000 
     43 N           6.1100   33.0460   16.5720 N.am      3 SEP2        0.0000 
     44 N           3.3780   32.7605   15.3900 N.am      1 SEC2        0.0000 
     45 N           3.1390   33.1900   14.0780 N.am      3 SEP2        0.0000 
     46 CA         -2.5867   28.2103   20.6045 C.3       2 GLC5        0.0000 
     47 CA         -1.0430   29.2110   21.8310 C.3       6 GLL5        0.0000 
     48 CA         -4.0440   26.7870   19.9400 C.3       4 GLP5        0.0000 
     49 CA         -3.6189   28.2459   20.9262 C.3       2 GLC5        0.0000 
     50 CA         -2.1480   28.9110   22.6890 C.3       6 GLL5        0.0000 
     51 CA          1.2035   27.5809   20.1339 C.3       2 GLC5        0.0000 
     52 CA          0.2620   28.7890   22.1360 C.3       6 GLL5        0.0000 
     53 CA          1.4410   25.7600   19.3540 C.3       4 GLP5        0.0000 
     54 CA         -0.7965   30.4858   16.6448 C.3       2 GLC5        0.0000 
     55 CA         -1.7900   29.6020   15.1880 C.3       4 GLP5        0.0000 
     56 CA          0.0785   33.2223   17.1633 C.3       2 GLC5        0.0000 
@<TRIPOS>BOND
@<TRIPOS>SUBSTRUCTURE
     1 SEC2       41 GROUP        1 X    SEC  0     ROOT SEC X 2
     2 GLC5        1 GROUP        1 X    GLC  0     **** GLC X 6
     3 SEP2       43 GROUP        1 Y    SEP  0     ROOT SEP Y 9
     4 GLP5        3 GROUP        1 Y    GLP  0     **** GLP Y 13
     5 SEL2       42 GROUP        1 Z    SEL  0     ROOT SEL Z 16
     6 GLL5        2 GROUP        1 Z    GLL  0     **** GLL Z 20
@<TRIPOS>SET

