#    Name: 3ov4_EQU_2_ligand
#    Modification time : Tue Mar 25 05:19:46 2014

@<TRIPOS>MOLECULE
3ov4_EQU_2_ligand
   38    41     1     0     0
SMALL
NO_CHARGES


@<TRIPOS>ATOM
      1 C1         -3.4230   29.4360   22.4190 C.ar      1 EQU130      0.0000 
      2 C2         -2.1480   28.9110   22.6890 C.ar      1 EQU130      0.0000 
      3 C3         -1.0430   29.2110   21.8310 C.ar      1 EQU130      0.0000 
      4 C4         -1.2160   30.0560   20.7070 C.ar      1 EQU130      0.0000 
      5 C5         -2.4960   30.5240   20.3990 C.ar      1 EQU130      0.0000 
      6 C6         -3.6020   30.2360   21.2710 C.ar      1 EQU130      0.0000 
      7 C10         0.2620   28.7890   22.1360 C.ar      1 EQU130      0.0000 
      8 C11         1.3260   29.0660   21.2510 C.ar      1 EQU130      0.0000 
      9 C12         1.1380   29.8760   20.1340 C.ar      1 EQU130      0.0000 
     10 C13        -0.1500   30.3730   19.8230 C.ar      1 EQU130      0.0000 
     11 C16         2.2880   30.2110   19.1880 C.3       1 EQU130      0.0000 
     12 C17         2.0510   31.5950   18.5300 C.3       1 EQU130      0.0000 
     13 C18         0.8030   31.4740   17.6500 C.3       1 EQU130      0.0000 
     14 C19        -0.4090   31.2650   18.5530 C.3       1 EQU130      0.0000 
     15 C24         3.6910   30.4700   19.8240 C.3       1 EQU130      0.0000 
     16 C25         4.3970   30.8360   18.5200 C.3       1 EQU130      0.0000 
     17 C26         3.3670   31.6540   17.7360 C.2       1 EQU130      0.0000 
     18 C27         1.9790   32.8290   19.4800 C.3       1 EQU130      0.0000 
     19 O1         -4.5430   29.2220   23.2280 O.3       1 EQU130      0.0000 
     20 O26         3.6170   32.3310   16.7020 O.2       1 EQU130      0.0000 
     21 H          -1.9971   28.3090   23.5018 H         1 EQU130      0.0000 
     22 H          -2.6649   31.0743   19.5553 H         1 EQU130      0.0000 
     23 H          -4.5220   30.6200   21.0469 H         1 EQU130      0.0000 
     24 H           0.4451   28.2773   23.0048 H         1 EQU130      0.0000 
     25 H           2.2543   28.6582   21.4417 H         1 EQU130      0.0000 
     26 H           2.3978   29.5126   18.4044 H         1 EQU130      0.0000 
     27 H           0.9121   30.6279   16.9894 H         1 EQU130      0.0000 
     28 H           0.6777   32.3819   17.0807 H         1 EQU130      0.0000 
     29 H          -0.7835   32.2426   18.9006 H         1 EQU130      0.0000 
     30 H          -1.2238   30.7971   17.9751 H         1 EQU130      0.0000 
     31 H           4.0598   29.5856   20.1988 H         1 EQU130      0.0000 
     32 H           3.6336   31.2878   20.4458 H         1 EQU130      0.0000 
     33 H           4.6381   29.9520   17.9800 H         1 EQU130      0.0000 
     34 H           5.2489   31.4379   18.7277 H         1 EQU130      0.0000 
     35 H           2.8263   32.9494   19.9973 H         1 EQU130      0.0000 
     36 H           1.8207   33.6776   18.9752 H         1 EQU130      0.0000 
     37 H           1.2386   32.7419   20.1465 H         1 EQU130      0.0000 
     38 H          -4.1735   28.9190   24.1064 H         1 EQU130      0.0000 
@<TRIPOS>BOND
     1    2    1 ar   
     2    6    1 ar   
     3   19    1 1    
     4    3    2 ar   
     5   21    2 1    
     6    4    3 ar   
     7    7    3 ar   
     8    5    4 ar   
     9   10    4 ar   
    10    6    5 ar   
    11   22    5 1    
    12   23    6 1    
    13    8    7 ar   
    14   24    7 1    
    15    9    8 ar   
    16   25    8 1    
    17   10    9 ar   
    18   11    9 1    
    19   14   10 1    
    20   12   11 1    
    21   15   11 1    
    22   26   11 1    
    23   13   12 1    
    24   17   12 1    
    25   18   12 1    
    26   14   13 1    
    27   27   13 1    
    28   28   13 1    
    29   29   14 1    
    30   30   14 1    
    31   16   15 1    
    32   31   15 1    
    33   32   15 1    
    34   17   16 1    
    35   33   16 1    
    36   34   16 1    
    37   20   17 2    
    38   35   18 1    
    39   36   18 1    
    40   37   18 1    
    41   38   19 1    
@<TRIPOS>SUBSTRUCTURE
     1 EQU130      1 GROUP   
@<TRIPOS>SET

