#    Name: 3zv6_NAD_2_INTS_M
#    Modification time : Tue Mar 25 04:01:24 2014

@<TRIPOS>MOLECULE
3zv6_NAD_2_INTS_M
  101     0     9     0     0
SMALL
NO_CHARGES


@<TRIPOS>ATOM
      1 N         -20.3100   -2.8195   24.3655 N.am      2 SEC2        0.0000 
      2 N         -18.8410   -1.9650   24.1630 N.am      8 SEL2        0.0000 
      3 N         -21.7790   -3.6740   24.5680 N.am      5 SEP2        0.0000 
      4 CA        -16.0410   -7.6370   23.2585 C.3       3 GLC5        0.0000 
      5 CA        -17.5030   -6.6570   23.7480 C.3       9 GLL5        0.0000 
      6 CA        -14.5790   -8.6170   22.7690 C.3       6 GLP5        0.0000 
      7 CA        -18.8195   -5.1025   21.4840 C.3       3 GLC5        0.0000 
      8 CA        -18.7220   -6.7300   22.8300 C.3       9 GLL5        0.0000 
      9 CA        -18.9170   -3.4750   20.1380 C.3       6 GLP5        0.0000 
     10 N         -18.6475   -5.5325   21.4380 N.am      2 SEC2        0.0000 
     11 N         -18.2590   -6.9010   21.5040 N.am      8 SEL2        0.0000 
     12 N         -19.0360   -4.1640   21.3720 N.am      5 SEP2        0.0000 
     13 O         -18.6635   -8.2610   20.7520 O.2       1 ALC1        0.0000 
     14 O         -18.2590   -6.9010   21.5040 O.2       7 ALL1        0.0000 
     15 O         -19.0680   -9.6210   20.0000 O.2       4 ALP1        0.0000 
     16 O         -17.7045   -7.9010   21.1480 O.2       1 ALC1        0.0000 
     17 O         -17.1500   -8.9010   20.7920 O.2       4 ALP1        0.0000 
     18 N         -21.7390   -8.9875   22.6110 N.am      2 SEC2        0.0000 
     19 N         -20.1190   -8.6000   22.1780 N.am      8 SEL2        0.0000 
     20 N         -23.3590   -9.3750   23.0440 N.am      5 SEP2        0.0000 
     21 O         -19.5935   -9.1105   21.0890 O.2       1 ALC1        0.0000 
     22 O         -20.1190   -8.6000   22.1780 O.2       7 ALL1        0.0000 
     23 O         -18.6345   -8.7505   21.4850 O.2       1 ALC1        0.0000 
     24 CA        -16.4325   -8.7425   23.2445 C.3       3 GLC5        0.0000 
     25 CA        -18.2860   -8.8680   23.7200 C.3       9 GLL5        0.0000 
     26 CA        -16.5990   -9.5020   24.9005 C.3       3 GLC5        0.0000 
     27 CA        -14.9120  -10.1360   26.0810 C.3       6 GLP5        0.0000 
     28 CA        -18.7505  -15.0840   24.8570 C.3       3 GLC5        0.0000 
     29 CA        -19.0840  -13.1480   25.7850 C.3       9 GLL5        0.0000 
     30 CA        -18.4170  -17.0200   23.9290 C.3       6 GLP5        0.0000 
     31 O         -19.3925  -15.2565   26.8040 O.2       1 ALC1        0.0000 
     32 O         -19.6150  -13.7800   26.8430 O.2       7 ALL1        0.0000 
     33 O         -19.1700  -16.7330   26.7650 O.2       4 ALP1        0.0000 
     34 N         -17.5530  -14.9375   25.0370 N.am      2 SEC2        0.0000 
     35 N         -18.4730  -13.8370   24.7980 N.am      8 SEL2        0.0000 
     36 N         -16.6330  -16.0380   25.2760 N.am      5 SEP2        0.0000 
     37 CA        -17.4725  -12.6540   21.8655 C.3       3 GLC5        0.0000 
     38 CA        -17.9430  -13.2440   23.7420 C.3       9 GLL5        0.0000 
     39 CA        -17.0020  -12.0640   19.9890 C.3       6 GLP5        0.0000 
     40 CA        -19.6445  -13.1925   22.7930 C.3       3 GLC5        0.0000 
     41 CA        -21.3460  -13.1410   21.8440 C.3       6 GLP5        0.0000 
     42 CA        -18.1800  -15.1320   23.8355 C.3       3 GLC5        0.0000 
     43 CA        -16.3120  -13.5160   24.3965 C.3       3 GLC5        0.0000 
     44 CA        -14.6810  -13.7880   25.0510 C.3       6 GLP5        0.0000 
     45 N         -18.6270  -12.2575   22.1125 N.am      2 SEC2        0.0000 
     46 N         -17.9740  -11.9200   23.6090 N.am      8 SEL2        0.0000 
     47 N         -19.2800  -12.5950   20.6160 N.am      5 SEP2        0.0000 
     48 CA        -16.7355  -10.6490   25.3155 C.3       3 GLC5        0.0000 
     49 CA        -18.5590  -11.1620   24.5500 C.3       9 GLL5        0.0000 
     50 N         -14.8395   -0.6350   24.2715 N.am      2 SEC2        0.0000 
     51 N         -15.6510   -0.7370   25.6400 N.am      8 SEL2        0.0000 
     52 N         -14.0280   -0.5330   22.9030 N.am      5 SEP2        0.0000 
     53 CA        -16.0080   -3.3830   27.9015 C.3       3 GLC5        0.0000 
     54 CA        -14.2190   -3.8540   26.9230 C.3       9 GLL5        0.0000 
     55 CA        -17.7970   -2.9120   28.8800 C.3       6 GLP5        0.0000 
     56 N         -12.5950   -5.7565   31.1550 N.am      2 SEC2        0.0000 
     57 N         -13.0330   -5.6210   29.8330 N.am      8 SEL2        0.0000 
     58 N         -12.1570   -5.8920   32.4770 N.am      5 SEP2        0.0000 
     59 O         -12.8375   -6.2370   28.6605 O.2       1 ALC1        0.0000 
     60 O         -13.0330   -5.6210   29.8330 O.2       7 ALL1        0.0000 
     61 O         -12.6420   -6.8530   27.4880 O.2       4 ALP1        0.0000 
     62 N         -13.5080   -5.0275   31.9650 N.am      2 SEC2        0.0000 
     63 N         -14.8590   -4.1630   31.4530 N.am      8 SEL2        0.0000 
     64 O         -14.8595   -3.4325   32.5650 O.2       1 ALC1        0.0000 
     65 O         -14.8590   -4.1630   31.4530 O.2       7 ALL1        0.0000 
     66 O         -14.8600   -2.7020   33.6770 O.2       4 ALP1        0.0000 
     67 CA        -11.5840   -3.0465   29.5275 C.3       3 GLC5        0.0000 
     68 CA        -13.3370   -2.6320   30.0820 C.3       9 GLL5        0.0000 
     69 CA         -9.8310   -3.4610   28.9730 C.3       6 GLP5        0.0000 
     70 CA        -13.1735   -0.7020   28.9465 C.3       3 GLC5        0.0000 
     71 CA        -13.0100    1.2280   27.8110 C.3       6 GLP5        0.0000 
     72 CA        -15.4825   -2.4180   30.6835 C.3       3 GLC5        0.0000 
     73 CA        -17.6280   -2.2040   31.2850 C.3       6 GLP5        0.0000 
     74 CA        -20.7253   -9.2700   23.8205 C.3       3 GLC5        0.0000 
     75 CA        -22.5790  -10.1130   24.1360 C.3       6 GLP5        0.0000 
     76 CA        -17.4793  -13.2037   26.5222 C.3       3 GLC5        0.0000 
     77 CA        -19.1330  -11.7490   25.6720 C.3       9 GLL5        0.0000 
     78 CA        -15.8500  -13.9590   27.3160 C.3       6 GLP5        0.0000 
     79 CA        -20.5214  -11.6916   24.4411 C.3       3 GLC5        0.0000 
     80 CA        -22.2090  -11.5780   23.7430 C.3       6 GLP5        0.0000 
     81 CA        -11.7330   -3.8803   28.8155 C.3       3 GLC5        0.0000 
     82 CA        -13.9780   -4.7270   29.2040 C.3       9 GLL5        0.0000 
     83 CA        -15.0858   -5.9950   29.7793 C.3       3 GLC5        0.0000 
     84 CA        -15.9250   -7.8090   29.8830 C.3       6 GLP5        0.0000 
     85 CA        -16.0217   -3.5465   29.2778 C.3       3 GLC5        0.0000 
     86 CA        -13.3570   -4.1727   31.8962 C.3       3 GLC5        0.0000 
     87 CA        -14.5150   -3.6350   30.1470 C.3       9 GLL5        0.0000 
     88 CA        -12.7880   -5.2120   33.6780 C.3       6 GLP5        0.0000 
     89 CA        -13.8465    0.7127   29.0600 C.3       3 GLC5        0.0000 
     90 CA        -14.5880   -0.4620   30.0950 C.3       9 GLL5        0.0000 
     91 CA        -16.1555   -1.0033   30.7970 C.3       3 GLC5        0.0000 
     92 CA        -12.1240    2.7985   32.0820 C.3       3 GLC5        0.0000 
     93 CA        -13.8660    1.4310   31.4200 C.3       9 GLL5        0.0000 
     94 CA        -10.9240    4.5390   32.5090 C.3       6 GLP5        0.0000 
     95 CA        -12.1047   -0.6998   33.1387 C.3       3 GLC5        0.0000 
     96 CA        -12.7820    0.6850   31.8900 C.3       9 GLL5        0.0000 
     97 CA        -11.5260   -1.4250   34.6020 C.3       6 GLP5        0.0000 
     98 CA        -10.9823    0.7678   30.6497 C.3       3 GLC5        0.0000 
     99 CA        -12.5850   -0.6340   31.4610 C.3       9 GLL5        0.0000 
    100 CA         -9.2810    1.5100   29.6240 C.3       6 GLP5        0.0000 
    101 CA        -12.9823    0.7200   29.6845 C.3       3 GLC5        0.0000 
@<TRIPOS>BOND
@<TRIPOS>SUBSTRUCTURE
     1 ALC1       13 GROUP        1 X    ALC  0     ROOT ALC X 1
     2 SEC2        1 GROUP        1 X    SEC  0     **** SEC X 2
     3 GLC5        4 GROUP        1 X    GLC  0     **** GLC X 6
     4 ALP1       15 GROUP        1 Y    ALP  0     ROOT ALP Y 8
     5 SEP2        3 GROUP        1 Y    SEP  0     **** SEP Y 9
     6 GLP5        6 GROUP        1 Y    GLP  0     **** GLP Y 13
     7 ALL1       14 GROUP        1 Z    ALL  0     ROOT ALL Z 15
     8 SEL2        2 GROUP        1 Z    SEL  0     **** SEL Z 16
     9 GLL5        5 GROUP        1 Z    GLL  0     **** GLL Z 20
@<TRIPOS>SET

