#    Name: 3zv6_NAD_2_ligand
#    Modification time : Tue Mar 25 04:01:24 2014

@<TRIPOS>MOLECULE
3zv6_NAD_2_ligand
   70    74     1     0     0
SMALL
NO_CHARGES


@<TRIPOS>ATOM
      1 PA        -18.4750   -3.0640   25.1050 P.3       1 NAD1276     0.0000 
      2 O1A       -19.4900   -3.6490   26.0140 O.co2     1 NAD1276     0.0000 
      3 O2A       -18.8410   -1.9650   24.1630 O.co2     1 NAD1276     0.0000 
      4 O5B       -17.8200   -4.2450   24.2240 O.3       1 NAD1276     0.0000 
      5 C5B       -17.6790   -5.5410   24.8080 C.3       1 NAD1276     0.0000 
      6 C4B       -17.5030   -6.6570   23.7480 C.3       1 NAD1276     0.0000 
      7 O4B       -17.3930   -7.9750   24.4260 O.3       1 NAD1276     0.0000 
      8 C3B       -18.7220   -6.7300   22.8300 C.3       1 NAD1276     0.0000 
      9 O3B       -18.2590   -6.9010   21.5040 O.3       1 NAD1276     0.0000 
     10 C2B       -19.4570   -7.9860   23.2900 C.3       1 NAD1276     0.0000 
     11 O2B       -20.1190   -8.6000   22.1780 O.3       1 NAD1276     0.0000 
     12 C1B       -18.2860   -8.8680   23.7200 C.3       1 NAD1276     0.0000 
     13 N9A       -18.7350   -9.8620   24.6720 N.pl3     1 NAD1276     0.0000 
     14 C8A       -19.3900   -9.6160   25.8150 C.2       1 NAD1276     0.0000 
     15 N7A       -19.6420  -10.7670   26.4290 N.2       1 NAD1276     0.0000 
     16 C5A       -19.1330  -11.7490   25.6720 C.ar      1 NAD1276     0.0000 
     17 C6A       -19.0840  -13.1480   25.7850 C.ar      1 NAD1276     0.0000 
     18 N6A       -19.6150  -13.7800   26.8430 N.pl3     1 NAD1276     0.0000 
     19 N1A       -18.4730  -13.8370   24.7980 N.ar      1 NAD1276     0.0000 
     20 C2A       -17.9430  -13.2440   23.7420 C.ar      1 NAD1276     0.0000 
     21 N3A       -17.9740  -11.9200   23.6090 N.ar      1 NAD1276     0.0000 
     22 C4A       -18.5590  -11.1620   24.5500 C.ar      1 NAD1276     0.0000 
     23 O3        -17.2370   -2.6340   26.0930 O.3       1 NAD1276     0.0000 
     24 PN        -15.7260   -2.2050   25.6590 P.3       1 NAD1276     0.0000 
     25 O1N       -15.6510   -0.7370   25.6400 O.co2     1 NAD1276     0.0000 
     26 O2N       -15.1430   -3.0120   24.5280 O.co2     1 NAD1276     0.0000 
     27 O5D       -15.0660   -2.7200   26.9990 O.3       1 NAD1276     0.0000 
     28 C5D       -14.2190   -3.8540   26.9230 C.3       1 NAD1276     0.0000 
     29 C4D       -13.2920   -3.8720   28.1120 C.3       1 NAD1276     0.0000 
     30 O4D       -13.1910   -2.5090   28.6390 O.3       1 NAD1276     0.0000 
     31 C3D       -13.9780   -4.7270   29.2040 C.3       1 NAD1276     0.0000 
     32 O3D       -13.0330   -5.6210   29.8330 O.3       1 NAD1276     0.0000 
     33 C2D       -14.5150   -3.6350   30.1470 C.3       1 NAD1276     0.0000 
     34 O2D       -14.8590   -4.1630   31.4530 O.3       1 NAD1276     0.0000 
     35 C1D       -13.3370   -2.6320   30.0820 C.3       1 NAD1276     0.0000 
     36 N1N       -13.5020   -1.2230   30.5600 N.pl3     1 NAD1276     0.0000 
     37 C2N       -14.5880   -0.4620   30.0950 C.ar      1 NAD1276     0.0000 
     38 C3N       -14.7780    0.8570   30.5230 C.ar      1 NAD1276     0.0000 
     39 C7N       -15.9950    1.6260   29.9610 C.2       1 NAD1276     0.0000 
     40 O7N       -16.5660    2.5260   30.5830 O.2       1 NAD1276     0.0000 
     41 N7N       -16.3870    1.2240   28.7540 N.am      1 NAD1276     0.0000 
     42 C4N       -13.8660    1.4310   31.4200 C.ar      1 NAD1276     0.0000 
     43 C5N       -12.7820    0.6850   31.8900 C.ar      1 NAD1276     0.0000 
     44 C6N       -12.5850   -0.6340   31.4610 C.ar      1 NAD1276     0.0000 
     45 H         -18.5598   -5.8131   25.4195 H         1 NAD1276     0.0000 
     46 H         -16.8025   -5.5943   25.4809 H         1 NAD1276     0.0000 
     47 H         -16.6365   -6.4636   23.1703 H         1 NAD1276     0.0000 
     48 H         -19.3187   -5.8949   22.9845 H         1 NAD1276     0.0000 
     49 H         -20.0461   -7.7713   24.1029 H         1 NAD1276     0.0000 
     50 H         -17.8307   -9.2808   22.8796 H         1 NAD1276     0.0000 
     51 H         -19.6393   -8.7297   26.1391 H         1 NAD1276     0.0000 
     52 H         -19.1525  -14.6179   27.1327 H         1 NAD1276     0.0000 
     53 H         -20.4258  -13.3566   27.2471 H         1 NAD1276     0.0000 
     54 H         -17.4860  -13.8276   22.9884 H         1 NAD1276     0.0000 
     55 H         -13.6050   -3.8430   26.0120 H         1 NAD1276     0.0000 
     56 H         -14.7926   -4.7911   26.9235 H         1 NAD1276     0.0000 
     57 H         -12.3749   -4.2825   27.8717 H         1 NAD1276     0.0000 
     58 H         -14.8043   -5.2096   28.7529 H         1 NAD1276     0.0000 
     59 H         -15.3424   -3.1789   29.6297 H         1 NAD1276     0.0000 
     60 H         -12.4624   -3.0903   30.4614 H         1 NAD1276     0.0000 
     61 H         -15.2528   -0.8834   29.4292 H         1 NAD1276     0.0000 
     62 H         -15.8488    0.4909   28.3381 H         1 NAD1276     0.0000 
     63 H         -17.1843    1.6913   28.3720 H         1 NAD1276     0.0000 
     64 H         -13.9965    2.4000   31.7304 H         1 NAD1276     0.0000 
     65 H         -12.1214    1.1069   32.5575 H         1 NAD1276     0.0000 
     66 H         -11.7844   -1.1727   31.7941 H         1 NAD1276     0.0000 
     67 H         -18.3396   -7.8818   21.3263 H         1 NAD1276     0.0000 
     68 H         -19.3841   -8.8663   21.5543 H         1 NAD1276     0.0000 
     69 H         -12.3799   -5.8556   29.1129 H         1 NAD1276     0.0000 
     70 H         -14.7879   -3.3827   32.0744 H         1 NAD1276     0.0000 
@<TRIPOS>BOND
     1    2    1 ar   
     2    3    1 ar   
     3    4    1 1    
     4   23    1 1    
     5    5    4 1    
     6    6    5 1    
     7   45    5 1    
     8   46    5 1    
     9    7    6 1    
    10    8    6 1    
    11   47    6 1    
    12   12    7 1    
    13    9    8 1    
    14   10    8 1    
    15   48    8 1    
    16   67    9 1    
    17   11   10 1    
    18   12   10 1    
    19   49   10 1    
    20   68   11 1    
    21   13   12 1    
    22   50   12 1    
    23   14   13 1    
    24   22   13 1    
    25   15   14 2    
    26   51   14 1    
    27   16   15 1    
    28   17   16 ar   
    29   22   16 ar   
    30   18   17 1    
    31   19   17 ar   
    32   52   18 1    
    33   53   18 1    
    34   20   19 ar   
    35   21   20 ar   
    36   54   20 1    
    37   22   21 ar   
    38   24   23 1    
    39   25   24 ar   
    40   26   24 ar   
    41   27   24 1    
    42   28   27 1    
    43   29   28 1    
    44   55   28 1    
    45   56   28 1    
    46   30   29 1    
    47   31   29 1    
    48   57   29 1    
    49   35   30 1    
    50   32   31 1    
    51   33   31 1    
    52   58   31 1    
    53   69   32 1    
    54   34   33 1    
    55   35   33 1    
    56   59   33 1    
    57   70   34 1    
    58   36   35 1    
    59   60   35 1    
    60   37   36 ar   
    61   44   36 ar   
    62   38   37 ar   
    63   61   37 1    
    64   39   38 1    
    65   42   38 ar   
    66   40   39 2    
    67   41   39 am   
    68   62   41 1    
    69   63   41 1    
    70   43   42 ar   
    71   64   42 1    
    72   44   43 ar   
    73   65   43 1    
    74   66   44 1    
@<TRIPOS>SUBSTRUCTURE
     1 NAD1276     1 GROUP   
@<TRIPOS>SET

