#    Name: 3oaw_OAW_1_INTS_M
#    Modification time : Tue Mar 25 03:36:05 2014

@<TRIPOS>MOLECULE
3oaw_OAW_1_INTS_M
   58     0     9     0     0
SMALL
NO_CHARGES


@<TRIPOS>ATOM
      1 N          48.3615   11.9725   28.1420 N.am      2 SEC2        0.0000 
      2 N          47.3440   13.0850   28.4050 N.am      8 SEL2        0.0000 
      3 N          49.3790   10.8600   27.8790 N.am      5 SEP2        0.0000 
      4 CA         49.5110   12.8995   29.8210 C.3       3 GLC5        0.0000 
      5 CA         47.9520   14.1050   29.0090 C.3       9 GLL5        0.0000 
      6 CA         51.0700   11.6940   30.6330 C.3       6 GLP5        0.0000 
      7 CA         48.9540   12.5270   27.7765 C.3       3 GLC5        0.0000 
      8 CA         49.9560   10.9490   26.5440 C.3       6 GLP5        0.0000 
      9 CA         47.2835   15.4240   28.0010 C.3       3 GLC5        0.0000 
     10 CA         46.6150   16.7430   26.9930 C.3       6 GLP5        0.0000 
     11 CA         47.6160   11.4370   29.4035 C.3       3 GLC5        0.0000 
     12 CA         46.0590   12.8240   28.6110 C.3       9 GLL5        0.0000 
     13 CA         49.1730   10.0500   30.1960 C.3       6 GLP5        0.0000 
     14 O          50.1920   13.6765   27.9250 O.2       1 ALC1        0.0000 
     15 O          49.2790   14.3730   28.7290 O.2       7 ALL1        0.0000 
     16 O          51.1050   12.9800   27.1210 O.2       4 ALP1        0.0000 
     17 CA         44.3700   10.5045   27.1485 C.3       3 GLC5        0.0000 
     18 CA         45.4010   11.6850   27.8850 C.3       9 GLL5        0.0000 
     19 CA         43.3390    9.3240   26.4120 C.3       6 GLP5        0.0000 
     20 CA         45.5990   12.7660   26.2705 C.3       3 GLC5        0.0000 
     21 CA         45.7970   13.8470   24.6560 C.3       6 GLP5        0.0000 
     22 CA         43.7325   17.5185   30.0915 C.3       3 GLC5        0.0000 
     23 CA         45.4680   18.0580   31.2970 C.3       9 GLL5        0.0000 
     24 CA         41.9970   16.9790   28.8860 C.3       6 GLP5        0.0000 
     25 CA         47.2915   16.5860   34.6540 C.3       3 GLC5        0.0000 
     26 CA         46.5030   16.5210   33.0440 C.3       9 GLL5        0.0000 
     27 CA         48.0800   16.6510   36.2640 C.3       6 GLP5        0.0000 
     28 CA         48.3575   15.8010   33.0300 C.3       3 GLC5        0.0000 
     29 CA         50.2120   15.0810   33.0160 C.3       6 GLP5        0.0000 
     30 N          39.9955   12.1420   29.1370 N.am      2 SEC2        0.0000 
     31 N          40.0030   12.7080   30.7540 N.am      8 SEL2        0.0000 
     32 N          39.9880   11.5760   27.5200 N.am      5 SEP2        0.0000 
     33 N          39.4455   13.5855   29.5485 N.am      2 SEC2        0.0000 
     34 N          38.8880   14.4630   28.3430 N.am      5 SEP2        0.0000 
     35 O          38.3720   14.2565   31.8470 O.2       1 ALC1        0.0000 
     36 O          39.9320   13.6000   31.8370 O.2       7 ALL1        0.0000 
     37 O          36.8120   14.9130   31.8570 O.2       4 ALP1        0.0000 
     38 CA         39.5525   15.0780   31.0300 C.3       3 GLC5        0.0000 
     39 CA         41.0860   14.1770   31.9590 C.3       9 GLL5        0.0000 
     40 CA         38.0190   15.9790   30.1010 C.3       6 GLP5        0.0000 
     41 CA         45.9575   13.4168   31.5150 C.3       3 GLC5        0.0000 
     42 CA         45.3330   13.6210   29.5180 C.3       9 GLL5        0.0000 
     43 CA         46.2420   12.6740   33.2000 C.3       6 GLP5        0.0000 
     44 CA         46.7815   11.3407   26.7595 C.3       3 GLC5        0.0000 
     45 CA         47.8330   10.4270   25.2710 C.3       6 GLP5        0.0000 
     46 CA         46.2405   15.1174   28.1067 C.3       3 GLC5        0.0000 
     47 CA         46.2703   14.6397   32.7557 C.3       3 GLC5        0.0000 
     48 CA         46.0940   16.6900   31.5790 C.3       9 GLL5        0.0000 
     49 CA         46.4635   17.6575   29.7680 C.3       3 GLC5        0.0000 
     50 CA         47.1460   17.9410   28.0980 C.3       6 GLP5        0.0000 
     51 CA         44.7587   11.2824   29.9499 C.3       3 GLC5        0.0000 
     52 CA         43.9690   10.1110   31.4250 C.3       6 GLP5        0.0000 
     53 CA         44.2418   13.5034   27.5144 C.3       3 GLC5        0.0000 
     54 CA         42.9350   14.5530   26.5540 C.3       6 GLP5        0.0000 
     55 CA         41.4312   12.3838   32.4215 C.3       3 GLC5        0.0000 
     56 CA         41.9450   13.6940   30.9330 C.3       9 GLL5        0.0000 
     57 CA         41.3470   10.8320   33.3970 C.3       6 GLP5        0.0000 
     58 CA         41.7563   15.4573   30.1660 C.3       3 GLC5        0.0000 
@<TRIPOS>BOND
@<TRIPOS>SUBSTRUCTURE
     1 ALC1       14 GROUP        1 X    ALC  0     ROOT ALC X 1
     2 SEC2        1 GROUP        1 X    SEC  0     **** SEC X 2
     3 GLC5        4 GROUP        1 X    GLC  0     **** GLC X 6
     4 ALP1       16 GROUP        1 Y    ALP  0     ROOT ALP Y 8
     5 SEP2        3 GROUP        1 Y    SEP  0     **** SEP Y 9
     6 GLP5        6 GROUP        1 Y    GLP  0     **** GLP Y 13
     7 ALL1       15 GROUP        1 Z    ALL  0     ROOT ALL Z 15
     8 SEL2        2 GROUP        1 Z    SEL  0     **** SEL Z 16
     9 GLL5        5 GROUP        1 Z    GLL  0     **** GLL Z 20
@<TRIPOS>SET

