#    Name: 3oaw_OAW_1_ligand
#    Modification time : Tue Mar 25 03:36:05 2014

@<TRIPOS>MOLECULE
3oaw_OAW_1_ligand
   36    38     1     0     0
SMALL
NO_CHARGES


@<TRIPOS>ATOM
      1 N1         47.3440   13.0850   28.4050 N.ar      1 OAW1        0.0000 
      2 C2         47.9520   14.1050   29.0090 C.ar      1 OAW1        0.0000 
      3 N3         47.3110   14.8650   29.8820 N.ar      1 OAW1        0.0000 
      4 C4         46.0130   14.6980   30.1420 C.ar      1 OAW1        0.0000 
      5 C5         45.3330   13.6210   29.5180 C.ar      1 OAW1        0.0000 
      6 C6         46.0590   12.8240   28.6110 C.ar      1 OAW1        0.0000 
      7 N7         49.2790   14.3730   28.7290 N.pl3     1 OAW1        0.0000 
      8 C8         46.0940   16.6900   31.5790 C.3       1 OAW1        0.0000 
      9 C9         45.4010   11.6850   27.8850 C.3       1 OAW1        0.0000 
     10 N10        45.3410   15.5350   31.0230 N.am      1 OAW1        0.0000 
     11 C11        44.0210   15.2550   31.3170 C.2       1 OAW1        0.0000 
     12 C12        43.3630   14.0800   30.6660 C.2       1 OAW1        0.0000 
     13 N13        44.0410   13.3580   29.8000 N.2       1 OAW1        0.0000 
     14 O14        43.3780   15.9550   32.0900 O.2       1 OAW1        0.0000 
     15 C15        41.9450   13.6940   30.9330 C.2       1 OAW1        0.0000 
     16 C16        45.4680   18.0580   31.2970 C.3       1 OAW1        0.0000 
     17 C17        46.5030   16.5210   33.0440 C.3       1 OAW1        0.0000 
     18 C18        41.2280   12.7680   30.2100 C.2       1 OAW1        0.0000 
     19 N19        40.0030   12.7080   30.7540 N.2       1 OAW1        0.0000 
     20 N20        39.9320   13.6000   31.8370 N.pl3     1 OAW1        0.0000 
     21 C21        41.0860   14.1770   31.9590 C.2       1 OAW1        0.0000 
     22 H          49.6930   15.1264   29.2398 H         1 OAW1        0.0000 
     23 H          49.7097   13.7902   28.0400 H         1 OAW1        0.0000 
     24 H          47.1006   16.7141   31.0066 H         1 OAW1        0.0000 
     25 H          41.5585   12.2729   29.4656 H         1 OAW1        0.0000 
     26 H          39.1308   13.7172   32.3611 H         1 OAW1        0.0000 
     27 H          41.3834   14.8284   32.6056 H         1 OAW1        0.0000 
     28 H          45.4449   11.8022   26.8929 H         1 OAW1        0.0000 
     29 H          45.8355   10.8094   28.0962 H         1 OAW1        0.0000 
     30 H          44.4347   11.5987   28.1275 H         1 OAW1        0.0000 
     31 H          46.0102   18.8021   31.6873 H         1 OAW1        0.0000 
     32 H          45.3899   18.2356   30.3160 H         1 OAW1        0.0000 
     33 H          44.5482   18.1321   31.6824 H         1 OAW1        0.0000 
     34 H          47.0926   15.7241   33.1754 H         1 OAW1        0.0000 
     35 H          47.0052   17.3163   33.3835 H         1 OAW1        0.0000 
     36 H          45.7090   16.3996   33.6396 H         1 OAW1        0.0000 
@<TRIPOS>BOND
     1    2    1 ar   
     2    6    1 ar   
     3    3    2 ar   
     4    7    2 1    
     5    4    3 ar   
     6    5    4 ar   
     7   10    4 1    
     8    6    5 ar   
     9   13    5 1    
    10    9    6 1    
    11   22    7 1    
    12   23    7 1    
    13   10    8 1    
    14   16    8 1    
    15   17    8 1    
    16   24    8 1    
    17   28    9 1    
    18   29    9 1    
    19   30    9 1    
    20   11   10 am   
    21   12   11 1    
    22   14   11 2    
    23   13   12 2    
    24   15   12 1    
    25   18   15 1    
    26   21   15 2    
    27   31   16 1    
    28   32   16 1    
    29   33   16 1    
    30   34   17 1    
    31   35   17 1    
    32   36   17 1    
    33   19   18 2    
    34   25   18 1    
    35   20   19 1    
    36   21   20 1    
    37   26   20 1    
    38   27   21 1    
@<TRIPOS>SUBSTRUCTURE
     1 OAW1        1 GROUP   
@<TRIPOS>SET

