#    Name: 3c1x_CKK_1_INTS_M
#    Modification time : Mon Mar 24 20:23:29 2014

@<TRIPOS>MOLECULE
3c1x_CKK_1_INTS_M
   98     0    12     0     0
SMALL
NO_CHARGES


@<TRIPOS>ATOM
      1 CA         -0.1560    7.5565   56.6070 C.3       4 GLC5        0.0000 
      2 CA          0.1460    7.6040   54.3940 C.3      12 GLL5        0.0000 
      3 CA         -0.4580    7.5090   58.8200 C.3       8 GLP5        0.0000 
      4 CA         -0.2065    5.8095   55.3530 C.3       4 GLC5        0.0000 
      5 CA         -0.5590    4.0150   56.3120 C.3       8 GLP5        0.0000 
      6 CA          0.5460    8.8490   56.8950 C.3       4 GLC5        0.0000 
      7 CA          0.2930    8.8940   54.9560 C.3      12 GLL5        0.0000 
      8 CA          0.7990    8.8040   58.8340 C.3       8 GLP5        0.0000 
      9 CA         -1.6830    9.5305   52.9995 C.3       4 GLC5        0.0000 
     10 CA          0.1090   10.0230   54.1320 C.3      12 GLL5        0.0000 
     11 CA         -3.4750    9.0380   51.8670 C.3       8 GLP5        0.0000 
     12 CA         -0.9725   14.5100   55.3960 C.3       4 GLC5        0.0000 
     13 CA         -0.4750   12.6030   56.3860 C.3      12 GLL5        0.0000 
     14 CA         -1.4700   16.4170   54.4060 C.3       8 GLP5        0.0000 
     15 CA         -2.2690   13.2495   55.2025 C.3       4 GLC5        0.0000 
     16 CA         -4.0630   13.8960   54.0190 C.3       8 GLP5        0.0000 
     17 CA          3.1550   10.7950   54.7540 C.3       4 GLC5        0.0000 
     18 CA          2.9000   11.1190   56.7100 C.3      12 GLL5        0.0000 
     19 CA          3.4100   10.4710   52.7980 C.3       8 GLP5        0.0000 
     20 CA         -2.8545   -1.7310   53.3270 C.3       4 GLC5        0.0000 
     21 CA         -1.3010   -1.4800   54.8740 C.3      12 GLL5        0.0000 
     22 CA         -4.4080   -1.9820   51.7800 C.3       8 GLP5        0.0000 
     23 CA         -0.9415   -2.8290   53.6445 C.3       4 GLC5        0.0000 
     24 CA         -0.5820   -4.1780   52.4150 C.3       8 GLP5        0.0000 
     25 CA         -0.7860   -1.3145   56.8395 C.3       4 GLC5        0.0000 
     26 CA         -0.2710   -1.1490   58.8050 C.3       8 GLP5        0.0000 
     27 CA         -4.1015   -0.2245   55.0170 C.3       4 GLC5        0.0000 
     28 CA         -2.4030    0.3500   53.9310 C.3      12 GLL5        0.0000 
     29 CA         -5.8000   -0.7990   56.1030 C.3       8 GLP5        0.0000 
     30 CA         -2.7540    3.2255   50.8775 C.3       4 GLC5        0.0000 
     31 CA         -1.1830    2.4440   51.0350 C.3      12 GLL5        0.0000 
     32 CA         -4.3250    4.0070   50.7200 C.3       8 GLP5        0.0000 
     33 N           0.2820    3.4975   53.7160 N.am      2 SEC2        0.0000 
     34 N          -0.8150    3.9800   52.8940 N.am     10 SEL2        0.0000 
     35 N           1.3790    3.0150   54.5380 N.am      6 SEP2        0.0000 
     36 O          -1.1345    4.2195   49.6090 O.2       1 ALC1        0.0000 
     37 O          -0.9530    4.7710   50.7900 O.2       9 ALL1        0.0000 
     38 O          -1.3160    3.6680   48.4280 O.2       5 ALP1        0.0000 
     39 CA         -1.9215    9.9990   51.9420 C.3       4 GLC5        0.0000 
     40 CA         -0.3680   10.9600   52.0170 C.3      12 GLL5        0.0000 
     41 CA          1.5210   10.7155   52.4075 C.3       4 GLC5        0.0000 
     42 N          -3.7635   12.5940   58.2530 N.am      2 SEC2        0.0000 
     43 N          -2.7460   12.4990   57.0980 N.am     10 SEL2        0.0000 
     44 N          -4.7810   12.6890   59.4080 N.am      6 SEP2        0.0000 
     45 CA         -2.2060   12.3865   59.2280 C.3       4 GLC5        0.0000 
     46 CA         -1.0630   13.8580   58.1250 C.3      12 GLL5        0.0000 
     47 CA         -3.3490   10.9150   60.3310 C.3       8 GLP5        0.0000 
     48 CA          0.3045   15.9140   56.7615 C.3       4 GLC5        0.0000 
     49 CA          0.2920   14.0430   57.9310 C.3      12 GLL5        0.0000 
     50 CA          0.3170   17.7850   55.5920 C.3       8 GLP5        0.0000 
     51 CA          4.4775   12.1565   54.8395 C.3       4 GLC5        0.0000 
     52 CA          4.4170   13.0480   56.8310 C.3      12 GLL5        0.0000 
     53 CA          4.5380   11.2650   52.8480 C.3       8 GLP5        0.0000 
     54 CA          5.6165   11.4625   55.4015 C.3       4 GLC5        0.0000 
     55 CA          5.5070   12.1850   57.4940 C.3      12 GLL5        0.0000 
     56 CA          5.7260   10.7400   53.3090 C.3       8 GLP5        0.0000 
     57 CA          5.5300   10.0605   55.4565 C.3       4 GLC5        0.0000 
     58 CA          5.2760   10.6960   57.1810 C.3      12 GLL5        0.0000 
     59 CA          5.7840    9.4250   53.7320 C.3       8 GLP5        0.0000 
     60 CA          3.9795    9.4640   59.4090 C.3       4 GLC5        0.0000 
     61 CA          3.8620   10.2750   57.5090 C.3      12 GLL5        0.0000 
     62 CA          4.0970    8.6530   61.3090 C.3       8 GLP5        0.0000 
     63 CA          4.2585    9.4490   55.6095 C.3       4 GLC5        0.0000 
     64 CA          4.6550    8.6230   53.7100 C.3       8 GLP5        0.0000 
     65 OD1         5.9365   10.0655   59.4520 O.co2     3 ASC3        0.0000 
     66 OD1         6.1510    9.8070   57.9820 O.co2    11 ASL3        0.0000 
     67 OD1         5.7220   10.3240   60.9220 O.co2     7 ASP3        0.0000 
     68 O           5.9365   10.0655   59.4520 O.2       1 ALC1        0.0000 
     69 O           6.1510    9.8070   57.9820 O.2       9 ALL1        0.0000 
     70 O           5.7220   10.3240   60.9220 O.2       5 ALP1        0.0000 
     71 CA         -0.4913   12.2725   52.0003 C.3       4 GLC5        0.0000 
     72 CA         -0.1970    9.8880   52.7960 C.3      12 GLL5        0.0000 
     73 CA         -0.7000   14.1210   51.5940 C.3       8 GLP5        0.0000 
     74 CA         -1.8479    8.7059   52.3180 C.3       4 GLC5        0.0000 
     75 CA         -0.1760    7.4850   53.0140 C.3      12 GLL5        0.0000 
     76 CA         -1.5165    7.3241   54.7480 C.3       4 GLC5        0.0000 
     77 CA         -3.1720    6.4290   55.1660 C.3       8 GLP5        0.0000 
     78 CA          2.0900    9.7505   57.9718 C.3       4 GLC5        0.0000 
     79 CA         -1.7793   -2.5522   55.3882 C.3       4 GLC5        0.0000 
     80 CA         -1.3200   -0.5210   53.9730 C.3      12 GLL5        0.0000 
     81 CA         -2.2480   -4.1040   56.3530 C.3       8 GLP5        0.0000 
     82 CA          0.4979   -1.5791   54.8524 C.3       4 GLC5        0.0000 
     83 CA          1.7720   -2.4300   55.9220 C.3       8 GLP5        0.0000 
     84 CA         -0.5126    0.9049   55.0219 C.3       4 GLC5        0.0000 
     85 CA         -0.2490    2.5380   56.2610 C.3       8 GLP5        0.0000 
     86 CA          1.1378    0.9313   52.6805 C.3       4 GLC5        0.0000 
     87 CA         -0.2420   -0.4560   53.1420 C.3      12 GLL5        0.0000 
     88 CA          2.4810    1.8220   52.7100 C.3       8 GLP5        0.0000 
     89 CA         -3.2633    1.8818   51.2733 C.3       4 GLC5        0.0000 
     90 CA         -2.3470    1.3370   52.9470 C.3      12 GLL5        0.0000 
     91 CA         -4.7330    2.3860   50.0420 C.3       8 GLP5        0.0000 
     92 CA         -1.0282    1.8344   54.5058 C.3       4 GLC5        0.0000 
     93 CA          0.6347    1.8765   52.1292 C.3       4 GLC5        0.0000 
     94 CA         -1.2400    1.4180   52.0620 C.3      12 GLL5        0.0000 
     95 CA          0.0051   10.7111   50.5118 C.3       4 GLC5        0.0000 
     96 CA          0.3270   11.3110   48.7530 C.3       8 GLP5        0.0000 
     97 CA         -0.1822   11.8367   58.2221 C.3       4 GLC5        0.0000 
     98 CA         -0.2260   10.2320   59.1390 C.3       8 GLP5        0.0000 
@<TRIPOS>BOND
@<TRIPOS>SUBSTRUCTURE
     1 ALC1       36 GROUP        1 X    ALC  0     ROOT ALC X 1
     2 SEC2       33 GROUP        1 X    SEC  0     **** SEC X 2
     3 ASC3       65 GROUP        1 X    ASC  0     **** ASC X 3
     4 GLC5        1 GROUP        1 X    GLC  0     **** GLC X 6
     5 ALP1       38 GROUP        1 Y    ALP  0     ROOT ALP Y 8
     6 SEP2       35 GROUP        1 Y    SEP  0     **** SEP Y 9
     7 ASP3       67 GROUP        1 Y    ASP  0     **** ASP Y 10
     8 GLP5        3 GROUP        1 Y    GLP  0     **** GLP Y 13
     9 ALL1       37 GROUP        1 Z    ALL  0     ROOT ALL Z 15
    10 SEL2       34 GROUP        1 Z    SEL  0     **** SEL Z 16
    11 ASL3       66 GROUP        1 Z    ASL  0     **** ASL Z 17
    12 GLL5        2 GROUP        1 Z    GLL  0     **** GLL Z 20
@<TRIPOS>SET

