#    Name: 3c1x_CKK_1_ligand
#    Modification time : Mon Mar 24 20:23:29 2014

@<TRIPOS>MOLECULE
3c1x_CKK_1_ligand
   68    72     1     0     0
SMALL
NO_CHARGES


@<TRIPOS>ATOM
      1 N14        -0.3370    6.2240   52.3960 N.am      1 CKK1500     0.0000 
      2 C17        -0.1970    9.8880   52.7960 C.ar      1 CKK1500     0.0000 
      3 C16        -0.3340    8.6370   52.2520 C.ar      1 CKK1500     0.0000 
      4 C15        -0.1760    7.4850   53.0140 C.ar      1 CKK1500     0.0000 
      5 C19         0.1460    7.6040   54.3940 C.ar      1 CKK1500     0.0000 
      6 C20         0.2930    8.8940   54.9560 C.ar      1 CKK1500     0.0000 
      7 C21         0.1090   10.0230   54.1320 C.ar      1 CKK1500     0.0000 
      8 C23        -0.8400   11.6800   55.3780 C.2       1 CKK1500     0.0000 
      9 C12        -0.6790    6.0220   51.1150 C.2       1 CKK1500     0.0000 
     10 C27        -0.4750   12.6030   56.3860 C.2       1 CKK1500     0.0000 
     11 C33         2.9000   11.1190   56.7100 C.3       1 CKK1500     0.0000 
     12 F1         -1.3010   -1.4800   54.8740 F         1 CKK1500     0.0000 
     13 C2         -1.3200   -0.5210   53.9730 C.ar      1 CKK1500     0.0000 
     14 C3         -0.2420   -0.4560   53.1420 C.ar      1 CKK1500     0.0000 
     15 C4         -0.1690    0.5370   52.1600 C.ar      1 CKK1500     0.0000 
     16 C5         -2.4030    0.3500   53.9310 C.ar      1 CKK1500     0.0000 
     17 C6         -2.3470    1.3370   52.9470 C.ar      1 CKK1500     0.0000 
     18 C7         -1.2400    1.4180   52.0620 C.ar      1 CKK1500     0.0000 
     19 C8         -1.1830    2.4440   51.0350 C.3       1 CKK1500     0.0000 
     20 C9         -0.9900    3.7690   51.6900 C.2       1 CKK1500     0.0000 
     21 O10        -0.8150    3.9800   52.8940 O.2       1 CKK1500     0.0000 
     22 N11        -0.9530    4.7710   50.7900 N.am      1 CKK1500     0.0000 
     23 O13        -0.7710    6.8260   50.2270 O.2       1 CKK1500     0.0000 
     24 F18        -0.3680   10.9600   52.0170 F         1 CKK1500     0.0000 
     25 O22         0.2170   11.3310   54.5870 O.3       1 CKK1500     0.0000 
     26 N24        -2.0240   11.2190   55.2410 N.2       1 CKK1500     0.0000 
     27 C25        -2.9440   11.6500   56.1400 C.2       1 CKK1500     0.0000 
     28 N26        -2.7460   12.4990   57.0980 N.2       1 CKK1500     0.0000 
     29 N28        -1.5020   12.9730   57.2050 N.pl3     1 CKK1500     0.0000 
     30 C29        -1.0630   13.8580   58.1250 C.2       1 CKK1500     0.0000 
     31 C30         0.2920   14.0430   57.9310 C.2       1 CKK1500     0.0000 
     32 C31         0.6920   13.2620   56.7790 C.2       1 CKK1500     0.0000 
     33 C32         2.0690   13.2420   56.1810 C.3       1 CKK1500     0.0000 
     34 N34         3.0260   12.5470   57.0480 N.4       1 CKK1500     0.0000 
     35 C35         4.4170   13.0480   56.8310 C.3       1 CKK1500     0.0000 
     36 C36         5.5070   12.1850   57.4940 C.3       1 CKK1500     0.0000 
     37 C37         5.2760   10.6960   57.1810 C.3       1 CKK1500     0.0000 
     38 C38         3.8620   10.2750   57.5090 C.3       1 CKK1500     0.0000 
     39 N39         6.1510    9.8070   57.9820 N.4       1 CKK1500     0.0000 
     40 H          -0.1650    5.3754   53.0280 H         1 CKK1500     0.0000 
     41 H          -0.5633    8.5380   51.2380 H         1 CKK1500     0.0000 
     42 H           0.2676    6.7759   54.9631 H         1 CKK1500     0.0000 
     43 H           0.5271    9.0025   55.9364 H         1 CKK1500     0.0000 
     44 H           3.0979   10.9633   55.6394 H         1 CKK1500     0.0000 
     45 H           1.8756   10.7709   56.9078 H         1 CKK1500     0.0000 
     46 H           0.5323   -1.1352   53.2249 H         1 CKK1500     0.0000 
     47 H           0.6303    0.6079   51.5492 H         1 CKK1500     0.0000 
     48 H          -3.1714    0.2756   54.5628 H         1 CKK1500     0.0000 
     49 H          -3.1109    2.0188   52.8528 H         1 CKK1500     0.0000 
     50 H          -2.1094    2.4620   50.4553 H         1 CKK1500     0.0000 
     51 H          -0.3523    2.2584   50.3494 H         1 CKK1500     0.0000 
     52 H          -1.1562    4.5317   49.7694 H         1 CKK1500     0.0000 
     53 H          -3.9454   11.2244   56.0245 H         1 CKK1500     0.0000 
     54 H          -1.5846   14.2915   58.8010 H         1 CKK1500     0.0000 
     55 H           0.8817   14.5721   58.4342 H         1 CKK1500     0.0000 
     56 H           2.3964   14.2801   56.0079 H         1 CKK1500     0.0000 
     57 H           2.0214   12.7505   55.1957 H         1 CKK1500     0.0000 
     58 H           2.7396   12.6918   58.0777 H         1 CKK1500     0.0000 
     59 H           4.5107   14.0780   57.2212 H         1 CKK1500     0.0000 
     60 H           4.6329   13.1007   55.7482 H         1 CKK1500     0.0000 
     61 H           5.4751   12.3335   58.5676 H         1 CKK1500     0.0000 
     62 H           6.4778   12.4834   57.1143 H         1 CKK1500     0.0000 
     63 H           5.4474   10.5207   56.1337 H         1 CKK1500     0.0000 
     64 H           3.7269    9.2287   57.2551 H         1 CKK1500     0.0000 
     65 H           3.6780   10.4167   58.5689 H         1 CKK1500     0.0000 
     66 H           7.1197    9.9909   57.8153 H         1 CKK1500     0.0000 
     67 H           5.9960    9.9195   58.9635 H         1 CKK1500     0.0000 
     68 H           5.9950    8.8424   57.7693 H         1 CKK1500     0.0000 
@<TRIPOS>BOND
     1    4    1 1    
     2    9    1 1    
     3   40    1 1    
     4    3    2 ar   
     5    7    2 ar   
     6   24    2 1    
     7    4    3 ar   
     8   41    3 1    
     9    5    4 ar   
    10    6    5 ar   
    11   42    5 1    
    12    7    6 ar   
    13   43    6 1    
    14   25    7 1    
    15   10    8 1    
    16   25    8 1    
    17   26    8 2    
    18   22    9 1    
    19   23    9 2    
    20   29   10 1    
    21   32   10 2    
    22   34   11 1    
    23   38   11 1    
    24   44   11 1    
    25   45   11 1    
    26   13   12 1    
    27   14   13 ar   
    28   16   13 ar   
    29   15   14 ar   
    30   46   14 1    
    31   18   15 ar   
    32   47   15 1    
    33   17   16 ar   
    34   48   16 1    
    35   18   17 ar   
    36   49   17 1    
    37   19   18 1    
    38   20   19 1    
    39   50   19 1    
    40   51   19 1    
    41   21   20 2    
    42   22   20 1    
    43   52   22 1    
    44   27   26 1    
    45   28   27 2    
    46   53   27 1    
    47   29   28 1    
    48   30   29 1    
    49   31   30 2    
    50   54   30 1    
    51   32   31 1    
    52   55   31 1    
    53   33   32 1    
    54   34   33 1    
    55   56   33 1    
    56   57   33 1    
    57   35   34 1    
    58   58   34 1    
    59   36   35 1    
    60   59   35 1    
    61   60   35 1    
    62   37   36 1    
    63   61   36 1    
    64   62   36 1    
    65   38   37 1    
    66   39   37 1    
    67   63   37 1    
    68   64   38 1    
    69   65   38 1    
    70   66   39 1    
    71   67   39 1    
    72   68   39 1    
@<TRIPOS>SUBSTRUCTURE
     1 CKK1500     1 GROUP   
@<TRIPOS>SET

