#    Name: 4lek_1DN_1_INTS_M
#    Modification time : Tue Mar 25 10:00:16 2014

@<TRIPOS>MOLECULE
4lek_1DN_1_INTS_M
   79     0     9     0     0
SMALL
NO_CHARGES


@<TRIPOS>ATOM
      1 O          -8.1600   26.6535   -5.1360 O.2       1 ALC1        0.0000 
      2 O          -6.9130   26.7320   -4.5770 O.2       7 ALL1        0.0000 
      3 O          -9.4070   26.5750   -5.6950 O.2       4 ALP1        0.0000 
      4 O          -7.8375   27.5600   -5.6570 O.2       1 ALC1        0.0000 
      5 O          -8.7620   28.3880   -6.7370 O.2       4 ALP1        0.0000 
      6 O          -7.4030   25.6655   -3.5540 O.2       1 ALC1        0.0000 
      7 O          -7.8930   24.5990   -2.5310 O.2       4 ALP1        0.0000 
      8 CA         -4.7905   26.1730   -4.2805 C.3       3 GLC5        0.0000 
      9 CA         -6.0590   27.7870   -4.5420 C.3       9 GLL5        0.0000 
     10 CA         -3.5220   24.5590   -4.0190 C.3       6 GLP5        0.0000 
     11 CA         -6.2510   26.5610   -6.1485 C.3       3 GLC5        0.0000 
     12 CA         -6.4430   25.3350   -7.7550 C.3       6 GLP5        0.0000 
     13 CA         -7.1340   28.2990   -3.4200 C.3       3 GLC5        0.0000 
     14 CA         -8.2090   28.8110   -2.2980 C.3       6 GLP5        0.0000 
     15 N          -7.5930   28.6660   -5.9510 N.am      2 SEC2        0.0000 
     16 N          -6.4240   28.9440   -5.1650 N.am      8 SEL2        0.0000 
     17 N          -8.7620   28.3880   -6.7370 N.am      5 SEP2        0.0000 
     18 CA         -6.9175   29.4260   -3.7285 C.3       3 GLC5        0.0000 
     19 CA         -5.6260   30.0410   -5.1590 C.3       9 GLL5        0.0000 
     20 CA         -7.9005   31.6365   -6.7935 C.3       3 GLC5        0.0000 
     21 CA         -5.9730   31.2410   -5.7860 C.3       9 GLL5        0.0000 
     22 CA         -9.8280   32.0320   -7.8010 C.3       6 GLP5        0.0000 
     23 CA         -3.0455   34.1800   -4.7800 C.3       3 GLC5        0.0000 
     24 CA         -3.9110   32.2160   -5.0930 C.3       9 GLL5        0.0000 
     25 CA         -2.1800   36.1440   -4.4670 C.3       6 GLP5        0.0000 
     26 CA         -4.1570   27.7210   -1.9080 C.3       3 GLC5        0.0000 
     27 CA         -3.9850   28.6620   -3.8010 C.3       9 GLL5        0.0000 
     28 CA         -4.3290   26.7800   -0.0150 C.3       6 GLP5        0.0000 
     29 CA         -3.7535   26.6105   -3.9100 C.3       3 GLC5        0.0000 
     30 CA         -6.0970   28.7365   -3.0495 C.3       3 GLC5        0.0000 
     31 O          -2.5395   27.3035   -2.6230 O.2       1 ALC1        0.0000 
     32 O          -2.8120   28.5130   -3.1490 O.2       7 ALL1        0.0000 
     33 O          -2.2670   26.0940   -2.0970 O.2       4 ALP1        0.0000 
     34 O          -1.6595   29.2740   -3.1405 O.2       1 ALC1        0.0000 
     35 O          -0.5070   30.0350   -3.1320 O.2       4 ALP1        0.0000 
     36 CA         -3.2930   31.0525   -9.5675 C.3       3 GLC5        0.0000 
     37 CA         -2.1880   32.3320   -9.0780 C.3       9 GLL5        0.0000 
     38 CA         -4.3980   29.7730  -10.0570 C.3       6 GLP5        0.0000 
     39 CA         -1.6280   33.4645  -11.7005 C.3       3 GLC5        0.0000 
     40 CA         -1.7930   33.4950   -9.7480 C.3       9 GLL5        0.0000 
     41 CA         -1.4630   33.4340  -13.6530 C.3       6 GLP5        0.0000 
     42 CA         -3.4120   32.2435  -10.2270 C.3       3 GLC5        0.0000 
     43 CA         -5.0310   30.9920  -10.7060 C.3       6 GLP5        0.0000 
     44 CA         -2.6245   35.7895   -7.5220 C.3       3 GLC5        0.0000 
     45 CA         -2.8500   34.7630   -9.2240 C.3       9 GLL5        0.0000 
     46 CA         -2.3990   36.8160   -5.8200 C.3       6 GLP5        0.0000 
     47 CA         -4.3795   36.1915   -6.2390 C.3       3 GLC5        0.0000 
     48 CA         -6.3600   35.5670   -6.6580 C.3       9 GLL5        0.0000 
     49 CA         -5.4870   37.7290   -5.7680 C.3       3 GLC5        0.0000 
     50 CA         -7.2520   36.6090   -6.4070 C.3       9 GLL5        0.0000 
     51 CA         -3.7220   38.8490   -5.1290 C.3       6 GLP5        0.0000 
     52 CA         -7.7460   40.6160   -4.6975 C.3       3 GLC5        0.0000 
     53 CA         -8.7270   38.8920   -5.3900 C.3       9 GLL5        0.0000 
     54 CA         -6.7650   42.3400   -4.0050 C.3       6 GLP5        0.0000 
     55 CA         -7.5190   38.6715   -3.8990 C.3       3 GLC5        0.0000 
     56 CA         -6.3110   38.4510   -2.4080 C.3       6 GLP5        0.0000 
     57 CA         -6.4995   35.2890   -2.9730 C.3       3 GLC5        0.0000 
     58 CA         -7.2910   34.2350   -4.7480 C.3       9 GLL5        0.0000 
     59 CA         -5.7080   36.3430   -1.1980 C.3       6 GLP5        0.0000 
     60 CA         -8.2800   32.6280   -1.7360 C.3       3 GLC5        0.0000 
     61 CA         -8.9170   34.3260   -2.3690 C.3       9 GLL5        0.0000 
     62 CA         -7.6430   30.9300   -1.1030 C.3       6 GLP5        0.0000 
     63 CA        -10.6270   34.0395   -1.1065 C.3       3 GLC5        0.0000 
     64 CA        -12.3370   33.7530    0.1560 C.3       6 GLP5        0.0000 
     65 CA         -7.3125   35.3345   -1.7835 C.3       3 GLC5        0.0000 
     66 CA         -5.9408   31.5895   -7.8895 C.3       3 GLC5        0.0000 
     67 CA         -5.1240   32.3650   -5.7820 C.3       9 GLL5        0.0000 
     68 CA         -6.3330   31.3760   -9.9950 C.3       6 GLP5        0.0000 
     69 CA         -0.3983   32.0777   -9.9025 C.3       3 GLC5        0.0000 
     70 CA          1.1940   31.2420  -10.3920 C.3       6 GLP5        0.0000 
     71 CA         -0.9002   35.3420   -9.6245 C.3       3 GLC5        0.0000 
     72 CA          0.5210   36.5550   -9.7630 C.3       6 GLP5        0.0000 
     73 CA         -8.9515   35.3735   -6.7834 C.3       3 GLC5        0.0000 
     74 CA         -8.1640   36.5100   -5.3550 C.3       9 GLL5        0.0000 
     75 CA        -10.4180   34.4480   -7.6230 C.3       6 GLP5        0.0000 
     76 CA         -7.2423   37.1750   -3.6670 C.3       3 GLC5        0.0000 
     77 CA         -8.6340   33.8509   -6.0291 C.3       3 GLC5        0.0000 
     78 CA         -8.1830   35.2880   -4.4970 C.3       9 GLL5        0.0000 
     79 CA        -10.2100   33.1510   -6.8470 C.3       6 GLP5        0.0000 
@<TRIPOS>BOND
@<TRIPOS>SUBSTRUCTURE
     1 ALC1        1 GROUP        1 X    ALC  0     ROOT ALC X 1
     2 SEC2       15 GROUP        1 X    SEC  0     **** SEC X 2
     3 GLC5        8 GROUP        1 X    GLC  0     **** GLC X 6
     4 ALP1        3 GROUP        1 Y    ALP  0     ROOT ALP Y 8
     5 SEP2       17 GROUP        1 Y    SEP  0     **** SEP Y 9
     6 GLP5       10 GROUP        1 Y    GLP  0     **** GLP Y 13
     7 ALL1        2 GROUP        1 Z    ALL  0     ROOT ALL Z 15
     8 SEL2       16 GROUP        1 Z    SEL  0     **** SEL Z 16
     9 GLL5        9 GROUP        1 Z    GLL  0     **** GLL Z 20
@<TRIPOS>SET

