#    Name: 4lek_1DN_1_ligand
#    Modification time : Tue Mar 25 10:00:16 2014

@<TRIPOS>MOLECULE
4lek_1DN_1_ligand
   47    51     1     0     0
SMALL
NO_CHARGES


@<TRIPOS>ATOM
      1 N12        -6.9130   26.7320   -4.5770 N.pl3     1 1DN202      0.0000 
      2 C3         -6.0590   27.7870   -4.5420 C.ar      1 1DN202      0.0000 
      3 N2         -4.8810   27.6500   -3.8740 N.ar      1 1DN202      0.0000 
      4 N4         -6.4240   28.9440   -5.1650 N.ar      1 1DN202      0.0000 
      5 C5         -5.6260   30.0410   -5.1590 C.ar      1 1DN202      0.0000 
      6 C10        -5.9730   31.2410   -5.7860 C.ar      1 1DN202      0.0000 
      7 C9         -5.1240   32.3650   -5.7820 C.ar      1 1DN202      0.0000 
      8 C8         -3.9110   32.2160   -5.0930 C.ar      1 1DN202      0.0000 
      9 C7         -3.4930   31.0540   -4.4450 C.ar      1 1DN202      0.0000 
     10 C6         -4.3290   29.9480   -4.4610 C.ar      1 1DN202      0.0000 
     11 C1         -3.9850   28.6620   -3.8010 C.ar      1 1DN202      0.0000 
     12 N11        -2.8120   28.5130   -3.1490 N.pl3     1 1DN202      0.0000 
     13 N13        -5.4330   33.5550   -6.3340 N.pl3     1 1DN202      0.0000 
     14 C17        -4.8540   34.1870   -7.3550 C.2       1 1DN202      0.0000 
     15 C22        -3.7300   33.6970   -8.1970 C.2       1 1DN202      0.0000 
     16 N26        -3.2530   32.4390   -8.2120 N.2       1 1DN202      0.0000 
     17 C25        -2.1880   32.3320   -9.0780 C.2       1 1DN202      0.0000 
     18 C24        -1.7930   33.4950   -9.7480 C.2       1 1DN202      0.0000 
     19 S23        -2.8500   34.7630   -9.2240 S.3       1 1DN202      0.0000 
     20 N16        -5.3920   35.4040   -7.5940 N.2       1 1DN202      0.0000 
     21 C15        -6.3600   35.5670   -6.6580 C.ar      1 1DN202      0.0000 
     22 C21        -7.2520   36.6090   -6.4070 C.ar      1 1DN202      0.0000 
     23 C20        -8.1640   36.5100   -5.3550 C.ar      1 1DN202      0.0000 
     24 O29        -9.0510   37.5300   -5.0940 O.3       1 1DN202      0.0000 
     25 C30        -8.7270   38.8920   -5.3900 C.3       1 1DN202      0.0000 
     26 C19        -8.1830   35.2880   -4.4970 C.ar      1 1DN202      0.0000 
     27 C18        -7.2910   34.2350   -4.7480 C.ar      1 1DN202      0.0000 
     28 C14        -6.3790   34.3400   -5.8000 C.ar      1 1DN202      0.0000 
     29 O27        -9.0960   35.2200   -3.4690 O.3       1 1DN202      0.0000 
     30 C28        -8.9170   34.3260   -2.3690 C.3       1 1DN202      0.0000 
     31 H          -6.8492   26.0888   -3.8140 H         1 1DN202      0.0000 
     32 H          -7.5303   26.6915   -5.3627 H         1 1DN202      0.0000 
     33 H          -6.8892   31.3111   -6.2739 H         1 1DN202      0.0000 
     34 H          -3.2619   33.0566   -5.0645 H         1 1DN202      0.0000 
     35 H          -2.5921   31.0222   -3.9711 H         1 1DN202      0.0000 
     36 H          -2.6558   27.6222   -2.7223 H         1 1DN202      0.0000 
     37 H          -2.2037   29.3067   -3.1508 H         1 1DN202      0.0000 
     38 H          -1.7067   31.4585   -9.2301 H         1 1DN202      0.0000 
     39 H          -1.1754   33.7280  -10.3363 H         1 1DN202      0.0000 
     40 H          -7.2384   37.4501   -6.9962 H         1 1DN202      0.0000 
     41 H          -7.3108   33.3970   -4.1626 H         1 1DN202      0.0000 
     42 H          -7.9126   39.1959   -4.8957 H         1 1DN202      0.0000 
     43 H          -8.5461   39.0275   -6.3641 H         1 1DN202      0.0000 
     44 H          -9.4700   39.5131   -5.1407 H         1 1DN202      0.0000 
     45 H          -8.0707   34.5148   -1.8709 H         1 1DN202      0.0000 
     46 H          -9.6662   34.3932   -1.7101 H         1 1DN202      0.0000 
     47 H          -8.8745   33.3728   -2.6682 H         1 1DN202      0.0000 
@<TRIPOS>BOND
     1    2    1 1    
     2   31    1 1    
     3   32    1 1    
     4    3    2 ar   
     5    4    2 ar   
     6   11    3 ar   
     7    5    4 ar   
     8    6    5 ar   
     9   10    5 ar   
    10    7    6 ar   
    11   33    6 1    
    12    8    7 ar   
    13   13    7 1    
    14    9    8 ar   
    15   34    8 1    
    16   10    9 ar   
    17   35    9 1    
    18   11   10 ar   
    19   12   11 1    
    20   36   12 1    
    21   37   12 1    
    22   14   13 1    
    23   28   13 1    
    24   15   14 1    
    25   20   14 2    
    26   16   15 2    
    27   19   15 1    
    28   17   16 1    
    29   18   17 2    
    30   38   17 1    
    31   19   18 1    
    32   39   18 1    
    33   21   20 1    
    34   22   21 ar   
    35   28   21 ar   
    36   23   22 ar   
    37   40   22 1    
    38   24   23 1    
    39   26   23 ar   
    40   25   24 1    
    41   42   25 1    
    42   43   25 1    
    43   44   25 1    
    44   27   26 ar   
    45   29   26 1    
    46   28   27 ar   
    47   41   27 1    
    48   30   29 1    
    49   45   30 1    
    50   46   30 1    
    51   47   30 1    
@<TRIPOS>SUBSTRUCTURE
     1 1DN202      1 GROUP   
@<TRIPOS>SET

