#    Name: 3lw0_CCX_6_INTS_M
#    Modification time : Mon Mar 24 22:23:13 2014

@<TRIPOS>MOLECULE
3lw0_CCX_6_INTS_M
   71     0     9     0     0
SMALL
NO_CHARGES


@<TRIPOS>ATOM
      1 CA         -8.6770  -25.0940    2.1225 C.3       3 GLC5        0.0000 
      2 CA        -10.5570  -25.7830    2.1330 C.3       9 GLL5        0.0000 
      3 CA         -6.7970  -24.4050    2.1120 C.3       6 GLP5        0.0000 
      4 CA         -9.9795  -30.0855    4.5710 C.3       3 GLC5        0.0000 
      5 CA        -10.3450  -28.2230    3.5010 C.3       9 GLL5        0.0000 
      6 CA         -9.6140  -31.9480    5.6410 C.3       6 GLP5        0.0000 
      7 CA         -7.8570  -24.8655   -0.0160 C.3       3 GLC5        0.0000 
      8 CA         -9.3180  -26.0450   -0.8400 C.3       9 GLL5        0.0000 
      9 CA         -6.3960  -23.6860    0.8080 C.3       6 GLP5        0.0000 
     10 CA        -13.0110  -25.5010    4.9430 C.3       3 GLC5        0.0000 
     11 CA        -11.5960  -24.7950    4.1280 C.3       9 GLL5        0.0000 
     12 CA        -14.4260  -26.2070    5.7580 C.3       6 GLP5        0.0000 
     13 CA        -12.0115  -24.7055    6.2910 C.3       3 GLC5        0.0000 
     14 CA        -12.4270  -24.6160    8.4540 C.3       6 GLP5        0.0000 
     15 CA        -10.4255  -23.6835    5.6055 C.3       3 GLC5        0.0000 
     16 CA         -9.2550  -22.5720    7.0830 C.3       6 GLP5        0.0000 
     17 CA        -11.2800  -23.2975    3.0835 C.3       3 GLC5        0.0000 
     18 CA        -10.9640  -21.8000    2.0390 C.3       6 GLP5        0.0000 
     19 CA        -11.5770  -27.6720   -0.9750 C.3       3 GLC5        0.0000 
     20 CA        -10.4490  -26.1010   -1.8750 C.3       9 GLL5        0.0000 
     21 CA        -12.7050  -29.2430   -0.0750 C.3       6 GLP5        0.0000 
     22 CA        -11.6145  -28.6890   -1.7415 C.3       3 GLC5        0.0000 
     23 CA        -10.5240  -28.1350   -3.4080 C.3       9 GLL5        0.0000 
     24 CA        -12.5385  -27.7970   -3.8180 C.3       3 GLC5        0.0000 
     25 CA        -14.5530  -27.4590   -4.2280 C.3       6 GLP5        0.0000 
     26 OD1        -7.9895  -28.4680   -4.8680 O.co2     2 ASC3        0.0000 
     27 OD1        -9.8070  -28.7920   -4.5430 O.co2     8 ASL3        0.0000 
     28 OD1        -6.1720  -28.1440   -5.1930 O.co2     5 ASP3        0.0000 
     29 OD1        -8.8525  -27.9330   -5.2960 O.co2     2 ASC3        0.0000 
     30 OD1        -7.8980  -27.0740   -6.0490 O.co2     5 ASP3        0.0000 
     31 O          -8.8525  -27.9330   -5.2960 O.2       1 ALC1        0.0000 
     32 O          -9.8070  -28.7920   -4.5430 O.2       7 ALL1        0.0000 
     33 O          -7.8980  -27.0740   -6.0490 O.2       4 ALP1        0.0000 
     34 CA        -12.6065  -28.0850   -4.9800 C.3       3 GLC5        0.0000 
     35 CA        -10.6600  -28.7110   -5.7320 C.3       9 GLL5        0.0000 
     36 CA         -6.9960  -33.4795  -14.0650 C.3       3 GLC5        0.0000 
     37 CA         -7.1570  -33.3780  -12.1070 C.3       9 GLL5        0.0000 
     38 CA         -6.8350  -33.5810  -16.0230 C.3       6 GLP5        0.0000 
     39 CA         -7.0435  -34.9605  -10.5170 C.3       3 GLC5        0.0000 
     40 CA         -8.8240  -33.9370  -10.4590 C.3       9 GLL5        0.0000 
     41 CA         -5.2630  -35.9840  -10.5750 C.3       6 GLP5        0.0000 
     42 CA         -7.0145  -35.6535  -11.3960 C.3       3 GLC5        0.0000 
     43 CA         -8.7660  -35.3230  -12.2170 C.3       9 GLL5        0.0000 
     44 CA         -7.6415  -34.7590  -14.7420 C.3       3 GLC5        0.0000 
     45 CA         -8.4480  -35.9370  -13.4610 C.3       9 GLL5        0.0000 
     46 CA         -6.8400  -36.7140  -13.0180 C.3       3 GLC5        0.0000 
     47 CA         -5.2320  -37.4910  -12.5750 C.3       6 GLP5        0.0000 
     48 CA         -8.4305  -27.2925    3.2198 C.3       3 GLC5        0.0000 
     49 CA         -9.8870  -28.0870    2.2080 C.3       9 GLL5        0.0000 
     50 CA         -6.7450  -26.4300    3.5850 C.3       6 GLP5        0.0000 
     51 CA        -11.5918  -24.1750    2.0562 C.3       3 GLC5        0.0000 
     52 CA        -12.3990  -22.5060    1.3210 C.3       6 GLP5        0.0000 
     53 CA        -11.4239  -28.5489    1.3056 C.3       3 GLC5        0.0000 
     54 CA         -9.9940  -26.8860    1.5350 C.3       9 GLL5        0.0000 
     55 CA         -8.8540  -26.4723    3.6878 C.3       3 GLC5        0.0000 
     56 CA        -10.9140  -27.1240    4.1310 C.3       9 GLL5        0.0000 
     57 CA        -10.9763  -28.4850    0.0900 C.3       3 GLC5        0.0000 
     58 CA         -9.4630  -27.0690    0.2790 C.3       9 GLL5        0.0000 
     59 CA         -7.8726  -26.7676    1.3850 C.3       3 GLC5        0.0000 
     60 CA         -9.0320  -28.3850    0.2310 C.3       9 GLL5        0.0000 
     61 CA         -6.3650  -25.8540    2.2010 C.3       6 GLP5        0.0000 
     62 CA        -10.7982  -24.2755   -0.8573 C.3       3 GLC5        0.0000 
     63 CA        -11.7130  -22.4780   -0.3570 C.3       6 GLP5        0.0000 
     64 CA         -8.9216  -25.0460   -2.9114 C.3       3 GLC5        0.0000 
     65 CA         -7.8710  -23.7080   -3.5250 C.3       6 GLP5        0.0000 
     66 CA         -5.1410  -32.5978  -12.3297 C.3       3 GLC5        0.0000 
     67 CA         -6.7550  -32.2890  -11.3320 C.3       9 GLL5        0.0000 
     68 CA         -3.3260  -32.3620  -12.9400 C.3       6 GLP5        0.0000 
     69 CA         -6.2378  -34.5106  -11.0916 C.3       3 GLC5        0.0000 
     70 CA         -6.8055  -30.4790  -11.5297 C.3       3 GLC5        0.0000 
     71 CA         -6.5340  -28.8040  -12.3410 C.3       6 GLP5        0.0000 
@<TRIPOS>BOND
@<TRIPOS>SUBSTRUCTURE
     1 ALC1       31 GROUP        1 X    ALC  0     ROOT ALC X 1
     2 ASC3       26 GROUP        1 X    ASC  0     **** ASC X 3
     3 GLC5        1 GROUP        1 X    GLC  0     **** GLC X 6
     4 ALP1       33 GROUP        1 Y    ALP  0     ROOT ALP Y 8
     5 ASP3       28 GROUP        1 Y    ASP  0     **** ASP Y 10
     6 GLP5        3 GROUP        1 Y    GLP  0     **** GLP Y 13
     7 ALL1       32 GROUP        1 Z    ALL  0     ROOT ALL Z 15
     8 ASL3       27 GROUP        1 Z    ASL  0     **** ASL Z 17
     9 GLL5        2 GROUP        1 Z    GLL  0     **** GLL Z 20
@<TRIPOS>SET

