#    Name: 3lw0_CCX_6_ligand
#    Modification time : Mon Mar 24 22:23:13 2014

@<TRIPOS>MOLECULE
3lw0_CCX_6_ligand
   64    68     1     0     0
SMALL
NO_CHARGES


@<TRIPOS>ATOM
      1 C1         -9.9940  -26.8860    1.5350 C.ar      1 CCX1287     0.0000 
      2 C2         -9.8870  -28.0870    2.2080 C.ar      1 CCX1287     0.0000 
      3 C3        -10.5570  -25.7830    2.1330 C.ar      1 CCX1287     0.0000 
      4 C4        -10.3450  -28.2230    3.5010 C.ar      1 CCX1287     0.0000 
      5 C5        -11.0120  -25.9050    3.4500 C.ar      1 CCX1287     0.0000 
      6 C6        -10.9140  -27.1240    4.1310 C.ar      1 CCX1287     0.0000 
      7 C7         -9.4630  -27.0690    0.2790 C.2       1 CCX1287     0.0000 
      8 C8         -9.0320  -28.3850    0.2310 C.2       1 CCX1287     0.0000 
      9 N9         -9.2990  -28.9910    1.4060 N.pl3     1 CCX1287     0.0000 
     10 C10        -9.3180  -26.0450   -0.8400 C.3       1 CCX1287     0.0000 
     11 C11       -11.5960  -24.7950    4.1280 C.1       1 CCX1287     0.0000 
     12 N12       -12.0560  -23.8940    4.6850 N.1       1 CCX1287     0.0000 
     13 C13       -10.4490  -26.1010   -1.8750 C.3       1 CCX1287     0.0000 
     14 C14       -10.0610  -26.6950   -3.2380 C.3       1 CCX1287     0.0000 
     15 C15       -10.5240  -28.1350   -3.4080 C.3       1 CCX1287     0.0000 
     16 C16        -8.7610  -30.9230   -5.2780 C.3       1 CCX1287     0.0000 
     17 C17        -9.6090  -30.8810   -6.5430 C.3       1 CCX1287     0.0000 
     18 C18        -9.5320  -30.1890   -4.1740 C.3       1 CCX1287     0.0000 
     19 C19       -10.0300  -29.4670   -6.9000 C.3       1 CCX1287     0.0000 
     20 N20        -9.8070  -28.7920   -4.5430 N.4       1 CCX1287     0.0000 
     21 C21       -10.6600  -28.7110   -5.7320 C.3       1 CCX1287     0.0000 
     22 N22        -8.8760  -31.3560   -7.7410 N.am      1 CCX1287     0.0000 
     23 C23        -9.1500  -32.5350   -8.4110 C.2       1 CCX1287     0.0000 
     24 C24        -8.4320  -32.8550   -9.6580 C.ar      1 CCX1287     0.0000 
     25 C25        -7.1570  -33.3780  -12.1070 C.ar      1 CCX1287     0.0000 
     26 C26        -8.1830  -34.1930  -11.6620 C.ar      1 CCX1287     0.0000 
     27 C27        -6.7550  -32.2890  -11.3320 C.ar      1 CCX1287     0.0000 
     28 C28        -8.8240  -33.9370  -10.4590 C.ar      1 CCX1287     0.0000 
     29 C29        -7.3990  -32.0190  -10.1050 C.ar      1 CCX1287     0.0000 
     30 C30        -8.7660  -35.3230  -12.2170 C.2       1 CCX1287     0.0000 
     31 C31        -9.7590  -35.7310  -11.3370 C.2       1 CCX1287     0.0000 
     32 N32        -9.7680  -34.8880  -10.2740 N.pl3     1 CCX1287     0.0000 
     33 C33        -8.4480  -35.9370  -13.4610 C.1       1 CCX1287     0.0000 
     34 N34        -8.2640  -36.3460  -14.5320 N.1       1 CCX1287     0.0000 
     35 O35       -10.0730  -33.2350   -8.0600 O.2       1 CCX1287     0.0000 
     36 H         -10.6451  -24.8976    1.6403 H         1 CCX1287     0.0000 
     37 H         -10.2691  -29.1171    3.9926 H         1 CCX1287     0.0000 
     38 H         -11.2630  -27.2002    5.0926 H         1 CCX1287     0.0000 
     39 H          -8.6069  -28.7879   -0.5376 H         1 CCX1287     0.0000 
     40 H          -9.1025  -29.9067    1.6275 H         1 CCX1287     0.0000 
     41 H          -8.3588  -26.2063   -1.3552 H         1 CCX1287     0.0000 
     42 H          -9.2876  -25.0350   -0.4036 H         1 CCX1287     0.0000 
     43 H         -10.8380  -25.0773   -2.0328 H         1 CCX1287     0.0000 
     44 H         -11.2855  -26.6921   -1.4564 H         1 CCX1287     0.0000 
     45 H          -8.9701  -26.6494   -3.3449 H         1 CCX1287     0.0000 
     46 H         -10.5005  -26.0764   -4.0303 H         1 CCX1287     0.0000 
     47 H         -11.6010  -28.1404   -3.5937 H         1 CCX1287     0.0000 
     48 H         -10.3325  -28.6798   -2.4801 H         1 CCX1287     0.0000 
     49 H          -7.8247  -30.4226   -5.4515 H         1 CCX1287     0.0000 
     50 H          -8.6009  -31.9446   -4.9816 H         1 CCX1287     0.0000 
     51 H         -10.4980  -31.4699   -6.4137 H         1 CCX1287     0.0000 
     52 H          -8.9366  -30.2357   -3.2527 H         1 CCX1287     0.0000 
     53 H         -10.4684  -30.7326   -3.9921 H         1 CCX1287     0.0000 
     54 H         -10.7510  -29.5025   -7.7308 H         1 CCX1287     0.0000 
     55 H          -9.1519  -28.9061   -7.2543 H         1 CCX1287     0.0000 
     56 H          -8.8841  -28.2665   -4.7122 H         1 CCX1287     0.0000 
     57 H         -11.6456  -29.1454   -5.5331 H         1 CCX1287     0.0000 
     58 H         -10.8050  -27.6686   -6.0355 H         1 CCX1287     0.0000 
     59 H          -8.1050  -30.7284   -8.0722 H         1 CCX1287     0.0000 
     60 H          -6.6909  -33.5686  -13.0009 H         1 CCX1287     0.0000 
     61 H          -5.9933  -31.6813  -11.6473 H         1 CCX1287     0.0000 
     62 H          -7.1092  -31.2135   -9.5460 H         1 CCX1287     0.0000 
     63 H         -10.3333  -36.4854  -11.4740 H         1 CCX1287     0.0000 
     64 H         -10.3553  -34.9577   -9.5088 H         1 CCX1287     0.0000 
@<TRIPOS>BOND
     1    2    1 ar   
     2    3    1 ar   
     3    7    1 1    
     4    4    2 ar   
     5    9    2 1    
     6    5    3 ar   
     7   36    3 1    
     8    6    4 ar   
     9   37    4 1    
    10    6    5 ar   
    11   11    5 1    
    12   38    6 1    
    13    8    7 2    
    14   10    7 1    
    15    9    8 1    
    16   39    8 1    
    17   40    9 1    
    18   13   10 1    
    19   41   10 1    
    20   42   10 1    
    21   12   11 3    
    22   14   13 1    
    23   43   13 1    
    24   44   13 1    
    25   15   14 1    
    26   45   14 1    
    27   46   14 1    
    28   20   15 1    
    29   47   15 1    
    30   48   15 1    
    31   17   16 1    
    32   18   16 1    
    33   49   16 1    
    34   50   16 1    
    35   19   17 1    
    36   22   17 1    
    37   51   17 1    
    38   20   18 1    
    39   52   18 1    
    40   53   18 1    
    41   21   19 1    
    42   54   19 1    
    43   55   19 1    
    44   21   20 1    
    45   56   20 1    
    46   57   21 1    
    47   58   21 1    
    48   23   22 am   
    49   59   22 1    
    50   24   23 1    
    51   35   23 2    
    52   28   24 ar   
    53   29   24 ar   
    54   26   25 ar   
    55   27   25 ar   
    56   60   25 1    
    57   28   26 ar   
    58   30   26 1    
    59   29   27 ar   
    60   61   27 1    
    61   32   28 1    
    62   62   29 1    
    63   31   30 2    
    64   33   30 1    
    65   32   31 1    
    66   63   31 1    
    67   64   32 1    
    68   34   33 3    
@<TRIPOS>SUBSTRUCTURE
     1 CCX1287     1 GROUP   
@<TRIPOS>SET

