#    Name: 3ft8_MOJ_1_INTS_M
#    Modification time : Tue Mar 25 06:26:47 2014

@<TRIPOS>MOLECULE
3ft8_MOJ_1_INTS_M
   58     0     6     0     0
SMALL
NO_CHARGES


@<TRIPOS>ATOM
      1 CA          8.2020    9.4670   20.5830 C.3       2 GLC5        0.0000 
      2 CA          8.3260   10.2340   22.3600 C.3       6 GLL5        0.0000 
      3 CA          8.0780    8.7000   18.8060 C.3       4 GLP5        0.0000 
      4 CA          8.8890   11.6715   21.8290 C.3       2 GLC5        0.0000 
      5 CA          9.4520   13.1090   21.2980 C.3       4 GLP5        0.0000 
      6 CA          7.3740   10.9955   25.7310 C.3       2 GLC5        0.0000 
      7 CA          6.8600   11.5880   23.6500 C.3       6 GLL5        0.0000 
      8 CA          7.8880   10.4030   27.8120 C.3       4 GLP5        0.0000 
      9 CA          2.9295   16.7915   25.0055 C.3       2 GLC5        0.0000 
     10 CA          4.2030   15.1320   25.4920 C.3       6 GLL5        0.0000 
     11 CA          1.6560   18.4510   24.5190 C.3       4 GLP5        0.0000 
     12 CA          4.3785   13.2840   22.6905 C.3       2 GLC5        0.0000 
     13 CA          4.3300   13.8980   24.8410 C.3       6 GLL5        0.0000 
     14 CA          4.4270   12.6700   20.5400 C.3       4 GLP5        0.0000 
     15 CA         -1.0520   10.4440   22.7845 C.3       2 GLC5        0.0000 
     16 CA         -1.4580   11.2810   24.7170 C.3       6 GLL5        0.0000 
     17 CA         -0.6460    9.6070   20.8520 C.3       4 GLP5        0.0000 
     18 CA         -2.6065    9.5980   25.4535 C.3       2 GLC5        0.0000 
     19 CA         -3.7550    7.9150   26.1900 C.3       4 GLP5        0.0000 
     20 CA         -1.8225   13.1570   25.4545 C.3       2 GLC5        0.0000 
     21 CA         -2.1870   15.0330   26.1920 C.3       4 GLP5        0.0000 
     22 O          -3.8845   11.9900   24.1100 O.2       1 ALC1        0.0000 
     23 O          -2.5010   11.8300   24.0650 O.2       5 ALL1        0.0000 
     24 O          -5.2680   12.1500   24.1550 O.2       3 ALP1        0.0000 
     25 CA         -1.7570    8.3285   28.9820 C.3       2 GLC5        0.0000 
     26 CA         -0.9440    9.5570   27.9910 C.3       6 GLL5        0.0000 
     27 CA         -2.5700    7.1000   29.9730 C.3       4 GLP5        0.0000 
     28 CA         -1.8955   10.5180   29.5195 C.3       2 GLC5        0.0000 
     29 CA         -2.8470   11.4790   31.0480 C.3       4 GLP5        0.0000 
     30 CA          9.6342    9.9745   22.9280 C.3       2 GLC5        0.0000 
     31 CA          7.1430   10.3840   22.9920 C.3       6 GLL5        0.0000 
     32 CA         11.5340    9.6400   23.1800 C.3       4 GLP5        0.0000 
     33 CA          5.7142   11.8280   21.9305 C.3       2 GLC5        0.0000 
     34 CA          4.7950   11.9615   22.4285 C.3       2 GLC5        0.0000 
     35 CA          5.6620   11.8060   24.3170 C.3       6 GLL5        0.0000 
     36 CA          3.6648   13.1352   26.5363 C.3       2 GLC5        0.0000 
     37 CA          5.4690   13.1210   25.0240 C.3       6 GLL5        0.0000 
     38 CA          2.4300   12.7610   28.1400 C.3       4 GLP5        0.0000 
     39 CA          5.7799   12.0609   26.8384 C.3       2 GLC5        0.0000 
     40 CA          6.4780   13.5900   25.8690 C.3       6 GLL5        0.0000 
     41 CA          5.5380   11.0950   28.4070 C.3       4 GLP5        0.0000 
     42 CA          3.5743   14.0445   27.0243 C.3       2 GLC5        0.0000 
     43 CA          5.2340   15.5240   26.3250 C.3       6 GLL5        0.0000 
     44 CA          4.5508   15.5095   27.9232 C.3       2 GLC5        0.0000 
     45 CA          4.3830   15.6910   29.9380 C.3       4 GLP5        0.0000 
     46 CA          5.0105   11.0550   21.9202 C.3       2 GLC5        0.0000 
     47 CA          4.9790    9.5180   23.6320 C.3       6 GLL5        0.0000 
     48 CA          2.8755   11.4950   26.8167 C.3       2 GLC5        0.0000 
     49 CA          3.2900    9.6380   25.9780 C.3       6 GLL5        0.0000 
     50 CA          4.5935   10.6470   26.8638 C.3       2 GLC5        0.0000 
     51 CA          1.5958   11.6000   26.7462 C.3       2 GLC5        0.0000 
     52 CA          0.6880   10.1230   26.0110 C.3       6 GLL5        0.0000 
     53 CA          0.4320   10.1860   22.6007 C.3       2 GLC5        0.0000 
     54 CA          0.8350   10.7550   24.6940 C.3       6 GLL5        0.0000 
     55 CA         -2.2760    8.8848   26.7527 C.3       2 GLC5        0.0000 
     56 CA         -0.6500   10.1520   26.6400 C.3       6 GLL5        0.0000 
     57 CA          0.4020   10.8607   28.4027 C.3       2 GLC5        0.0000 
     58 CA          1.6010   11.8670   29.4900 C.3       4 GLP5        0.0000 
@<TRIPOS>BOND
@<TRIPOS>SUBSTRUCTURE
     1 ALC1       22 GROUP        1 X    ALC  0     ROOT ALC X 1
     2 GLC5        1 GROUP        1 X    GLC  0     **** GLC X 6
     3 ALP1       24 GROUP        1 Y    ALP  0     ROOT ALP Y 8
     4 GLP5        3 GROUP        1 Y    GLP  0     **** GLP Y 13
     5 ALL1       23 GROUP        1 Z    ALL  0     ROOT ALL Z 15
     6 GLL5        2 GROUP        1 Z    GLL  0     **** GLL Z 20
@<TRIPOS>SET

