#    Name: 3ft8_MOJ_1_ligand
#    Modification time : Tue Mar 25 06:26:47 2014

@<TRIPOS>MOLECULE
3ft8_MOJ_1_ligand
   45    48     1     0     0
SMALL
NO_CHARGES


@<TRIPOS>ATOM
      1 F23         8.3260   10.2340   22.3600 F         1 MOJ237      0.0000 
      2 C14         7.1430   10.3840   22.9920 C.ar      1 MOJ237      0.0000 
      3 C13         6.8600   11.5880   23.6500 C.ar      1 MOJ237      0.0000 
      4 C12         5.6620   11.8060   24.3170 C.ar      1 MOJ237      0.0000 
      5 C17         5.4690   13.1210   25.0240 C.ar      1 MOJ237      0.0000 
      6 C22         6.4780   13.5900   25.8690 C.ar      1 MOJ237      0.0000 
      7 N21         6.3380   14.7650   26.4970 N.ar      1 MOJ237      0.0000 
      8 C20         5.2340   15.5240   26.3250 C.ar      1 MOJ237      0.0000 
      9 C19         4.2030   15.1320   25.4920 C.ar      1 MOJ237      0.0000 
     10 C18         4.3300   13.8980   24.8410 C.ar      1 MOJ237      0.0000 
     11 C15         6.2090    9.3620   22.9690 C.ar      1 MOJ237      0.0000 
     12 C16         4.9790    9.5180   23.6320 C.ar      1 MOJ237      0.0000 
     13 C11         4.6640   10.7000   24.3170 C.ar      1 MOJ237      0.0000 
     14 C9          3.3520   10.8200   25.0090 C.3       1 MOJ237      0.0000 
     15 C8          3.2900    9.6380   25.9780 C.3       1 MOJ237      0.0000 
     16 C7          1.9180    9.4860   26.6280 C.2       1 MOJ237      0.0000 
     17 N24         1.8130    8.7360   27.6370 N.2       1 MOJ237      0.0000 
     18 O25         2.9330    8.1470   28.2360 O.3       1 MOJ237      0.0000 
     19 C2          0.6880   10.1230   26.0110 C.ar      1 MOJ237      0.0000 
     20 C10         2.1850   10.7750   24.0050 C.3       1 MOJ237      0.0000 
     21 C3          0.8350   10.7550   24.6940 C.ar      1 MOJ237      0.0000 
     22 N4         -0.2430   11.3250   24.1240 N.ar      1 MOJ237      0.0000 
     23 C5         -1.4580   11.2810   24.7170 C.ar      1 MOJ237      0.0000 
     24 N27        -2.5010   11.8300   24.0650 N.pl3     1 MOJ237      0.0000 
     25 N6         -1.6590   10.7360   25.9440 N.ar      1 MOJ237      0.0000 
     26 C1         -0.6500   10.1520   26.6400 C.ar      1 MOJ237      0.0000 
     27 C26        -0.9440    9.5570   27.9910 C.3       1 MOJ237      0.0000 
     28 H           7.5785   12.3445   23.6352 H         1 MOJ237      0.0000 
     29 H           7.3274   13.0081   25.9934 H         1 MOJ237      0.0000 
     30 H           5.1437   16.4381   26.8314 H         1 MOJ237      0.0000 
     31 H           3.3842   15.7079   25.3519 H         1 MOJ237      0.0000 
     32 H           3.5743   13.5688   24.2252 H         1 MOJ237      0.0000 
     33 H           6.4057    8.4862   22.4702 H         1 MOJ237      0.0000 
     34 H           4.2940    8.7443   23.6130 H         1 MOJ237      0.0000 
     35 H           3.3154   11.7234   25.5693 H         1 MOJ237      0.0000 
     36 H           4.0451    9.7776   26.7601 H         1 MOJ237      0.0000 
     37 H           3.5347    8.7179   25.4348 H         1 MOJ237      0.0000 
     38 H           2.2931    9.8804   23.3830 H         1 MOJ237      0.0000 
     39 H           2.2512   11.6516   23.3523 H         1 MOJ237      0.0000 
     40 H          -3.3866   11.7747   24.5261 H         1 MOJ237      0.0000 
     41 H          -2.2968   12.2440   23.1779 H         1 MOJ237      0.0000 
     42 H          -0.7562    8.5751   28.0132 H         1 MOJ237      0.0000 
     43 H          -0.3911    9.9775   28.7103 H         1 MOJ237      0.0000 
     44 H          -1.9024    9.6780   28.2495 H         1 MOJ237      0.0000 
     45 H           2.5626    7.4382   28.8363 H         1 MOJ237      0.0000 
@<TRIPOS>BOND
     1    2    1 1    
     2    3    2 ar   
     3   11    2 ar   
     4    4    3 ar   
     5   28    3 1    
     6    5    4 1    
     7   13    4 ar   
     8    6    5 ar   
     9   10    5 ar   
    10    7    6 ar   
    11   29    6 1    
    12    8    7 ar   
    13    9    8 ar   
    14   30    8 1    
    15   10    9 ar   
    16   31    9 1    
    17   32   10 1    
    18   12   11 ar   
    19   33   11 1    
    20   13   12 ar   
    21   34   12 1    
    22   14   13 1    
    23   15   14 1    
    24   20   14 1    
    25   35   14 1    
    26   16   15 1    
    27   36   15 1    
    28   37   15 1    
    29   17   16 2    
    30   19   16 1    
    31   18   17 1    
    32   45   18 1    
    33   21   19 ar   
    34   26   19 ar   
    35   21   20 1    
    36   38   20 1    
    37   39   20 1    
    38   22   21 ar   
    39   23   22 ar   
    40   24   23 1    
    41   25   23 ar   
    42   40   24 1    
    43   41   24 1    
    44   26   25 ar   
    45   27   26 1    
    46   42   27 1    
    47   43   27 1    
    48   44   27 1    
@<TRIPOS>SUBSTRUCTURE
     1 MOJ237      1 GROUP   
@<TRIPOS>SET

