#    Name: 3clb_TMQ_1_INTS_M
#    Modification time : Mon Mar 24 21:47:31 2014

@<TRIPOS>MOLECULE
3clb_TMQ_1_INTS_M
   59     0     9     0     0
SMALL
NO_CHARGES


@<TRIPOS>ATOM
      1 N          22.1135   34.6135   23.1985 N.am      2 SEC2        0.0000 
      2 N          22.9050   35.0330   24.2520 N.am      8 SEL2        0.0000 
      3 N          21.3220   34.1940   22.1450 N.am      5 SEP2        0.0000 
      4 CA         23.5330   33.1745   26.9330 C.3       3 GLC5        0.0000 
      5 CA         23.3370   34.1810   25.1780 C.3       9 GLL5        0.0000 
      6 CA         23.7290   32.1680   28.6880 C.3       6 GLP5        0.0000 
      7 CA         25.2560   33.2790   25.4860 C.3       3 GLC5        0.0000 
      8 CA         27.1750   32.3770   25.7940 C.3       6 GLP5        0.0000 
      9 CA         24.1035   33.7825   23.4820 C.3       3 GLC5        0.0000 
     10 CA         24.8700   33.3840   21.7860 C.3       6 GLP5        0.0000 
     11 CA         21.5820   34.3280   26.1695 C.3       3 GLC5        0.0000 
     12 CA         19.8270   34.4750   27.1610 C.3       6 GLP5        0.0000 
     13 CA         24.0385   34.0510   27.5185 C.3       3 GLC5        0.0000 
     14 CA         24.3480   35.9340   26.3490 C.3       9 GLL5        0.0000 
     15 CA         24.0175   34.8640   23.0575 C.3       3 GLC5        0.0000 
     16 CA         23.1650   36.3440   24.3290 C.3       9 GLL5        0.0000 
     17 CA         24.3190   40.3140   22.4490 C.3       3 GLC5        0.0000 
     18 CA         23.8480   40.4740   24.2750 C.3       9 GLL5        0.0000 
     19 CA         24.7900   40.1540   20.6230 C.3       6 GLP5        0.0000 
     20 CA         19.7205   44.1480   26.0080 C.3       3 GLC5        0.0000 
     21 CA         19.2270   42.6580   24.5700 C.3       9 GLL5        0.0000 
     22 CA         20.2140   45.6380   27.4460 C.3       6 GLP5        0.0000 
     23 CA         19.9350   45.1410   23.9035 C.3       3 GLC5        0.0000 
     24 CA         20.2390   43.1530   23.7440 C.3       9 GLL5        0.0000 
     25 CA         19.6310   47.1290   24.0630 C.3       6 GLP5        0.0000 
     26 CA         25.9070   40.5130   27.0880 C.3       3 GLC5        0.0000 
     27 CA         24.8690   38.8600   26.4590 C.3       9 GLL5        0.0000 
     28 CA         26.9450   42.1660   27.7170 C.3       6 GLP5        0.0000 
     29 CA         26.2120   38.4075   25.8430 C.3       3 GLC5        0.0000 
     30 CA         27.5550   37.9550   25.2270 C.3       6 GLP5        0.0000 
     31 CA         18.5735   39.6790   25.8575 C.3       3 GLC5        0.0000 
     32 CA         18.8840   40.4160   27.4350 C.3       9 GLL5        0.0000 
     33 CA         18.2630   38.9420   24.2800 C.3       6 GLP5        0.0000 
     34 CA         19.7040   39.0270   28.2755 C.3       3 GLC5        0.0000 
     35 CA         20.5240   37.6380   29.1160 C.3       6 GLP5        0.0000 
     36 CA         18.9390   41.4600   28.9305 C.3       3 GLC5        0.0000 
     37 CA         18.9940   42.5040   30.4260 C.3       6 GLP5        0.0000 
     38 CA         17.6705   40.5970   23.9540 C.3       3 GLC5        0.0000 
     39 CA         17.0780   42.2520   23.6280 C.3       9 GLL5        0.0000 
     40 CA         19.7175   45.3335   22.7635 C.3       3 GLC5        0.0000 
     41 CA         19.8040   43.5380   21.4640 C.3       9 GLL5        0.0000 
     42 O          22.1555   32.5515   24.0615 O.2       1 ALC1        0.0000 
     43 O          23.0370   32.8950   25.0360 O.2       7 ALL1        0.0000 
     44 O          21.2740   32.2080   23.0870 O.2       4 ALP1        0.0000 
     45 O          26.2615   37.0795   28.0100 O.2       1 ALC1        0.0000 
     46 O          25.0590   36.3540   27.3910 O.2       7 ALL1        0.0000 
     47 O          27.4640   37.8050   28.6290 O.2       4 ALP1        0.0000 
     48 CA         20.8138   37.9507   23.0807 C.3       3 GLC5        0.0000 
     49 CA         22.9160   38.5110   23.3430 C.3       9 GLL5        0.0000 
     50 CA         18.8320   38.0700   22.8320 C.3       6 GLP5        0.0000 
     51 CA         24.3801   38.5754   22.4032 C.3       3 GLC5        0.0000 
     52 CA         22.6750   37.1520   23.3160 C.3       9 GLL5        0.0000 
     53 CA         25.7840   39.1760   21.2170 C.3       6 GLP5        0.0000 
     54 CA         21.4050   43.0239   26.2886 C.3       3 GLC5        0.0000 
     55 CA         19.5070   41.7270   25.5740 C.3       9 GLL5        0.0000 
     56 CA         22.3990   44.4290   27.1240 C.3       6 GLP5        0.0000 
     57 CA         18.9774   40.5104   24.6971 C.3       3 GLC5        0.0000 
     58 CA         20.8060   41.2720   25.7430 C.3       9 GLL5        0.0000 
     59 CA         21.6487   43.6780   25.4790 C.3       3 GLC5        0.0000 
@<TRIPOS>BOND
@<TRIPOS>SUBSTRUCTURE
     1 ALC1       42 GROUP        1 X    ALC  0     ROOT ALC X 1
     2 SEC2        1 GROUP        1 X    SEC  0     **** SEC X 2
     3 GLC5        4 GROUP        1 X    GLC  0     **** GLC X 6
     4 ALP1       44 GROUP        1 Y    ALP  0     ROOT ALP Y 8
     5 SEP2        3 GROUP        1 Y    SEP  0     **** SEP Y 9
     6 GLP5        6 GROUP        1 Y    GLP  0     **** GLP Y 13
     7 ALL1       43 GROUP        1 Z    ALL  0     ROOT ALL Z 15
     8 SEL2        2 GROUP        1 Z    SEL  0     **** SEL Z 16
     9 GLL5        5 GROUP        1 Z    GLL  0     **** GLL Z 20
@<TRIPOS>SET

