#    Name: 3clb_TMQ_1_ligand
#    Modification time : Mon Mar 24 21:47:31 2014

@<TRIPOS>MOLECULE
3clb_TMQ_1_ligand
   50    52     1     0     0
SMALL
NO_CHARGES


@<TRIPOS>ATOM
      1 N1         22.9050   35.0330   24.2520 N.ar      1 TMQ611      0.0000 
      2 C2         23.3370   34.1810   25.1780 C.ar      1 TMQ611      0.0000 
      3 N3         24.0560   34.6250   26.2250 N.ar      1 TMQ611      0.0000 
      4 C4         24.3480   35.9340   26.3490 C.ar      1 TMQ611      0.0000 
      5 C3A        23.1650   36.3440   24.3290 C.ar      1 TMQ611      0.0000 
      6 C4A        23.9080   36.8740   25.3910 C.ar      1 TMQ611      0.0000 
      7 C5         24.1500   38.2710   25.4190 C.ar      1 TMQ611      0.0000 
      8 C6         23.6390   39.0840   24.3830 C.ar      1 TMQ611      0.0000 
      9 C7         22.9160   38.5110   23.3430 C.ar      1 TMQ611      0.0000 
     10 C8         22.6750   37.1520   23.3160 C.ar      1 TMQ611      0.0000 
     11 C9         23.8480   40.4740   24.2750 C.3       1 TMQ611      0.0000 
     12 N10        23.0530   41.2860   25.1790 N.pl3     1 TMQ611      0.0000 
     13 C11        21.8240   41.7490   24.9220 C.ar      1 TMQ611      0.0000 
     14 C12        20.8060   41.2720   25.7430 C.ar      1 TMQ611      0.0000 
     15 C13        19.5070   41.7270   25.5740 C.ar      1 TMQ611      0.0000 
     16 C14        19.2270   42.6580   24.5700 C.ar      1 TMQ611      0.0000 
     17 C15        20.2390   43.1530   23.7440 C.ar      1 TMQ611      0.0000 
     18 C16        21.5580   42.7010   23.9240 C.ar      1 TMQ611      0.0000 
     19 C17        24.8690   38.8600   26.4590 C.3       1 TMQ611      0.0000 
     20 O18        18.4690   41.2830   26.3450 O.3       1 TMQ611      0.0000 
     21 O19        17.9460   43.1140   24.4040 O.3       1 TMQ611      0.0000 
     22 O20        19.8670   44.0760   22.7980 O.3       1 TMQ611      0.0000 
     23 C21        18.8840   40.4160   27.4350 C.3       1 TMQ611      0.0000 
     24 C22        17.0780   42.2520   23.6280 C.3       1 TMQ611      0.0000 
     25 C23        19.8040   43.5380   21.4640 C.3       1 TMQ611      0.0000 
     26 N24        23.0370   32.8950   25.0360 N.pl3     1 TMQ611      0.0000 
     27 N25        25.0590   36.3540   27.3910 N.pl3     1 TMQ611      0.0000 
     28 H          22.5561   39.1138   22.5822 H         1 TMQ611      0.0000 
     29 H          22.1321   36.7375   22.5451 H         1 TMQ611      0.0000 
     30 H          23.6538   40.8174   23.2180 H         1 TMQ611      0.0000 
     31 H          24.9376   40.7190   24.4354 H         1 TMQ611      0.0000 
     32 H          23.5245   41.5062   26.1083 H         1 TMQ611      0.0000 
     33 H          21.0200   40.5813   26.4751 H         1 TMQ611      0.0000 
     34 H          22.3092   43.0589   23.3391 H         1 TMQ611      0.0000 
     35 H          22.4930   32.6563   24.2316 H         1 TMQ611      0.0000 
     36 H          23.3822   32.2816   25.7463 H         1 TMQ611      0.0000 
     37 H          24.6821   36.1458   28.2935 H         1 TMQ611      0.0000 
     38 H          25.9065   36.8402   27.1782 H         1 TMQ611      0.0000 
     39 H          25.7961   38.4910   26.5251 H         1 TMQ611      0.0000 
     40 H          24.9551   39.8489   26.3375 H         1 TMQ611      0.0000 
     41 H          24.4302   38.7106   27.3451 H         1 TMQ611      0.0000 
     42 H          19.3529   39.5982   27.1012 H         1 TMQ611      0.0000 
     43 H          19.5123   40.8796   28.0598 H         1 TMQ611      0.0000 
     44 H          18.1050   40.1054   27.9797 H         1 TMQ611      0.0000 
     45 H          17.4284   42.1081   22.7025 H         1 TMQ611      0.0000 
     46 H          16.9792   41.3497   24.0475 H         1 TMQ611      0.0000 
     47 H          16.1588   42.6352   23.5371 H         1 TMQ611      0.0000 
     48 H          20.6889   43.1804   21.1656 H         1 TMQ611      0.0000 
     49 H          19.1468   42.7872   21.3970 H         1 TMQ611      0.0000 
     50 H          19.5275   44.2300   20.7971 H         1 TMQ611      0.0000 
@<TRIPOS>BOND
     1    2    1 ar   
     2    5    1 ar   
     3    3    2 ar   
     4   26    2 1    
     5    4    3 ar   
     6    6    4 ar   
     7   27    4 1    
     8    6    5 ar   
     9   10    5 ar   
    10    7    6 ar   
    11    8    7 ar   
    12   19    7 1    
    13    9    8 ar   
    14   11    8 1    
    15   10    9 ar   
    16   28    9 1    
    17   29   10 1    
    18   12   11 1    
    19   30   11 1    
    20   31   11 1    
    21   13   12 1    
    22   32   12 1    
    23   14   13 ar   
    24   18   13 ar   
    25   15   14 ar   
    26   33   14 1    
    27   16   15 ar   
    28   20   15 1    
    29   17   16 ar   
    30   21   16 1    
    31   18   17 ar   
    32   22   17 1    
    33   34   18 1    
    34   39   19 1    
    35   40   19 1    
    36   41   19 1    
    37   23   20 1    
    38   24   21 1    
    39   25   22 1    
    40   42   23 1    
    41   43   23 1    
    42   44   23 1    
    43   45   24 1    
    44   46   24 1    
    45   47   24 1    
    46   48   25 1    
    47   49   25 1    
    48   50   25 1    
    49   35   26 1    
    50   36   26 1    
    51   37   27 1    
    52   38   27 1    
@<TRIPOS>SUBSTRUCTURE
     1 TMQ611      1 GROUP   
@<TRIPOS>SET

