#    Name: 1x7z_TDP_1_INTS_M
#    Modification time : Mon Apr  7 15:07:10 2014

@<TRIPOS>MOLECULE
1x7z_TDP_1_INTS_M
   65     0    15     0     0
SMALL
NO_CHARGES


@<TRIPOS>ATOM
      1 CA         75.7520    2.3085   11.0850 C.3       5 GLC5        0.0000 
      2 CA         77.4630    1.7140   11.9840 C.3      15 GLL5        0.0000 
      3 CA         74.0410    2.9030   10.1860 C.3      10 GLP5        0.0000 
      4 CA         78.1580    3.9380   13.1655 C.3       5 GLC5        0.0000 
      5 CA         77.5940    1.8270   13.5190 C.3      15 GLL5        0.0000 
      6 CA         78.7220    6.0490   12.8120 C.3      10 GLP5        0.0000 
      7 CA         75.9100    3.0635   12.8640 C.3       5 GLC5        0.0000 
      8 CA         74.2260    4.3000   12.2090 C.3      10 GLP5        0.0000 
      9 N          76.9670    4.0680   11.9855 N.am      2 SEC2        0.0000 
     10 N          77.5350    2.8510   11.1960 N.am     12 SEL2        0.0000 
     11 N          76.3990    5.2850   12.7750 N.am      7 SEP2        0.0000 
     12 O          77.7875    5.1070    9.6670 O.2       1 ALC1        0.0000 
     13 O          77.6700    3.8180    9.0470 O.2      11 ALL1        0.0000 
     14 O          77.9050    6.3960   10.2870 O.2       6 ALP1        0.0000 
     15 CA         75.5950    2.0360    8.9215 C.3       5 GLC5        0.0000 
     16 CA         77.1490    1.1690    7.6570 C.3      15 GLL5        0.0000 
     17 CA         74.2295    1.3275    8.9580 C.3       5 GLC5        0.0000 
     18 CA         74.4180   -0.2480    7.7300 C.3      15 GLL5        0.0000 
     19 CA         72.7745    0.8440    5.1450 C.3       5 GLC5        0.0000 
     20 CA         72.1720    1.7680    6.5480 C.3      15 GLL5        0.0000 
     21 CA         73.3770   -0.0800    3.7420 C.3      10 GLP5        0.0000 
     22 N          69.2110    3.3960   10.3770 N.am      2 SEC2        0.0000 
     23 N          69.3060    4.0480    9.0890 N.am     12 SEL2        0.0000 
     24 N          69.1160    2.7440   11.6650 N.am      7 SEP2        0.0000 
     25 Zn         66.9075    3.0660    6.7300 Zn        4 ZIC7        0.0000 
     26 Zn         67.5970    2.9700    7.5390 Zn       14 ZIL7        0.0000 
     27 Zn         66.2180    3.1620    5.9210 Zn        9 ZIP7        0.0000 
     28 N          67.2315    2.4145    8.8425 N.am      2 SEC2        0.0000 
     29 N          67.5970    2.9700    7.5390 N.am     12 SEL2        0.0000 
     30 N          66.8660    1.8590   10.1460 N.am      7 SEP2        0.0000 
     31 NZ         70.5060    5.4760    3.2580 N.4       3 LYC4        0.0000 
     32 NZ         70.2030    4.8260    4.5010 N.4      13 LYL4        0.0000 
     33 NZ         70.2560    7.2890    1.7450 N.4       8 LYP4        0.0000 
     34 N          70.5060    5.4760    3.2580 N.am      2 SEC2        0.0000 
     35 N          70.2030    4.8260    4.5010 N.am     12 SEL2        0.0000 
     36 N          70.8090    6.1260    2.0150 N.am      7 SEP2        0.0000 
     37 Zn         66.9845    3.6075    5.3300 Zn        4 ZIC7        0.0000 
     38 Zn         67.7510    4.0530    4.7390 Zn       14 ZIL7        0.0000 
     39 N          66.7075    4.7235    4.0360 N.am      2 SEC2        0.0000 
     40 N          67.7510    4.0530    4.7390 N.am     12 SEL2        0.0000 
     41 N          65.6640    5.3940    3.3330 N.am      7 SEP2        0.0000 
     42 NZ         68.8680    7.1710    3.7755 N.4       3 LYC4        0.0000 
     43 NZ         68.3180    6.4880    4.9460 N.4      13 LYL4        0.0000 
     44 NZ         68.4590    7.3605    5.9270 N.4       3 LYC4        0.0000 
     45 NZ         67.9670    9.3170    7.1870 N.4       8 LYP4        0.0000 
     46 N          68.8680    7.1710    3.7755 N.am      2 SEC2        0.0000 
     47 N          68.3180    6.4880    4.9460 N.am     12 SEL2        0.0000 
     48 N          69.4180    7.8540    2.6050 N.am      7 SEP2        0.0000 
     49 N          68.4590    7.3605    5.9270 N.am      2 SEC2        0.0000 
     50 N          68.6000    8.2330    6.9080 N.am      7 SEP2        0.0000 
     51 N          66.9910    5.9410    4.1395 N.am      2 SEC2        0.0000 
     52 CA         75.6425    2.0615    9.9750 C.3       5 GLC5        0.0000 
     53 CA         77.2420    1.4460    9.1800 C.3      15 GLL5        0.0000 
     54 CA         74.6210    3.1220    8.2745 C.3       5 GLC5        0.0000 
     55 CA         76.0570    3.0990    6.5760 C.3      15 GLL5        0.0000 
     56 CA         73.6890    1.3622    5.0745 C.3       5 GLC5        0.0000 
     57 CA         73.6570    2.0260    6.6640 C.3      15 GLL5        0.0000 
     58 CA         74.1017    2.2580    8.5563 C.3       5 GLC5        0.0000 
     59 CA         74.6965    0.0190    5.7418 C.3       5 GLC5        0.0000 
     60 CA         74.6680    1.2000    7.1890 C.3      15 GLL5        0.0000 
     61 CA         74.8500   -0.4380    4.0240 C.3      10 GLP5        0.0000 
     62 CA         72.9200    2.6015    8.5800 C.3       5 GLC5        0.0000 
     63 CA         70.3910    0.9255    6.9640 C.3       5 GLC5        0.0000 
     64 CA         71.4260    2.8320    7.4000 C.3      15 GLL5        0.0000 
     65 CA         68.9830   -0.4490    6.9540 C.3      10 GLP5        0.0000 
@<TRIPOS>BOND
@<TRIPOS>SUBSTRUCTURE
     1 ALC1       12 GROUP        1 X    ALC  0     ROOT ALC X 1
     2 SEC2        9 GROUP        1 X    SEC  0     **** SEC X 2
     3 LYC4       31 GROUP        1 X    LYC  0     **** LYC X 4
     4 ZIC7       25 GROUP        1 X    ZIC  0     **** ZIC X 5
     5 GLC5        1 GROUP        1 X    GLC  0     **** GLC X 6
     6 ALP1       14 GROUP        1 Y    ALP  0     ROOT ALP Y 8
     7 SEP2       11 GROUP        1 Y    SEP  0     **** SEP Y 9
     8 LYP4       33 GROUP        1 Y    LYP  0     **** LYP Y 11
     9 ZIP7       27 GROUP        1 Y    ZIP  0     **** ZIP Y 12
    10 GLP5        3 GROUP        1 Y    GLP  0     **** GLP Y 13
    11 ALL1       13 GROUP        1 Z    ALL  0     ROOT ALL Z 15
    12 SEL2       10 GROUP        1 Z    SEL  0     **** SEL Z 16
    13 LYL4       32 GROUP        1 Z    LYL  0     **** LYL Z 18
    14 ZIL7       26 GROUP        1 Z    ZIL  0     **** ZIL Z 19
    15 GLL5        2 GROUP        1 Z    GLL  0     **** GLL Z 20
@<TRIPOS>SET

