#    Name: 1x7z_TDP_1_ligand
#    Modification time : Mon Apr  7 15:07:10 2014

@<TRIPOS>MOLECULE
1x7z_TDP_1_ligand
   42    43     1     0     0
SMALL
NO_CHARGES


@<TRIPOS>ATOM
      1 N1'        77.2570    0.5430   11.3950 N.ar      1 TDP801      0.0000 
      2 C2'        77.4630    1.7140   11.9840 C.ar      1 TDP801      0.0000 
      3 C2A        77.5940    1.8270   13.5190 C.3       1 TDP801      0.0000 
      4 N3'        77.5350    2.8510   11.1960 N.ar      1 TDP801      0.0000 
      5 C4'        77.4960    2.7260    9.7760 C.ar      1 TDP801      0.0000 
      6 N4'        77.6700    3.8180    9.0470 N.pl3     1 TDP801      0.0000 
      7 C5'        77.2420    1.4460    9.1800 C.ar      1 TDP801      0.0000 
      8 C6'        77.1190    0.3540   10.0500 C.ar      1 TDP801      0.0000 
      9 C35        77.1490    1.1690    7.6570 C.3       1 TDP801      0.0000 
     10 N3         75.9150    1.7640    7.1470 N.pl3     1 TDP801      0.0000 
     11 C2         76.0570    3.0990    6.5760 C.2       1 TDP801      0.0000 
     12 S1         74.3450    3.5830    6.1500 S.3       1 TDP801      0.0000 
     13 C5         73.6570    2.0260    6.6640 C.2       1 TDP801      0.0000 
     14 C4         74.6680    1.2000    7.1890 C.2       1 TDP801      0.0000 
     15 C4A        74.4180   -0.2480    7.7300 C.3       1 TDP801      0.0000 
     16 C5A        72.1720    1.7680    6.5480 C.3       1 TDP801      0.0000 
     17 C5B        71.4260    2.8320    7.4000 C.3       1 TDP801      0.0000 
     18 O5G        70.0260    2.6170    7.1660 O.3       1 TDP801      0.0000 
     19 P1         68.9320    3.6240    7.7320 P.3       1 TDP801      0.0000 
     20 O11        69.0660    4.8900    6.7520 O.3       1 TDP801      0.0000 
     21 O12        69.3060    4.0480    9.0890 O.co2     1 TDP801      0.0000 
     22 O13        67.5970    2.9700    7.5390 O.co2     1 TDP801      0.0000 
     23 P2         68.8410    5.0930    5.1730 P.3       1 TDP801      0.0000 
     24 O21        70.2030    4.8260    4.5010 O.co2     1 TDP801      0.0000 
     25 O22        67.7510    4.0530    4.7390 O.co2     1 TDP801      0.0000 
     26 O23        68.3180    6.4880    4.9460 O.co2     1 TDP801      0.0000 
     27 H          77.3687    4.6766    9.4618 H         1 TDP801      0.0000 
     28 H          78.0869    3.6849    8.1479 H         1 TDP801      0.0000 
     29 H          76.9257   -0.5782    9.6610 H         1 TDP801      0.0000 
     30 H          77.1595    0.0933    7.5134 H         1 TDP801      0.0000 
     31 H          78.0239    1.6051    7.1856 H         1 TDP801      0.0000 
     32 H          76.6431    3.6665    6.3986 H         1 TDP801      0.0000 
     33 H          71.9314    0.7907    6.9311 H         1 TDP801      0.0000 
     34 H          71.8548    1.8643    5.5234 H         1 TDP801      0.0000 
     35 H          71.7533    3.8032    7.0667 H         1 TDP801      0.0000 
     36 H          71.6989    2.6731    8.4304 H         1 TDP801      0.0000 
     37 H          78.3615    1.2886   13.8669 H         1 TDP801      0.0000 
     38 H          77.7429    2.7719   13.8105 H         1 TDP801      0.0000 
     39 H          76.7721    1.5020   13.9868 H         1 TDP801      0.0000 
     40 H          74.9207   -0.9333    7.2030 H         1 TDP801      0.0000 
     41 H          74.7048   -0.3430    8.6833 H         1 TDP801      0.0000 
     42 H          73.4507   -0.4981    7.6886 H         1 TDP801      0.0000 
@<TRIPOS>BOND
     1    2    1 ar   
     2    8    1 ar   
     3    3    2 1    
     4    4    2 ar   
     5   37    3 1    
     6   38    3 1    
     7   39    3 1    
     8    5    4 ar   
     9    6    5 1    
    10    7    5 ar   
    11   27    6 1    
    12   28    6 1    
    13    8    7 ar   
    14    9    7 1    
    15   29    8 1    
    16   10    9 1    
    17   30    9 1    
    18   31    9 1    
    19   11   10 2    
    20   14   10 1    
    21   12   11 1    
    22   32   11 1    
    23   13   12 1    
    24   14   13 2    
    25   16   13 1    
    26   15   14 1    
    27   40   15 1    
    28   41   15 1    
    29   42   15 1    
    30   17   16 1    
    31   33   16 1    
    32   34   16 1    
    33   18   17 1    
    34   35   17 1    
    35   36   17 1    
    36   19   18 1    
    37   20   19 1    
    38   21   19 ar   
    39   22   19 ar   
    40   23   20 1    
    41   24   23 ar   
    42   25   23 ar   
    43   26   23 ar   
@<TRIPOS>SUBSTRUCTURE
     1 TDP801      1 GROUP   
@<TRIPOS>SET

