#    Name: 2yi7_BZ8_1_INTS_M
#    Modification time : Tue Mar 25 09:20:27 2014

@<TRIPOS>MOLECULE
2yi7_BZ8_1_INTS_M
   56     0     9     0     0
SMALL
NO_CHARGES


@<TRIPOS>ATOM
      1 N          29.3130   11.3705   27.4470 N.am      2 SEC2        0.0000 
      2 N          29.8940   10.0360   27.1790 N.am      8 SEL2        0.0000 
      3 N          28.7320   12.7050   27.7150 N.am      5 SEP2        0.0000 
      4 CA         29.4775   11.5355   26.3390 C.3       3 GLC5        0.0000 
      5 CA         30.6790    9.6670   26.1280 C.3       9 GLL5        0.0000 
      6 CA         28.2760   13.4040   26.5500 C.3       6 GLP5        0.0000 
      7 CA         31.2730    5.3420   22.7975 C.3       3 GLC5        0.0000 
      8 CA         32.7060    6.7480   23.3680 C.3       9 GLL5        0.0000 
      9 CA         29.8400    3.9360   22.2270 C.3       6 GLP5        0.0000 
     10 CA         29.7670    7.4665   24.8950 C.3       3 GLC5        0.0000 
     11 CA         31.8840    7.4880   24.2010 C.3       9 GLL5        0.0000 
     12 CA         27.6500    7.4450   25.5890 C.3       6 GLP5        0.0000 
     13 CA         30.6375   13.9425   22.3590 C.3       3 GLC5        0.0000 
     14 CA         30.9030   11.9560   22.5330 C.3       9 GLL5        0.0000 
     15 CA         30.3720   15.9290   22.1850 C.3       6 GLP5        0.0000 
     16 O          27.3445   10.9735   24.1745 O.2       1 ALC1        0.0000 
     17 O          28.4160   10.4180   24.6800 O.2       7 ALL1        0.0000 
     18 O          26.2730   11.5290   23.6690 O.2       4 ALP1        0.0000 
     19 CA         29.2870    7.7110   26.7710 C.3       3 GLC5        0.0000 
     20 CA         30.9240    7.9770   27.9530 C.3       9 GLL5        0.0000 
     21 CA         29.6255    7.0855   28.7925 C.3       3 GLC5        0.0000 
     22 CA         28.3270    6.1940   29.6320 C.3       6 GLP5        0.0000 
     23 CA         32.4585   10.6380   21.6640 C.3       3 GLC5        0.0000 
     24 CA         33.5760   12.2560   22.7250 C.3       9 GLL5        0.0000 
     25 CA         31.3410    9.0200   20.6030 C.3       6 GLP5        0.0000 
     26 CA         34.8315   13.5110   23.9635 C.3       3 GLC5        0.0000 
     27 CA         36.0870   14.7660   25.2020 C.3       6 GLP5        0.0000 
     28 CA         34.4330   13.3695   21.8180 C.3       3 GLC5        0.0000 
     29 CA         35.2900   14.4830   20.9110 C.3       6 GLP5        0.0000 
     30 CA         37.5865    4.6150   20.0210 C.3       3 GLC5        0.0000 
     31 CA         35.7260    4.6000   21.0860 C.3       9 GLL5        0.0000 
     32 CA         39.4470    4.6300   18.9560 C.3       6 GLP5        0.0000 
     33 CA         29.3450    8.2603   25.9087 C.3       3 GLC5        0.0000 
     34 CA         31.4010    8.4840   26.3290 C.3       9 GLL5        0.0000 
     35 CA         31.9642    9.4413   28.2470 C.3       3 GLC5        0.0000 
     36 CA         32.7660   10.6520   29.3530 C.3       6 GLP5        0.0000 
     37 CA         28.9360    9.0380   25.0867 C.3       3 GLC5        0.0000 
     38 CA         30.7760   10.4410   24.9340 C.3       9 GLL5        0.0000 
     39 CA         29.8320   12.3800   25.1928 C.3       3 GLC5        0.0000 
     40 CA         29.6680   10.8210   24.2350 C.3       9 GLL5        0.0000 
     41 CA         29.4420   14.1290   25.8010 C.3       6 GLP5        0.0000 
     42 CA         35.6400    7.5107   26.6670 C.3       3 GLC5        0.0000 
     43 CA         33.5610    7.3940   25.9190 C.3       9 GLL5        0.0000 
     44 CA         37.2880    7.9660   27.8750 C.3       6 GLP5        0.0000 
     45 CA         31.8180    8.0690   22.1938 C.3       3 GLC5        0.0000 
     46 CA         30.5033   10.0943   22.1127 C.3       3 GLC5        0.0000 
     47 CA         28.2762   10.0587   22.5583 C.3       3 GLC5        0.0000 
     48 CA         29.6630   11.5160   23.0100 C.3       9 GLL5        0.0000 
     49 CA         26.8870    8.9490   21.4940 C.3       6 GLP5        0.0000 
     50 CA         29.8625   12.9325   24.2863 C.3       3 GLC5        0.0000 
     51 CA         30.7235   12.6985   24.8195 C.3       3 GLC5        0.0000 
     52 CA         31.9960   11.6330   23.2480 C.3       9 GLL5        0.0000 
     53 CA         31.5364   10.1844   22.1311 C.3       3 GLC5        0.0000 
     54 CA         32.0140   10.9030   24.4280 C.3       9 GLL5        0.0000 
     55 CA         32.0149   11.5998   26.2848 C.3       3 GLC5        0.0000 
     56 CA         32.6590   12.7210   27.5900 C.3       6 GLP5        0.0000 
@<TRIPOS>BOND
@<TRIPOS>SUBSTRUCTURE
     1 ALC1       16 GROUP        1 X    ALC  0     ROOT ALC X 1
     2 SEC2        1 GROUP        1 X    SEC  0     **** SEC X 2
     3 GLC5        4 GROUP        1 X    GLC  0     **** GLC X 6
     4 ALP1       18 GROUP        1 Y    ALP  0     ROOT ALP Y 8
     5 SEP2        3 GROUP        1 Y    SEP  0     **** SEP Y 9
     6 GLP5        6 GROUP        1 Y    GLP  0     **** GLP Y 13
     7 ALL1       17 GROUP        1 Z    ALL  0     ROOT ALL Z 15
     8 SEL2        2 GROUP        1 Z    SEL  0     **** SEL Z 16
     9 GLL5        5 GROUP        1 Z    GLL  0     **** GLL Z 20
@<TRIPOS>SET

