#    Name: 2yi7_BZ8_1_ligand
#    Modification time : Tue Mar 25 09:20:27 2014

@<TRIPOS>MOLECULE
2yi7_BZ8_1_ligand
   36    38     1     0     0
SMALL
NO_CHARGES


@<TRIPOS>ATOM
      1 N1         29.9550    9.2310   28.1610 N.2       1 BZ81225     0.0000 
      2 N2         29.8940   10.0360   27.1790 N.2       1 BZ81225     0.0000 
      3 C3         30.6790    9.6670   26.1280 C.2       1 BZ81225     0.0000 
      4 C4         31.4010    8.4840   26.3290 C.2       1 BZ81225     0.0000 
      5 C6         30.7760   10.4410   24.9340 C.ar      1 BZ81225     0.0000 
      6 C7         32.2820    7.7630   25.5100 C.ar      1 BZ81225     0.0000 
      7 C16        33.5610    7.3940   25.9190 C.ar      1 BZ81225     0.0000 
      8 C15        34.4230    6.7170   24.9990 C.ar      1 BZ81225     0.0000 
      9 C14        33.9660    6.4300   23.6960 C.ar      1 BZ81225     0.0000 
     10 C13        32.7060    6.7480   23.3680 C.ar      1 BZ81225     0.0000 
     11 C12        31.8840    7.4880   24.2010 C.ar      1 BZ81225     0.0000 
     12 C21        29.6680   10.8210   24.2350 C.ar      1 BZ81225     0.0000 
     13 C22        29.6630   11.5160   23.0100 C.ar      1 BZ81225     0.0000 
     14 C23        30.9030   11.9560   22.5330 C.ar      1 BZ81225     0.0000 
     15 C24        31.9960   11.6330   23.2480 C.ar      1 BZ81225     0.0000 
     16 C25        32.0140   10.9030   24.4280 C.ar      1 BZ81225     0.0000 
     17 O29        31.0130   12.5680   21.3180 O.3       1 BZ81225     0.0000 
     18 O30        28.4160   10.4180   24.6800 O.3       1 BZ81225     0.0000 
     19 O33        34.9240    5.7370   22.9910 O.3       1 BZ81225     0.0000 
     20 S1         30.9240    7.9770   27.9530 S.3       1 BZ81225     0.0000 
     21 C34        34.5470    5.3840   21.6320 C.3       1 BZ81225     0.0000 
     22 CL         33.5760   12.2560   22.7250 Cl        1 BZ81225     0.0000 
     23 CAA        35.7260    4.6000   21.0860 C.3       1 BZ81225     0.0000 
     24 H          33.8951    7.5956   26.8577 H         1 BZ81225     0.0000 
     25 H          35.3580    6.4483   25.2919 H         1 BZ81225     0.0000 
     26 H          32.3077    6.4311   22.4436 H         1 BZ81225     0.0000 
     27 H          30.9788    7.8373   23.8595 H         1 BZ81225     0.0000 
     28 H          28.8136   11.6845   22.5093 H         1 BZ81225     0.0000 
     29 H          32.8726   10.7020   24.9174 H         1 BZ81225     0.0000 
     30 H          34.4010    6.2592   21.0247 H         1 BZ81225     0.0000 
     31 H          33.6750    4.7551   21.6168 H         1 BZ81225     0.0000 
     32 H          36.5655    5.1434   21.0863 H         1 BZ81225     0.0000 
     33 H          35.9083    3.7787   21.6266 H         1 BZ81225     0.0000 
     34 H          35.5699    4.3022   20.1442 H         1 BZ81225     0.0000 
     35 H          31.5864   13.3704   21.4835 H         1 BZ81225     0.0000 
     36 H          27.7677   11.0042   24.1941 H         1 BZ81225     0.0000 
@<TRIPOS>BOND
     1    2    1 2    
     2   20    1 1    
     3    3    2 1    
     4    4    3 2    
     5    5    3 1    
     6    6    4 1    
     7   20    4 1    
     8   12    5 ar   
     9   16    5 ar   
    10    7    6 ar   
    11   11    6 ar   
    12    8    7 ar   
    13   24    7 1    
    14    9    8 ar   
    15   25    8 1    
    16   10    9 ar   
    17   19    9 1    
    18   11   10 ar   
    19   26   10 1    
    20   27   11 1    
    21   13   12 ar   
    22   18   12 1    
    23   14   13 ar   
    24   28   13 1    
    25   15   14 ar   
    26   17   14 1    
    27   16   15 ar   
    28   22   15 1    
    29   29   16 1    
    30   35   17 1    
    31   36   18 1    
    32   21   19 1    
    33   23   21 1    
    34   30   21 1    
    35   31   21 1    
    36   32   23 1    
    37   33   23 1    
    38   34   23 1    
@<TRIPOS>SUBSTRUCTURE
     1 BZ81225     1 GROUP   
@<TRIPOS>SET

