#    Name: 3mne_DEX_1_INTS_M
#    Modification time : Mon Mar 24 23:27:59 2014

@<TRIPOS>MOLECULE
3mne_DEX_1_INTS_M
   80     0     9     0     0
SMALL
NO_CHARGES


@<TRIPOS>ATOM
      1 CA        -24.6360   26.4900    8.1365 C.3       3 GLC5        0.0000 
      2 CA        -26.5440   26.7040    7.1940 C.3       9 GLL5        0.0000 
      3 CA        -22.7280   26.2760    9.0790 C.3       6 GLP5        0.0000 
      4 CA        -27.6405   23.5020    4.7510 C.3       3 GLC5        0.0000 
      5 CA        -27.5330   25.4800    5.0510 C.3       9 GLL5        0.0000 
      6 CA        -27.7480   21.5240    4.4510 C.3       6 GLP5        0.0000 
      7 CA        -29.2955   26.8815    3.4290 C.3       3 GLC5        0.0000 
      8 CA        -30.0200   25.4940    4.4730 C.3       9 GLL5        0.0000 
      9 CA        -28.5710   28.2690    2.3850 C.3       6 GLP5        0.0000 
     10 CA        -29.7755   24.8905    2.5870 C.3       3 GLC5        0.0000 
     11 CA        -29.5310   24.2870    0.7010 C.3       6 GLP5        0.0000 
     12 CA        -31.5100   22.9260    6.4035 C.3       3 GLC5        0.0000 
     13 CA        -31.0700   24.7340    5.4090 C.3       9 GLL5        0.0000 
     14 CA        -31.9500   21.1180    7.3980 C.3       6 GLP5        0.0000 
     15 CA        -32.4830   23.7905    3.9440 C.3       3 GLC5        0.0000 
     16 CA        -33.8960   22.8470    2.4790 C.3       6 GLP5        0.0000 
     17 CA        -32.4105   26.3595    5.2455 C.3       3 GLC5        0.0000 
     18 CA        -31.3560   25.6230    6.7540 C.3       9 GLL5        0.0000 
     19 CA        -33.4650   27.0960    3.7370 C.3       6 GLP5        0.0000 
     20 CA        -29.7410   27.9875   10.5165 C.3       3 GLC5        0.0000 
     21 CA        -30.2380   26.6780    9.0630 C.3       9 GLL5        0.0000 
     22 CA        -29.2440   29.2970   11.9700 C.3       6 GLP5        0.0000 
     23 CA        -29.9170   25.4710   10.7170 C.3       3 GLC5        0.0000 
     24 CA        -31.4940   26.0190    9.8330 C.3       9 GLL5        0.0000 
     25 CA        -28.3400   24.9230   11.6010 C.3       6 GLP5        0.0000 
     26 CA        -34.0970   26.1605    5.9540 C.3       3 GLC5        0.0000 
     27 CA        -33.7050   24.5000    6.8930 C.3       9 GLL5        0.0000 
     28 CA        -34.4890   27.8210    5.0150 C.3       6 GLP5        0.0000 
     29 CA        -34.8165   24.2245    5.2950 C.3       3 GLC5        0.0000 
     30 CA        -35.9280   23.9490    3.6970 C.3       6 GLP5        0.0000 
     31 CA        -33.9270   27.4710    6.8805 C.3       3 GLC5        0.0000 
     32 CA        -33.3650   27.1210    8.7460 C.3       9 GLL5        0.0000 
     33 CA        -35.2340   27.8210    8.1250 C.3       3 GLC5        0.0000 
     34 CA        -37.1030   28.5210    7.5040 C.3       6 GLP5        0.0000 
     35 CA        -28.1390   29.2370    7.0745 C.3       3 GLC5        0.0000 
     36 CA        -29.5590   28.1430    6.1000 C.3       9 GLL5        0.0000 
     37 CA        -26.7190   30.3310    8.0490 C.3       6 GLP5        0.0000 
     38 CA        -30.7805   29.5345    5.4775 C.3       3 GLC5        0.0000 
     39 CA        -32.0020   30.9260    4.8550 C.3       6 GLP5        0.0000 
     40 CA        -29.0650   28.2060    4.2425 C.3       3 GLC5        0.0000 
     41 CA        -34.9915   24.3480   13.1390 C.3       3 GLC5        0.0000 
     42 CA        -34.1490   25.2760   12.0640 C.3       9 GLL5        0.0000 
     43 CA        -35.8340   23.4200   14.2140 C.3       6 GLP5        0.0000 
     44 CA        -35.3615   21.1515    8.8645 C.3       3 GLC5        0.0000 
     45 CA        -35.1190   22.8780    8.4150 C.3       9 GLL5        0.0000 
     46 CA        -35.6040   19.4250    9.3140 C.3       6 GLP5        0.0000 
     47 CA        -35.0795   22.2610    6.4010 C.3       3 GLC5        0.0000 
     48 CA        -35.0400   21.6440    4.3870 C.3       6 GLP5        0.0000 
     49 CA        -28.3960   23.4405    7.8300 C.3       3 GLC5        0.0000 
     50 CA        -29.5430   24.6040    7.8340 C.3       9 GLL5        0.0000 
     51 CA        -27.2490   22.2770    7.8260 C.3       6 GLP5        0.0000 
     52 CA        -30.7465   22.8610    7.6160 C.3       3 GLC5        0.0000 
     53 N         -24.9965   26.8925    5.3720 N.am      2 SEC2        0.0000 
     54 N         -25.2520   25.4950    5.6090 N.am      8 SEL2        0.0000 
     55 N         -24.7410   28.2900    5.1350 N.am      5 SEP2        0.0000 
     56 N         -24.1500   24.9310    4.7860 N.am      2 SEC2        0.0000 
     57 N         -23.0480   24.3670    3.9630 N.am      5 SEP2        0.0000 
     58 O         -31.3240   28.3330   10.1425 O.2       1 ALC1        0.0000 
     59 O         -30.7190   28.0520    8.9020 O.2       7 ALL1        0.0000 
     60 O         -31.9290   28.6140   11.3830 O.2       4 ALP1        0.0000 
     61 O         -33.8690   22.4805   10.7310 O.2       1 ALC1        0.0000 
     62 O         -33.1540   23.4770   10.1400 O.2       7 ALL1        0.0000 
     63 O         -34.5840   21.4840   11.3220 O.2       4 ALP1        0.0000 
     64 N         -33.5990   27.6290   13.1380 N.am      2 SEC2        0.0000 
     65 N         -34.6330   26.4800   12.7500 N.am      8 SEL2        0.0000 
     66 N         -32.5650   28.7780   13.5260 N.am      5 SEP2        0.0000 
     67 O         -36.0100   26.9935   12.7515 O.2       1 ALC1        0.0000 
     68 O         -34.6330   26.4800   12.7500 O.2       7 ALL1        0.0000 
     69 O         -37.3870   27.5070   12.7530 O.2       4 ALP1        0.0000 
     70 CA        -26.9508   28.6115    7.6980 C.3       3 GLC5        0.0000 
     71 CA        -27.8210   27.0800    7.5000 C.3       9 GLL5        0.0000 
     72 CA        -28.3715   26.9765    3.8015 C.3       3 GLC5        0.0000 
     73 CA        -28.8110   25.8880    5.3850 C.3       9 GLL5        0.0000 
     74 CA        -32.0050   26.1050    4.3390 C.3       3 GLC5        0.0000 
     75 CA        -32.4982   22.8802    7.3428 C.3       3 GLC5        0.0000 
     76 CA        -32.3880   24.7850    7.6820 C.3       9 GLL5        0.0000 
     77 CA        -36.6013   23.6015    8.7115 C.3       3 GLC5        0.0000 
     78 CA        -38.3170   23.6070    9.1290 C.3       6 GLP5        0.0000 
     79 CA        -33.3065   22.3989    8.0070 C.3       3 GLC5        0.0000 
     80 CA        -29.0907   25.1911    9.8499 C.3       3 GLC5        0.0000 
@<TRIPOS>BOND
@<TRIPOS>SUBSTRUCTURE
     1 ALC1       58 GROUP        1 X    ALC  0     ROOT ALC X 1
     2 SEC2       53 GROUP        1 X    SEC  0     **** SEC X 2
     3 GLC5        1 GROUP        1 X    GLC  0     **** GLC X 6
     4 ALP1       60 GROUP        1 Y    ALP  0     ROOT ALP Y 8
     5 SEP2       55 GROUP        1 Y    SEP  0     **** SEP Y 9
     6 GLP5        3 GROUP        1 Y    GLP  0     **** GLP Y 13
     7 ALL1       59 GROUP        1 Z    ALL  0     ROOT ALL Z 15
     8 SEL2       54 GROUP        1 Z    SEL  0     **** SEL Z 16
     9 GLL5        2 GROUP        1 Z    GLL  0     **** GLL Z 20
@<TRIPOS>SET

