#    Name: 3mne_DEX_1_ligand
#    Modification time : Mon Mar 24 23:27:59 2014

@<TRIPOS>MOLECULE
3mne_DEX_1_ligand
   57    60     1     0     0
SMALL
NO_CHARGES


@<TRIPOS>ATOM
      1 C1        -27.8210   27.0800    7.5000 C.2       1 DEX784      0.0000 
      2 C2        -26.5440   26.7040    7.1940 C.2       1 DEX784      0.0000 
      3 C3        -26.3780   25.8740    5.9260 C.2       1 DEX784      0.0000 
      4 C4        -27.5330   25.4800    5.0510 C.2       1 DEX784      0.0000 
      5 C5        -28.8110   25.8880    5.3850 C.2       1 DEX784      0.0000 
      6 C6        -30.0200   25.4940    4.4730 C.3       1 DEX784      0.0000 
      7 C7        -31.0700   24.7340    5.4090 C.3       1 DEX784      0.0000 
      8 C8        -31.3560   25.6230    6.7540 C.3       1 DEX784      0.0000 
      9 C9        -30.0420   25.9510    7.6640 C.3       1 DEX784      0.0000 
     10 C10       -29.0710   26.7300    6.6490 C.3       1 DEX784      0.0000 
     11 C11       -30.2380   26.6780    9.0630 C.3       1 DEX784      0.0000 
     12 C12       -31.4940   26.0190    9.8330 C.3       1 DEX784      0.0000 
     13 C13       -32.7400   25.6910    8.8490 C.3       1 DEX784      0.0000 
     14 C14       -32.3880   24.7850    7.6820 C.3       1 DEX784      0.0000 
     15 C15       -33.7050   24.5000    6.8930 C.3       1 DEX784      0.0000 
     16 C16       -34.6520   24.3140    8.1730 C.3       1 DEX784      0.0000 
     17 C17       -33.7620   24.6490    9.4610 C.3       1 DEX784      0.0000 
     18 C18       -33.3650   27.1210    8.7460 C.3       1 DEX784      0.0000 
     19 C19       -29.5590   28.1430    6.1000 C.3       1 DEX784      0.0000 
     20 C20       -34.5430   25.3680   10.6080 C.2       1 DEX784      0.0000 
     21 C21       -34.1490   25.2760   12.0640 C.3       1 DEX784      0.0000 
     22 C22       -35.1190   22.8780    8.4150 C.3       1 DEX784      0.0000 
     23 F1        -29.5430   24.6040    7.8340 F         1 DEX784      0.0000 
     24 O1        -25.2520   25.4950    5.6090 O.2       1 DEX784      0.0000 
     25 O2        -30.7190   28.0520    8.9020 O.3       1 DEX784      0.0000 
     26 O3        -33.1540   23.4770   10.1400 O.3       1 DEX784      0.0000 
     27 O4        -35.7450   25.7150   10.4430 O.2       1 DEX784      0.0000 
     28 O5        -34.6330   26.4800   12.7500 O.3       1 DEX784      0.0000 
     29 H         -28.0482   27.6424    8.3483 H         1 DEX784      0.0000 
     30 H         -25.7328   26.9160    7.7085 H         1 DEX784      0.0000 
     31 H         -27.3229   24.9212    4.2375 H         1 DEX784      0.0000 
     32 H         -29.6972   24.8238    3.7186 H         1 DEX784      0.0000 
     33 H         -30.4821   26.3680    4.0920 H         1 DEX784      0.0000 
     34 H         -30.6589   23.8012    5.7161 H         1 DEX784      0.0000 
     35 H         -31.9922   24.6242    4.8885 H         1 DEX784      0.0000 
     36 H         -31.8309   26.5213    6.4851 H         1 DEX784      0.0000 
     37 H         -29.4190   26.5932    9.6625 H         1 DEX784      0.0000 
     38 H         -31.8338   26.7106   10.5884 H         1 DEX784      0.0000 
     39 H         -31.1708   25.0951   10.2873 H         1 DEX784      0.0000 
     40 H         -31.9361   23.9176    7.9922 H         1 DEX784      0.0000 
     41 H         -33.6380   23.6037    6.4060 H         1 DEX784      0.0000 
     42 H         -34.0026   25.3377    6.3883 H         1 DEX784      0.0000 
     43 H         -35.4379   24.9861    8.1499 H         1 DEX784      0.0000 
     44 H         -33.0666   25.2035   12.1328 H         1 DEX784      0.0000 
     45 H         -34.5949   24.3830   12.4945 H         1 DEX784      0.0000 
     46 H         -32.6759   27.8128    8.5302 H         1 DEX784      0.0000 
     47 H         -34.0635   27.1705    8.0321 H         1 DEX784      0.0000 
     48 H         -33.8008   27.3984    9.6022 H         1 DEX784      0.0000 
     49 H         -28.8551   28.5903    5.5482 H         1 DEX784      0.0000 
     50 H         -30.3721   28.0571    5.5242 H         1 DEX784      0.0000 
     51 H         -29.7912   28.7702    6.8434 H         1 DEX784      0.0000 
     52 H         -34.3490   22.2559    8.5567 H         1 DEX784      0.0000 
     53 H         -35.7041   22.8089    9.2230 H         1 DEX784      0.0000 
     54 H         -35.6441   22.5229    7.6416 H         1 DEX784      0.0000 
     55 H         -31.1451   28.2811    9.7772 H         1 DEX784      0.0000 
     56 H         -33.9292   22.9365   10.4669 H         1 DEX784      0.0000 
     57 H         -35.6097   26.5225   12.5398 H         1 DEX784      0.0000 
@<TRIPOS>BOND
     1    2    1 2    
     2   10    1 1    
     3   29    1 1    
     4    3    2 1    
     5   30    2 1    
     6    4    3 1    
     7   24    3 2    
     8    5    4 2    
     9   31    4 1    
    10    6    5 1    
    11   10    5 1    
    12    7    6 1    
    13   32    6 1    
    14   33    6 1    
    15    8    7 1    
    16   34    7 1    
    17   35    7 1    
    18    9    8 1    
    19   14    8 1    
    20   36    8 1    
    21   10    9 1    
    22   11    9 1    
    23   23    9 1    
    24   19   10 1    
    25   12   11 1    
    26   25   11 1    
    27   37   11 1    
    28   13   12 1    
    29   38   12 1    
    30   39   12 1    
    31   14   13 1    
    32   17   13 1    
    33   18   13 1    
    34   15   14 1    
    35   40   14 1    
    36   16   15 1    
    37   41   15 1    
    38   42   15 1    
    39   17   16 1    
    40   22   16 1    
    41   43   16 1    
    42   20   17 1    
    43   26   17 1    
    44   46   18 1    
    45   47   18 1    
    46   48   18 1    
    47   49   19 1    
    48   50   19 1    
    49   51   19 1    
    50   21   20 1    
    51   27   20 2    
    52   28   21 1    
    53   44   21 1    
    54   45   21 1    
    55   52   22 1    
    56   53   22 1    
    57   54   22 1    
    58   55   25 1    
    59   56   26 1    
    60   57   28 1    
@<TRIPOS>SUBSTRUCTURE
     1 DEX784      1 GROUP   
@<TRIPOS>SET

