#    Name: 4oty_LUR_1_INTS_M
#    Modification time : Tue Mar 25 13:39:09 2014

@<TRIPOS>MOLECULE
4oty_LUR_1_INTS_M
   68     0     6     0     0
SMALL
NO_CHARGES


@<TRIPOS>ATOM
      1 N         -18.2545   37.3720   27.0575 N.am      1 SEC2        0.0000 
      2 N         -17.6450   38.1710   27.9330 N.am      5 SEL2        0.0000 
      3 N         -18.8640   36.5730   26.1820 N.am      3 SEP2        0.0000 
      4 N         -16.9830   39.2670   29.1130 N.am      1 SEC2        0.0000 
      5 N         -16.3210   40.3630   30.2930 N.am      3 SEP2        0.0000 
      6 N         -16.1305   39.9605   29.1580 N.am      1 SEC2        0.0000 
      7 N         -15.9400   39.5580   28.0230 N.am      5 SEL2        0.0000 
      8 CA        -16.3040   37.2365   25.9340 C.3       2 GLC5        0.0000 
      9 CA        -16.8980   38.9750   25.8320 C.3       6 GLL5        0.0000 
     10 CA        -15.7100   35.4980   26.0360 C.3       4 GLP5        0.0000 
     11 CA        -18.5435   37.9055   25.8780 C.3       2 GLC5        0.0000 
     12 CA        -20.1890   36.8360   25.9240 C.3       4 GLP5        0.0000 
     13 CA        -17.9130   38.3290   24.1715 C.3       2 GLC5        0.0000 
     14 CA        -18.9280   37.6830   22.5110 C.3       4 GLP5        0.0000 
     15 CA        -21.2110   41.3895   26.4845 C.3       2 GLC5        0.0000 
     16 CA        -20.8240   41.7410   24.3930 C.3       6 GLL5        0.0000 
     17 CA        -21.5980   41.0380   28.5760 C.3       4 GLP5        0.0000 
     18 CA        -22.7380   42.2720   24.4665 C.3       2 GLC5        0.0000 
     19 CA        -24.6520   42.8030   24.5400 C.3       4 GLP5        0.0000 
     20 CA        -21.5065   39.8865   25.4085 C.3       2 GLC5        0.0000 
     21 CA        -22.1890   38.0320   26.4240 C.3       4 GLP5        0.0000 
     22 CA        -20.3455   40.2050   23.3810 C.3       2 GLC5        0.0000 
     23 CA        -19.8670   38.6690   22.3690 C.3       4 GLP5        0.0000 
     24 CA        -21.4545   42.2600   22.7770 C.3       2 GLC5        0.0000 
     25 CA        -22.0850   42.7790   21.1610 C.3       4 GLP5        0.0000 
     26 CA        -12.8130   41.5665   27.5905 C.3       2 GLC5        0.0000 
     27 CA        -14.2020   42.5100   28.3960 C.3       6 GLL5        0.0000 
     28 CA        -11.4240   40.6230   26.7850 C.3       4 GLP5        0.0000 
     29 CA        -15.5370   43.7870   28.2770 C.3       2 GLC5        0.0000 
     30 CA        -16.8720   45.0640   28.1580 C.3       4 GLP5        0.0000 
     31 CA        -15.7535   41.9415   29.2785 C.3       2 GLC5        0.0000 
     32 CA        -17.3050   41.3730   30.1610 C.3       4 GLP5        0.0000 
     33 CA        -13.8375   43.2040   30.1785 C.3       2 GLC5        0.0000 
     34 CA        -13.4730   43.8980   31.9610 C.3       4 GLP5        0.0000 
     35 CA        -14.5320   40.7680   22.2750 C.3       2 GLC5        0.0000 
     36 CA        -14.6130   42.3590   23.1210 C.3       6 GLL5        0.0000 
     37 CA        -14.4510   39.1770   21.4290 C.3       4 GLP5        0.0000 
     38 CA        -15.9500   42.1440   21.3485 C.3       2 GLC5        0.0000 
     39 CA        -17.2870   41.9290   19.5760 C.3       4 GLP5        0.0000 
     40 CA        -15.3025   43.9825   21.9980 C.3       2 GLC5        0.0000 
     41 CA        -15.9920   45.6060   20.8750 C.3       4 GLP5        0.0000 
     42 CA        -20.2518   43.2120   25.6792 C.3       2 GLC5        0.0000 
     43 CA        -19.3650   41.6410   24.7500 C.3       6 GLL5        0.0000 
     44 CA        -20.4090   44.7330   26.7870 C.3       4 GLP5        0.0000 
     45 CA        -17.7095   44.5580   23.7950 C.3       2 GLC5        0.0000 
     46 CA        -18.5620   42.7800   24.7140 C.3       6 GLL5        0.0000 
     47 CA        -17.5330   46.3620   22.7120 C.3       4 GLP5        0.0000 
     48 CA        -19.1475   43.7435   25.8325 C.3       2 GLC5        0.0000 
     49 CA        -16.2069   39.7365   24.0050 C.3       2 GLC5        0.0000 
     50 CA        -16.6380   41.5160   25.4060 C.3       6 GLL5        0.0000 
     51 CA        -15.4970   38.8950   22.4890 C.3       4 GLP5        0.0000 
     52 CA        -17.0670   43.5995   26.6500 C.3       2 GLC5        0.0000 
     53 CA        -14.9330   44.3000   26.8255 C.3       2 GLC5        0.0000 
     54 CA        -13.7980   43.0570   26.7370 C.3       6 GLL5        0.0000 
     55 CA        -15.7460   45.8630   27.4990 C.3       4 GLP5        0.0000 
     56 CA        -12.0740   42.4595   26.3375 C.3       2 GLC5        0.0000 
     57 CA        -12.8830   44.0820   26.5340 C.3       6 GLL5        0.0000 
     58 CA        -14.2350   45.0795   26.6945 C.3       2 GLC5        0.0000 
     59 CA        -11.3655   43.4708   23.7927 C.3       2 GLC5        0.0000 
     60 CA        -12.5650   44.5100   25.2460 C.3       6 GLL5        0.0000 
     61 CA         -9.8790   42.7180   22.9070 C.3       4 GLP5        0.0000 
     62 CA        -12.7578   41.7218   25.9853 C.3       2 GLC5        0.0000 
     63 CA        -14.0630   42.9040   24.2190 C.3       6 GLL5        0.0000 
     64 CA        -12.4715   42.4648   22.6475 C.3       2 GLC5        0.0000 
     65 CA        -10.6050   42.2980   21.6250 C.3       4 GLP5        0.0000 
     66 CA        -14.2508   45.1424   23.6764 C.3       2 GLC5        0.0000 
     67 CA        -13.1390   43.9370   24.1110 C.3       6 GLL5        0.0000 
     68 CA        -15.0440   46.7210   22.9040 C.3       4 GLP5        0.0000 
@<TRIPOS>BOND
@<TRIPOS>SUBSTRUCTURE
     1 SEC2        1 GROUP        1 X    SEC  0     ROOT SEC X 2
     2 GLC5        8 GROUP        1 X    GLC  0     **** GLC X 6
     3 SEP2        3 GROUP        1 Y    SEP  0     ROOT SEP Y 9
     4 GLP5       10 GROUP        1 Y    GLP  0     **** GLP Y 13
     5 SEL2        2 GROUP        1 Z    SEL  0     ROOT SEL Z 16
     6 GLL5        9 GROUP        1 Z    GLL  0     **** GLL Z 20
@<TRIPOS>SET

