#    Name: 4oty_LUR_1_ligand
#    Modification time : Tue Mar 25 13:39:09 2014

@<TRIPOS>MOLECULE
4oty_LUR_1_ligand
   32    33     1     0     0
SMALL
NO_CHARGES


@<TRIPOS>ATOM
      1 OAB       -17.6450   38.1710   27.9330 O.co2     1 LUR705      0.0000 
      2 CAN       -16.8490   38.8740   27.3340 C.2       1 LUR705      0.0000 
      3 OAC       -15.9400   39.5580   28.0230 O.co2     1 LUR705      0.0000 
      4 CAL       -16.8980   38.9750   25.8320 C.3       1 LUR705      0.0000 
      5 CAR       -17.4930   40.3050   25.4400 C.ar      1 LUR705      0.0000 
      6 CAK       -18.8360   40.4070   25.1100 C.ar      1 LUR705      0.0000 
      7 CAO       -19.3650   41.6410   24.7500 C.ar      1 LUR705      0.0000 
      8 CAA       -20.8240   41.7410   24.3930 C.3       1 LUR705      0.0000 
      9 CAI       -18.5620   42.7800   24.7140 C.ar      1 LUR705      0.0000 
     10 CAJ       -17.2100   42.7280   25.0420 C.ar      1 LUR705      0.0000 
     11 CAS       -16.6380   41.5160   25.4060 C.ar      1 LUR705      0.0000 
     12 NAM       -15.3290   41.4100   25.7310 N.pl3     1 LUR705      0.0000 
     13 CAT       -14.4420   42.4170   25.5670 C.ar      1 LUR705      0.0000 
     14 CAQ       -13.7980   43.0570   26.7370 C.ar      1 LUR705      0.0000 
     15 CLE       -14.2020   42.5100   28.3960 Cl        1 LUR705      0.0000 
     16 CAH       -12.8830   44.0820   26.5340 C.ar      1 LUR705      0.0000 
     17 CAF       -12.5650   44.5100   25.2460 C.ar      1 LUR705      0.0000 
     18 CAG       -13.1390   43.9370   24.1110 C.ar      1 LUR705      0.0000 
     19 CAP       -14.0630   42.9040   24.2190 C.ar      1 LUR705      0.0000 
     20 FAD       -14.6130   42.3590   23.1210 F         1 LUR705      0.0000 
     21 H         -17.5103   38.1711   25.4318 H         1 LUR705      0.0000 
     22 H         -15.8924   38.8936   25.4276 H         1 LUR705      0.0000 
     23 H         -19.4383   39.5755   25.1310 H         1 LUR705      0.0000 
     24 H         -18.9826   43.6875   24.4361 H         1 LUR705      0.0000 
     25 H         -16.6409   43.5809   25.0145 H         1 LUR705      0.0000 
     26 H         -14.9815   40.4903   26.1348 H         1 LUR705      0.0000 
     27 H         -12.4312   44.5343   27.3461 H         1 LUR705      0.0000 
     28 H         -11.8764   45.2828   25.1267 H         1 LUR705      0.0000 
     29 H         -12.8714   44.2879   23.1749 H         1 LUR705      0.0000 
     30 H         -21.0845   42.6763   24.1535 H         1 LUR705      0.0000 
     31 H         -21.0554   41.1628   23.6106 H         1 LUR705      0.0000 
     32 H         -21.4120   41.4579   25.1507 H         1 LUR705      0.0000 
@<TRIPOS>BOND
     1    2    1 ar   
     2    3    2 ar   
     3    4    2 1    
     4    5    4 1    
     5   21    4 1    
     6   22    4 1    
     7    6    5 ar   
     8   11    5 ar   
     9    7    6 ar   
    10   23    6 1    
    11    8    7 1    
    12    9    7 ar   
    13   30    8 1    
    14   31    8 1    
    15   32    8 1    
    16   10    9 ar   
    17   24    9 1    
    18   11   10 ar   
    19   25   10 1    
    20   12   11 1    
    21   13   12 1    
    22   26   12 1    
    23   14   13 ar   
    24   19   13 ar   
    25   15   14 1    
    26   16   14 ar   
    27   17   16 ar   
    28   27   16 1    
    29   18   17 ar   
    30   28   17 1    
    31   19   18 ar   
    32   29   18 1    
    33   20   19 1    
@<TRIPOS>SUBSTRUCTURE
     1 LUR705      1 GROUP   
@<TRIPOS>SET

