#    Name: 3bwj_ARX_1_INTS_M
#    Modification time : Mon Mar 24 20:09:58 2014

@<TRIPOS>MOLECULE
3bwj_ARX_1_INTS_M
  101     0    12     0     0
SMALL
NO_CHARGES


@<TRIPOS>ATOM
      1 N          21.7625   26.9640    7.5940 N.am      2 SEC2        0.0000 
      2 N          23.1710   26.3690    7.5560 N.am     10 SEL2        0.0000 
      3 N          20.3540   27.5590    7.6320 N.am      6 SEP2        0.0000 
      4 CA         25.1170   28.1120    6.1160 C.3       4 GLC5        0.0000 
      5 CA         24.0430   27.3810    7.6620 C.3      12 GLL5        0.0000 
      6 CA         26.1910   28.8430    4.5700 C.3       8 GLP5        0.0000 
      7 CA         24.0735   26.3070    6.0095 C.3       4 GLC5        0.0000 
      8 CA         24.1040   25.2330    4.3570 C.3       8 GLP5        0.0000 
      9 CA         22.0190   27.7550    8.3025 C.3       4 GLC5        0.0000 
     10 CA         19.9950   28.1290    8.9430 C.3       8 GLP5        0.0000 
     11 CA         23.9260   26.3275    9.4535 C.3       4 GLC5        0.0000 
     12 CA         23.8090   25.2740   11.2450 C.3       8 GLP5        0.0000 
     13 CA         25.2230   23.0055    6.9120 C.3       4 GLC5        0.0000 
     14 CA         25.0130   24.8410    8.0200 C.3      12 GLL5        0.0000 
     15 CA         25.4330   21.1700    5.8040 C.3       8 GLP5        0.0000 
     16 CA         25.1345   23.4230    9.7025 C.3       4 GLC5        0.0000 
     17 CA         25.2560   22.0050   11.3850 C.3       8 GLP5        0.0000 
     18 CA         21.8030   25.4110    8.8135 C.3       4 GLC5        0.0000 
     19 CA         23.5810   25.0690    7.7130 C.3      12 GLL5        0.0000 
     20 CA         20.0250   25.7530    9.9140 C.3       8 GLP5        0.0000 
     21 O          21.4110   24.1605    6.9785 O.2       1 ALC1        0.0000 
     22 O          22.7430   23.9950    7.6090 O.2       9 ALL1        0.0000 
     23 O          20.0790   24.3260    6.3480 O.2       5 ALP1        0.0000 
     24 N          25.6740   22.6765    9.1605 N.am      2 SEC2        0.0000 
     25 N          25.7800   23.7630    8.2720 N.am     10 SEL2        0.0000 
     26 N          25.5680   21.5900   10.0490 N.am      6 SEP2        0.0000 
     27 O          29.4600   25.9565   13.1705 O.2       1 ALC1        0.0000 
     28 O          29.9640   26.1520   11.9030 O.2       9 ALL1        0.0000 
     29 O          28.9560   25.7610   14.4380 O.2       5 ALP1        0.0000 
     30 O          29.8350   28.3340   11.1665 O.2       1 ALC1        0.0000 
     31 O          29.0070   27.9100   10.1370 O.2       9 ALL1        0.0000 
     32 O          30.6630   28.7580   12.1960 O.2       5 ALP1        0.0000 
     33 CA         27.8600   24.2310   11.3595 C.3       4 GLC5        0.0000 
     34 CA         29.2820   25.6030   10.7420 C.3      12 GLL5        0.0000 
     35 CA         26.4380   22.8590   11.9770 C.3       8 GLP5        0.0000 
     36 CA         31.3725   26.5200    8.2425 C.3       4 GLC5        0.0000 
     37 CA         30.1970   25.1850    9.5590 C.3      12 GLL5        0.0000 
     38 CA         32.5480   27.8550    6.9260 C.3       8 GLP5        0.0000 
     39 CA         30.0125   24.3325    7.6585 C.3       4 GLC5        0.0000 
     40 CA         29.8280   23.4800    5.7580 C.3       8 GLP5        0.0000 
     41 CA         28.3815   27.8135    7.0550 C.3       4 GLC5        0.0000 
     42 CA         28.3280   26.3210    8.6350 C.3      12 GLL5        0.0000 
     43 CA         28.4350   29.3060    5.4750 C.3       8 GLP5        0.0000 
     44 CA         28.1410   25.5465    6.7375 C.3       4 GLC5        0.0000 
     45 CA         27.9540   24.7720    4.8400 C.3       8 GLP5        0.0000 
     46 N          37.9580   19.7805    6.1230 N.am      2 SEC2        0.0000 
     47 N          36.7260   20.1060    6.9220 N.am     10 SEL2        0.0000 
     48 N          39.1900   19.4550    5.3240 N.am      6 SEP2        0.0000 
     49 CA         35.0455   17.8515    6.6380 C.3       4 GLC5        0.0000 
     50 CA         34.4010   19.7650    6.9550 C.3      12 GLL5        0.0000 
     51 CA         35.6900   15.9380    6.3210 C.3       8 GLP5        0.0000 
     52 CA         33.9610   22.4670    4.8005 C.3       4 GLC5        0.0000 
     53 CA         34.0940   21.1600    6.4050 C.3      12 GLL5        0.0000 
     54 CA         33.8280   23.7740    3.1960 C.3       8 GLP5        0.0000 
     55 CA         31.4175   20.1195    7.4915 C.3       4 GLC5        0.0000 
     56 CA         32.4400   21.4350    8.2830 C.3      12 GLL5        0.0000 
     57 CA         30.3950   18.8040    6.7000 C.3       8 GLP5        0.0000 
     58 OD1        34.6250   18.6585   16.4740 O.co2     3 ASC3        0.0000 
     59 OD1        36.1530   18.3920   14.6260 O.co2    11 ASL3        0.0000 
     60 OD1        33.2910   18.2940   17.1550 O.co2     7 ASP3        0.0000 
     61 OD1        33.7895   18.1795   14.5505 O.co2     3 ASC3        0.0000 
     62 OD1        32.4260   18.3330   15.1700 O.co2     7 ASP3        0.0000 
     63 O          34.6250   18.6585   16.4740 O.2       1 ALC1        0.0000 
     64 O          35.9590   19.0230   15.7930 O.2       9 ALL1        0.0000 
     65 O          33.2910   18.2940   17.1550 O.2       5 ALP1        0.0000 
     66 O          33.7895   18.1795   14.5505 O.2       1 ALC1        0.0000 
     67 O          35.1530   18.0260   13.9310 O.2       9 ALL1        0.0000 
     68 O          32.4260   18.3330   15.1700 O.2       5 ALP1        0.0000 
     69 N          38.9690   21.2780    8.7520 N.am      2 SEC2        0.0000 
     70 N          38.5710   21.0280   10.3210 N.am     10 SEL2        0.0000 
     71 N          39.3670   21.5280    7.1830 N.am      6 SEP2        0.0000 
     72 N          35.0930   21.7585   14.8650 N.am      2 SEC2        0.0000 
     73 N          35.4060   21.3600   13.5000 N.am     10 SEL2        0.0000 
     74 N          34.7800   22.1570   16.2300 N.am      6 SEP2        0.0000 
     75 CA         26.7013   25.0977    6.4570 C.3       4 GLC5        0.0000 
     76 CA         25.8840   26.0060    8.1280 C.3      12 GLL5        0.0000 
     77 CA         24.3094   25.2396    6.1252 C.3       4 GLC5        0.0000 
     78 CA         24.1619   25.2601    9.5693 C.3       4 GLC5        0.0000 
     79 CA         28.7057   27.6453   11.8893 C.3       4 GLC5        0.0000 
     80 CA         28.3910   26.6480   10.1030 C.3      12 GLL5        0.0000 
     81 CA         28.5750   29.1650   13.3560 C.3       8 GLP5        0.0000 
     82 CA         27.2203   26.3498   11.4863 C.3       4 GLC5        0.0000 
     83 CA         25.6040   26.5740   12.5500 C.3       8 GLP5        0.0000 
     84 CA         27.4392   28.3923    9.3355 C.3       4 GLC5        0.0000 
     85 CA         26.5190   30.3000    9.3020 C.3       8 GLP5        0.0000 
     86 CA         35.0667   20.5392    4.8630 C.3       4 GLC5        0.0000 
     87 CA         35.8860   20.6160    3.0460 C.3       8 GLP5        0.0000 
     88 CA         32.3213   19.6333    6.6900 C.3       4 GLC5        0.0000 
     89 CA         33.6833   19.1217    5.3545 C.3       4 GLC5        0.0000 
     90 CA         33.1190   17.7810    4.0290 C.3       8 GLP5        0.0000 
     91 CA         35.7343   22.4135    7.1615 C.3       4 GLC5        0.0000 
     92 CA         37.6360   23.2010    7.3770 C.3       8 GLP5        0.0000 
     93 CA         31.4168   22.6217    6.8215 C.3       4 GLC5        0.0000 
     94 CA         33.5710   22.0920    7.4870 C.3      12 GLL5        0.0000 
     95 CA         37.4742   17.2948    9.4646 C.3       4 GLC5        0.0000 
     96 CA         37.0350   19.3320    9.6920 C.3      12 GLL5        0.0000 
     97 CA         37.4720   16.1220    7.9170 C.3       8 GLP5        0.0000 
     98 CA         37.0230   23.2065    9.3750 C.3       4 GLC5        0.0000 
     99 CA         36.1130   22.5140   11.5270 C.3      12 GLL5        0.0000 
    100 CA         38.0723   23.9130    9.1335 C.3       4 GLC5        0.0000 
    101 CA         38.2280   23.9250   11.0120 C.3      12 GLL5        0.0000 
@<TRIPOS>BOND
@<TRIPOS>SUBSTRUCTURE
     1 ALC1       21 GROUP        1 X    ALC  0     ROOT ALC X 1
     2 SEC2        1 GROUP        1 X    SEC  0     **** SEC X 2
     3 ASC3       58 GROUP        1 X    ASC  0     **** ASC X 3
     4 GLC5        4 GROUP        1 X    GLC  0     **** GLC X 6
     5 ALP1       23 GROUP        1 Y    ALP  0     ROOT ALP Y 8
     6 SEP2        3 GROUP        1 Y    SEP  0     **** SEP Y 9
     7 ASP3       60 GROUP        1 Y    ASP  0     **** ASP Y 10
     8 GLP5        6 GROUP        1 Y    GLP  0     **** GLP Y 13
     9 ALL1       22 GROUP        1 Z    ALL  0     ROOT ALL Z 15
    10 SEL2        2 GROUP        1 Z    SEL  0     **** SEL Z 16
    11 ASL3       59 GROUP        1 Z    ASL  0     **** ASL Z 17
    12 GLL5        5 GROUP        1 Z    GLL  0     **** GLL Z 20
@<TRIPOS>SET

