#    Name: 3bwj_ARX_1_ligand
#    Modification time : Mon Mar 24 20:09:58 2014

@<TRIPOS>MOLECULE
3bwj_ARX_1_ligand
   99   101     1     0     0
SMALL
NO_CHARGES


@<TRIPOS>ATOM
      1 N1         23.1710   26.3690    7.5560 N.ar      1 ARX351      0.0000 
      2 C2         24.0430   27.3810    7.6620 C.ar      1 ARX351      0.0000 
      3 N3         25.3550   27.2370    7.9450 N.ar      1 ARX351      0.0000 
      4 C4         25.8840   26.0060    8.1280 C.ar      1 ARX351      0.0000 
      5 C5         25.0130   24.8410    8.0200 C.ar      1 ARX351      0.0000 
      6 C6         23.5810   25.0690    7.7130 C.ar      1 ARX351      0.0000 
      7 N6         22.7430   23.9950    7.6090 N.pl3     1 ARX351      0.0000 
      8 N7         25.7800   23.7630    8.2720 N.2       1 ARX351      0.0000 
      9 C8         27.0270   24.1860    8.5130 C.2       1 ARX351      0.0000 
     10 N9         27.0960   25.5190    8.4280 N.pl3     1 ARX351      0.0000 
     11 O5'        29.6630   22.8450    9.4920 O.2       1 ARX351      0.0000 
     12 O3'        29.9640   26.1520   11.9030 O.3       1 ARX351      0.0000 
     13 O2'        29.0070   27.9100   10.1370 O.3       1 ARX351      0.0000 
     14 O4'        29.4840   25.5210    8.3440 O.3       1 ARX351      0.0000 
     15 C5'        30.5390   23.7150    9.5380 C.2       1 ARX351      0.0000 
     16 C3'        29.2820   25.6030   10.7420 C.3       1 ARX351      0.0000 
     17 C2'        28.3910   26.6480   10.1030 C.3       1 ARX351      0.0000 
     18 C4'        30.1970   25.1850    9.5590 C.3       1 ARX351      0.0000 
     19 C1'        28.3280   26.3210    8.6350 C.3       1 ARX351      0.0000 
     20 C26        35.7640   19.7640    7.6010 C.2       1 ARX351      0.0000 
     21 O28        36.7260   20.1060    6.9220 O.2       1 ARX351      0.0000 
     22 C25        34.4010   19.7650    6.9550 C.3       1 ARX351      0.0000 
     23 C24        34.0940   21.1600    6.4050 C.3       1 ARX351      0.0000 
     24 C23        33.5710   22.0920    7.4870 C.3       1 ARX351      0.0000 
     25 C22        32.4400   21.4350    8.2830 C.3       1 ARX351      0.0000 
     26 C21        32.2310   22.0290    9.6720 C.3       1 ARX351      0.0000 
     27 N20        31.8460   23.4180    9.5940 N.am      1 ARX351      0.0000 
     28 N27        35.8270   19.3740    8.8720 N.am      1 ARX351      0.0000 
     29 C29        37.0350   19.3320    9.6920 C.3       1 ARX351      0.0000 
     30 C37        36.8030   18.3720   10.8750 C.3       1 ARX351      0.0000 
     31 C38        38.0340   18.0830   11.7410 C.3       1 ARX351      0.0000 
     32 C39        38.0240   18.8420   13.0850 C.3       1 ARX351      0.0000 
     33 N40        37.4000   18.1340   14.2020 N.pl3     1 ARX351      0.0000 
     34 C41        36.1530   18.3920   14.6260 C.cat     1 ARX351      0.0000 
     35 N43        35.9590   19.0230   15.7930 N.pl3     1 ARX351      0.0000 
     36 N42        35.1530   18.0260   13.9310 N.pl3     1 ARX351      0.0000 
     37 C30        37.3900   20.7160   10.1890 C.2       1 ARX351      0.0000 
     38 O35        38.5710   21.0280   10.3210 O.2       1 ARX351      0.0000 
     39 N31        36.3500   21.5330   10.4370 N.am      1 ARX351      0.0000 
     40 C32        36.1130   22.5140   11.5270 C.3       1 ARX351      0.0000 
     41 C78        36.7070   23.9100   11.2190 C.3       1 ARX351      0.0000 
     42 C79        38.2280   23.9250   11.0120 C.3       1 ARX351      0.0000 
     43 C85        38.7890   25.3250   10.7680 C.3       1 ARX351      0.0000 
     44 N77        40.0010   25.3040    9.9650 N.pl3     1 ARX351      0.0000 
     45 C86        40.2690   26.2090    9.0070 C.cat     1 ARX351      0.0000 
     46 N93        40.2770   27.4440    9.2820 N.pl3     1 ARX351      0.0000 
     47 N94        40.5510   25.8200    7.7540 N.pl3     1 ARX351      0.0000 
     48 C75        36.3220   21.9960   12.9650 C.2       1 ARX351      0.0000 
     49 O77        35.4060   21.3600   13.5000 O.2       1 ARX351      0.0000 
     50 N76        37.4730   22.2240   13.6370 N.am      1 ARX351      0.0000 
     51 H          23.6754   28.3803    7.5116 H         1 ARX351      0.0000 
     52 H          21.7930   24.1994    7.3729 H         1 ARX351      0.0000 
     53 H          23.1532   23.0988    7.7781 H         1 ARX351      0.0000 
     54 H          27.7868   23.5975    8.7234 H         1 ARX351      0.0000 
     55 H          28.6610   24.7593   10.9788 H         1 ARX351      0.0000 
     56 H          27.4372   26.6259   10.5070 H         1 ARX351      0.0000 
     57 H          31.1019   25.7690    9.6215 H         1 ARX351      0.0000 
     58 H          28.2982   27.2084    8.0797 H         1 ARX351      0.0000 
     59 H          33.6449   19.4996    7.6873 H         1 ARX351      0.0000 
     60 H          34.3788   19.0503    6.1382 H         1 ARX351      0.0000 
     61 H          33.3483   21.0727    5.6100 H         1 ARX351      0.0000 
     62 H          35.0064   21.5810    5.9737 H         1 ARX351      0.0000 
     63 H          33.1974   23.0079    7.0279 H         1 ARX351      0.0000 
     64 H          34.3828   22.3491    8.1684 H         1 ARX351      0.0000 
     65 H          32.6542   20.3578    8.3812 H         1 ARX351      0.0000 
     66 H          31.5029   21.5250    7.7088 H         1 ARX351      0.0000 
     67 H          33.1677   21.9070   10.2370 H         1 ARX351      0.0000 
     68 H          31.4616   21.4311   10.1838 H         1 ARX351      0.0000 
     69 H          32.5832   24.1190    9.5845 H         1 ARX351      0.0000 
     70 H          34.9440   19.0544    9.3822 H         1 ARX351      0.0000 
     71 H          37.8631   18.9440    9.1139 H         1 ARX351      0.0000 
     72 H          36.4116   17.4148   10.4793 H         1 ARX351      0.0000 
     73 H          36.0048   18.7922   11.5172 H         1 ARX351      0.0000 
     74 H          38.9379   18.3621   11.1860 H         1 ARX351      0.0000 
     75 H          38.0857   17.0066   11.9451 H         1 ARX351      0.0000 
     76 H          37.5166   19.8192   12.9102 H         1 ARX351      0.0000 
     77 H          39.0811   19.0998   13.3281 H         1 ARX351      0.0000 
     78 H          37.9933   17.4020   14.6588 H         1 ARX351      0.0000 
     79 H          36.7816   19.2358   16.3202 H         1 ARX351      0.0000 
     80 H          35.0090   19.2243   16.0318 H         1 ARX351      0.0000 
     81 H          34.2527   18.2580   14.2992 H         1 ARX351      0.0000 
     82 H          35.3613   17.5407   13.0818 H         1 ARX351      0.0000 
     83 H          35.4999   21.5038    9.7333 H         1 ARX351      0.0000 
     84 H          34.9462   22.7184   11.4785 H         1 ARX351      0.0000 
     85 H          36.4509   24.5896   12.0480 H         1 ARX351      0.0000 
     86 H          36.2178   24.3063   10.3144 H         1 ARX351      0.0000 
     87 H          38.4756   23.2838   10.1553 H         1 ARX351      0.0000 
     88 H          38.7109   23.4935   11.8991 H         1 ARX351      0.0000 
     89 H          38.9772   25.7912   11.7509 H         1 ARX351      0.0000 
     90 H          38.0029   25.9247   10.2769 H         1 ARX351      0.0000 
     91 H          40.6727   24.5253   10.1781 H         1 ARX351      0.0000 
     92 H          40.0289   27.6876   10.2196 H         1 ARX351      0.0000 
     93 H          40.5307   28.0593    8.5357 H         1 ARX351      0.0000 
     94 H          40.5485   24.8338    7.5883 H         1 ARX351      0.0000 
     95 H          40.7385   26.5511    7.0980 H         1 ARX351      0.0000 
     96 H          37.5151   21.8688   14.5709 H         1 ARX351      0.0000 
     97 H          38.1801   22.7276   13.1405 H         1 ARX351      0.0000 
     98 H          29.3727   25.9314   12.6786 H         1 ARX351      0.0000 
     99 H          29.5366   27.9166   10.9852 H         1 ARX351      0.0000 
@<TRIPOS>BOND
     1    2    1 ar   
     2    6    1 ar   
     3    3    2 ar   
     4   51    2 1    
     5    4    3 ar   
     6    5    4 ar   
     7   10    4 1    
     8    6    5 ar   
     9    8    5 1    
    10    7    6 1    
    11   52    7 1    
    12   53    7 1    
    13    9    8 2    
    14   10    9 1    
    15   54    9 1    
    16   19   10 1    
    17   15   11 2    
    18   16   12 1    
    19   98   12 1    
    20   17   13 1    
    21   99   13 1    
    22   18   14 1    
    23   19   14 1    
    24   18   15 1    
    25   27   15 am   
    26   17   16 1    
    27   18   16 1    
    28   55   16 1    
    29   19   17 1    
    30   56   17 1    
    31   57   18 1    
    32   58   19 1    
    33   21   20 2    
    34   22   20 1    
    35   28   20 am   
    36   23   22 1    
    37   59   22 1    
    38   60   22 1    
    39   24   23 1    
    40   61   23 1    
    41   62   23 1    
    42   25   24 1    
    43   63   24 1    
    44   64   24 1    
    45   26   25 1    
    46   65   25 1    
    47   66   25 1    
    48   27   26 1    
    49   67   26 1    
    50   68   26 1    
    51   69   27 1    
    52   29   28 1    
    53   70   28 1    
    54   30   29 1    
    55   37   29 1    
    56   71   29 1    
    57   31   30 1    
    58   72   30 1    
    59   73   30 1    
    60   32   31 1    
    61   74   31 1    
    62   75   31 1    
    63   33   32 1    
    64   76   32 1    
    65   77   32 1    
    66   34   33 ar   
    67   78   33 1    
    68   35   34 ar   
    69   36   34 ar   
    70   79   35 1    
    71   80   35 1    
    72   81   36 1    
    73   82   36 1    
    74   38   37 2    
    75   39   37 am   
    76   40   39 1    
    77   83   39 1    
    78   41   40 1    
    79   48   40 1    
    80   84   40 1    
    81   42   41 1    
    82   85   41 1    
    83   86   41 1    
    84   43   42 1    
    85   87   42 1    
    86   88   42 1    
    87   44   43 1    
    88   89   43 1    
    89   90   43 1    
    90   45   44 ar   
    91   91   44 1    
    92   46   45 ar   
    93   47   45 ar   
    94   92   46 1    
    95   93   46 1    
    96   94   47 1    
    97   95   47 1    
    98   49   48 2    
    99   50   48 am   
   100   96   50 1    
   101   97   50 1    
@<TRIPOS>SUBSTRUCTURE
     1 ARX351      1 GROUP   
@<TRIPOS>SET

