#    Name: 2I6A_4_CAVITY_N1_6.mol2
#    Modification time : Mon Mar 10 18:30:12 2014

@<TRIPOS>MOLECULE
2I6A_4_CAVITY_N1_6.mol2
   61     0     4     0     0
SMALL
NO_CHARGES


@<TRIPOS>ATOM
      1 CA         -8.1730   19.1510   19.0111 C.3       4 GLY6        0.0000 
      2 O          -8.1530   19.8720   17.6960 O.2       1 ALA2        0.0000 
      3 NZ         -7.7858   15.0138   23.5920 N.2       2 LYS4        0.0000 
      4 O          -7.7059   17.8981   18.3313 O.2       1 ALA2        0.0000 
      5 O          -7.6859   18.6192   17.0162 O.2       1 ALA2        0.0000 
      6 O          -5.9373    9.2813   22.1879 O.2       1 ALA2        0.0000 
      7 CA         -5.9134   13.4404   24.4685 C.3       4 GLY6        0.0000 
      8 NZ         -5.8934   14.1614   23.1534 N.2       2 LYS4        0.0000 
      9 NZ         -5.8735   14.8825   21.8382 N.2       2 LYS4        0.0000 
     10 O          -5.8535   15.6036   20.5231 O.2       1 ALA2        0.0000 
     11 NZ         -5.4463   12.1875   23.7887 N.2       2 LYS4        0.0000 
     12 NZ         -5.4263   12.9086   22.4736 N.2       2 LYS4        0.0000 
     13 O          -5.4063   13.6297   21.1584 O.2       1 ALA2        0.0000 
     14 CA         -4.9792   10.9347   23.1089 C.3       4 GLY6        0.0000 
     15 CA         -4.5320    8.9607   23.7442 C.3       4 GLY6        0.0000 
     16 CZ         -6.7478   19.5515   19.2524 C.ar      3 PHE5        0.0000 
     17 N          -6.3805   14.6932   25.1484 N.2       1 ALA2        0.0000 
     18 N          -6.3605   15.4143   23.8332 N.2       1 ALA2        0.0000 
     19 CZ         -6.3406   16.1354   22.5180 C.ar      3 PHE5        0.0000 
     20 CA         -6.3206   16.8564   21.2029 C.3       4 GLY6        0.0000 
     21 O          -6.3006   17.5775   19.8877 O.2       1 ALA2        0.0000 
     22 O          -6.2806   18.2986   18.5725 O.2       1 ALA2        0.0000 
     23 CZ         -4.8514   22.1371   22.4096 C.ar      3 PHE5        0.0000 
     24 CZ         -4.4242   19.4421   24.3601 C.ar      3 PHE5        0.0000 
     25 CZ         -4.4043   20.1632   23.0450 C.ar      3 PHE5        0.0000 
     26 CA         -4.3843   20.8842   21.7298 C.3       4 GLY6        0.0000 
     27 CA         -4.3643   21.6053   20.4147 C.3       4 GLY6        0.0000 
     28 CA         -3.9571   18.1892   23.6803 C.3       4 GLY6        0.0000 
     29 CA         -3.9372   18.9103   22.3652 C.3       4 GLY6        0.0000 
     30 CA         -3.9172   19.6314   21.0500 C.3       4 GLY6        0.0000 
     31 CA         -3.4900   16.9364   23.0005 C.3       4 GLY6        0.0000 
     32 CA         -3.4700   17.6574   21.6853 C.3       4 GLY6        0.0000 
     33 CA         -3.0229   15.6835   22.3207 C.3       4 GLY6        0.0000 
     34 CA         -3.0029   16.4046   21.0055 C.3       4 GLY6        0.0000 
     35 CA         -2.5758   13.7096   22.9560 C.3       4 GLY6        0.0000 
     36 NZ         -2.5558   14.4307   21.6409 N.2       2 LYS4        0.0000 
     37 N          -3.4461   21.8165   23.9660 N.2       1 ALA2        0.0000 
     38 N          -2.9990   19.8426   24.6014 N.2       1 ALA2        0.0000 
     39 CA         -2.9790   20.5637   23.2862 C.3       4 GLY6        0.0000 
     40 CA         -2.5319   18.5897   23.9216 C.3       4 GLY6        0.0000 
     41 CA         -2.5119   19.3108   22.6064 C.3       4 GLY6        0.0000 
     42 CZ         -5.8096   20.4837   21.4886 C.ar      3 PHE5        0.0000 
     43 CZ         -5.3824   17.7887   23.4391 C.ar      3 PHE5        0.0000 
     44 CZ         -5.3624   18.5098   22.1239 C.ar      3 PHE5        0.0000 
     45 CZ         -5.3425   19.2309   20.8088 C.ar      3 PHE5        0.0000 
     46 CA         -5.3225   19.9520   19.4936 C.3       4 GLY6        0.0000 
     47 CA         -4.9353   15.8148   24.0744 C.3       4 GLY6        0.0000 
     48 CA         -4.9153   16.5359   22.7593 C.3       4 GLY6        0.0000 
     49 CZ         -4.8953   17.2569   21.4441 C.ar      3 PHE5        0.0000 
     50 CA         -4.8753   17.9780   20.1289 C.3       4 GLY6        0.0000 
     51 CA         -4.4881   13.8409   24.7098 C.3       4 GLY6        0.0000 
     52 CA         -4.4682   14.5619   23.3946 C.3       4 GLY6        0.0000 
     53 CA         -4.4482   15.2830   22.0794 C.3       4 GLY6        0.0000 
     54 O          -4.4282   16.0041   20.7643 O.2       1 ALA2        0.0000 
     55 CA         -4.4082   16.7252   19.4491 C.3       4 GLY6        0.0000 
     56 CA         -4.0210   12.5880   24.0300 C.3       4 GLY6        0.0000 
     57 NZ         -4.0010   13.3091   22.7148 N.2       2 LYS4        0.0000 
     58 NZ         -3.9811   14.0302   21.3996 N.2       2 LYS4        0.0000 
     59 O          -3.9611   14.7512   20.0845 O.2       1 ALA2        0.0000 
     60 NZ         -3.5539   11.3352   23.3501 N.2       2 LYS4        0.0000 
     61 NZ         -3.5339   12.0562   22.0350 N.2       2 LYS4        0.0000 
@<TRIPOS>BOND
@<TRIPOS>SUBSTRUCTURE
     1 ALA2        2 GROUP   
     2 LYS4        3 GROUP   
     3 PHE5       16 GROUP   
     4 GLY6        1 GROUP   
@<TRIPOS>SET

