#    Name: 2i6a_5I5_4_INTS_M
#    Modification time : Tue Mar 25 17:31:41 2014

@<TRIPOS>MOLECULE
2i6a_5I5_4_INTS_M
   68     0     9     0     0
SMALL
NO_CHARGES


@<TRIPOS>ATOM
      1 N          -6.4820   21.2685   18.2395 N.am      2 SEC2        0.0000 
      2 N          -6.0910   20.4850   19.4080 N.am      8 SEL2        0.0000 
      3 N          -6.8730   22.0520   17.0710 N.am      5 SEP2        0.0000 
      4 CA         -4.2960   21.6850   19.1175 C.3       3 GLC5        0.0000 
      5 CA         -5.3990   20.6250   20.5670 C.3       9 GLL5        0.0000 
      6 CA         -3.1930   22.7450   17.6680 C.3       6 GLP5        0.0000 
      7 CA         -7.2820   20.9925   20.4125 C.3       3 GLC5        0.0000 
      8 CA         -9.1650   21.3600   20.2580 C.3       6 GLP5        0.0000 
      9 CA         -7.2985   17.0425   20.7860 C.3       3 GLC5        0.0000 
     10 CA         -5.4450   18.2540   20.8650 C.3       9 GLL5        0.0000 
     11 CA         -9.1520   15.8310   20.7070 C.3       6 GLP5        0.0000 
     12 N          -6.9040   16.7475   19.2515 N.am      2 SEC2        0.0000 
     13 N          -6.1470   18.1240   19.7190 N.am      8 SEL2        0.0000 
     14 N          -7.6610   15.3710   18.7840 N.am      5 SEP2        0.0000 
     15 CA         -6.2625   19.7820   17.2620 C.3       3 GLC5        0.0000 
     16 CA         -6.4260   19.2320   19.0180 C.3       9 GLL5        0.0000 
     17 CA         -6.0990   20.3320   15.5060 C.3       6 GLP5        0.0000 
     18 CA         -4.5790   18.9345   18.5280 C.3       3 GLC5        0.0000 
     19 CA         -2.7320   18.6370   18.0380 C.3       6 GLP5        0.0000 
     20 CA         -7.7955   20.2960   19.6380 C.3       3 GLC5        0.0000 
     21 CA         -3.4615   16.8000   24.1505 C.3       3 GLC5        0.0000 
     22 CA         -4.2920   17.9170   22.7420 C.3       9 GLL5        0.0000 
     23 CA         -2.6310   15.6830   25.5590 C.3       6 GLP5        0.0000 
     24 CA         -4.0055   20.3110   25.7285 C.3       3 GLC5        0.0000 
     25 CA         -3.4450   20.7660   23.7200 C.3       9 GLL5        0.0000 
     26 CA         -4.5660   19.8560   27.7370 C.3       6 GLP5        0.0000 
     27 CA         -2.8100   22.2985   25.1885 C.3       3 GLC5        0.0000 
     28 CA         -2.1750   23.8310   26.6570 C.3       6 GLP5        0.0000 
     29 CA         -2.4060   21.0125   22.2925 C.3       3 GLC5        0.0000 
     30 CA         -1.3670   21.2590   20.8650 C.3       6 GLP5        0.0000 
     31 CA         -5.5190   20.8720   23.7300 C.3       3 GLC5        0.0000 
     32 CA         -7.5930   20.9780   23.7400 C.3       6 GLP5        0.0000 
     33 CA         -4.6455   22.3645   24.5030 C.3       3 GLC5        0.0000 
     34 CA         -5.8460   23.9630   25.2860 C.3       6 GLP5        0.0000 
     35 CA         -2.2240   16.3325   21.7800 C.3       3 GLC5        0.0000 
     36 CA         -3.7690   15.1230   21.4020 C.3       9 GLL5        0.0000 
     37 CA         -0.6790   17.5420   22.1580 C.3       6 GLP5        0.0000 
     38 CA         -5.4645   15.4405   19.4085 C.3       3 GLC5        0.0000 
     39 CA         -5.1350   15.7860   21.5620 C.3       9 GLL5        0.0000 
     40 CA         -5.7940   15.0950   17.2550 C.3       6 GLP5        0.0000 
     41 CA         -7.1435   15.8085   21.1345 C.3       3 GLC5        0.0000 
     42 CA         -6.6185   17.2890   22.2300 C.3       3 GLC5        0.0000 
     43 CA         -8.1020   18.7920   22.8980 C.3       6 GLP5        0.0000 
     44 N          -5.1355   11.8005   20.4320 N.am      2 SEC2        0.0000 
     45 N          -3.9610   12.7290   20.8030 N.am      8 SEL2        0.0000 
     46 N          -6.3100   10.8720   20.0610 N.am      5 SEP2        0.0000 
     47 O          -2.6595   12.3255   20.6315 O.2       1 ALC1        0.0000 
     48 O          -3.9610   12.7290   20.8030 O.2       7 ALL1        0.0000 
     49 O          -1.3580   11.9220   20.4600 O.2       4 ALP1        0.0000 
     50 N          -3.9780   14.7075   18.8050 N.am      2 SEC2        0.0000 
     51 N          -3.2750   15.1700   20.0420 N.am      8 SEL2        0.0000 
     52 N          -4.6810   14.2450   17.5680 N.am      5 SEP2        0.0000 
     53 O          -2.0445   14.5265   19.8450 O.2       1 ALC1        0.0000 
     54 O          -3.2750   15.1700   20.0420 O.2       7 ALL1        0.0000 
     55 O          -0.8140   13.8830   19.6480 O.2       4 ALP1        0.0000 
     56 CA         -5.5900   13.1540   25.6975 C.3       3 GLC5        0.0000 
     57 CA         -5.2340   13.1940   24.0110 C.3       9 GLL5        0.0000 
     58 CA         -5.9460   13.1140   27.3840 C.3       6 GLP5        0.0000 
     59 CA         -6.0255   11.2245   24.6240 C.3       3 GLC5        0.0000 
     60 CA         -6.8170    9.2550   25.2370 C.3       6 GLP5        0.0000 
     61 CA         -4.0315   18.9014   19.4727 C.3       3 GLC5        0.0000 
     62 CA         -5.0350   19.5300   21.3330 C.3       9 GLL5        0.0000 
     63 CA         -2.4888   18.0805   22.3990 C.3       3 GLC5        0.0000 
     64 CA         -4.3050   19.3210   22.5380 C.3       9 GLL5        0.0000 
     65 CA         -3.0640   20.4791   21.3045 C.3       3 GLC5        0.0000 
     66 CA         -3.2510   15.0377   23.6005 C.3       3 GLC5        0.0000 
     67 CA         -3.9540   14.5720   24.4310 C.3       3 GLC5        0.0000 
     68 CA         -5.3200   13.7280   22.5950 C.3       9 GLL5        0.0000 
@<TRIPOS>BOND
@<TRIPOS>SUBSTRUCTURE
     1 ALC1       47 GROUP        1 X    ALC  0     ROOT ALC X 1
     2 SEC2        1 GROUP        1 X    SEC  0     **** SEC X 2
     3 GLC5        4 GROUP        1 X    GLC  0     **** GLC X 6
     4 ALP1       49 GROUP        1 Y    ALP  0     ROOT ALP Y 8
     5 SEP2        3 GROUP        1 Y    SEP  0     **** SEP Y 9
     6 GLP5        6 GROUP        1 Y    GLP  0     **** GLP Y 13
     7 ALL1       48 GROUP        1 Z    ALL  0     ROOT ALL Z 15
     8 SEL2        2 GROUP        1 Z    SEL  0     **** SEL Z 16
     9 GLL5        5 GROUP        1 Z    GLL  0     **** GLL Z 20
@<TRIPOS>SET

