#    Name: 2i6a_5I5_4_ligand
#    Modification time : Tue Mar 25 17:31:41 2014

@<TRIPOS>MOLECULE
2i6a_5I5_4_ligand
   32    34     1     0     0
SMALL
NO_CHARGES


@<TRIPOS>ATOM
      1 N1         -6.0910   20.4850   19.4080 N.ar      1 5I5500      0.0000 
      2 C1         -5.3990   20.6250   20.5670 C.ar      1 5I5500      0.0000 
      3 C2         -5.0350   19.5300   21.3330 C.ar      1 5I5500      0.0000 
      4 C3         -5.4450   18.2540   20.8650 C.ar      1 5I5500      0.0000 
      5 N2         -6.1470   18.1240   19.7190 N.ar      1 5I5500      0.0000 
      6 C4         -6.4260   19.2320   19.0180 C.ar      1 5I5500      0.0000 
      7 C5         -4.3050   19.3210   22.5380 C.2       1 5I5500      0.0000 
      8 C6         -4.2920   17.9170   22.7420 C.2       1 5I5500      0.0000 
      9 N3         -4.9730   17.2750   21.7430 N.pl3     1 5I5500      0.0000 
     10 I          -3.4450   20.7660   23.7200 I         1 5I5500      0.0000 
     11 N4         -5.0690   21.8740   20.8730 N.pl3     1 5I5500      0.0000 
     12 C7         -3.9730   13.6620   21.8820 C.3       1 5I5500      0.0000 
     13 C8         -3.7690   15.1230   21.4020 C.3       1 5I5500      0.0000 
     14 C9         -5.1350   15.7860   21.5620 C.3       1 5I5500      0.0000 
     15 O3         -5.7170   15.0870   22.6150 O.3       1 5I5500      0.0000 
     16 C10        -5.3200   13.7280   22.5950 C.3       1 5I5500      0.0000 
     17 O2         -3.9610   12.7290   20.8030 O.3       1 5I5500      0.0000 
     18 O1         -3.2750   15.1700   20.0420 O.3       1 5I5500      0.0000 
     19 C11        -5.2340   13.1940   24.0110 C.3       1 5I5500      0.0000 
     20 H          -6.9478   19.1254   18.0879 H         1 5I5500      0.0000 
     21 H          -3.8546   17.4978   23.4922 H         1 5I5500      0.0000 
     22 H          -4.2168   21.9916   21.3829 H         1 5I5500      0.0000 
     23 H          -5.7024   22.5843   20.5660 H         1 5I5500      0.0000 
     24 H          -3.2221   13.4742   22.6247 H         1 5I5500      0.0000 
     25 H          -3.0921   15.5878   22.1004 H         1 5I5500      0.0000 
     26 H          -5.6618   15.5942   20.6224 H         1 5I5500      0.0000 
     27 H          -6.0219   13.1293   22.0361 H         1 5I5500      0.0000 
     28 H          -4.9390   12.2387   24.0304 H         1 5I5500      0.0000 
     29 H          -4.5830   13.7131   24.5648 H         1 5I5500      0.0000 
     30 H          -6.1168   13.2377   24.4787 H         1 5I5500      0.0000 
     31 H          -3.0009   12.4709   20.6948 H         1 5I5500      0.0000 
     32 H          -2.4029   14.6812   20.0665 H         1 5I5500      0.0000 
@<TRIPOS>BOND
     1    2    1 ar   
     2    6    1 ar   
     3    3    2 ar   
     4   11    2 1    
     5    4    3 ar   
     6    7    3 1    
     7    5    4 ar   
     8    9    4 1    
     9    6    5 ar   
    10   20    6 1    
    11    8    7 2    
    12   10    7 1    
    13    9    8 1    
    14   21    8 1    
    15   14    9 1    
    16   22   11 1    
    17   23   11 1    
    18   13   12 1    
    19   16   12 1    
    20   17   12 1    
    21   24   12 1    
    22   14   13 1    
    23   18   13 1    
    24   25   13 1    
    25   15   14 1    
    26   26   14 1    
    27   16   15 1    
    28   19   16 1    
    29   27   16 1    
    30   31   17 1    
    31   32   18 1    
    32   28   19 1    
    33   29   19 1    
    34   30   19 1    
@<TRIPOS>SUBSTRUCTURE
     1 5I5500      1 GROUP   
@<TRIPOS>SET

