#    Name: 2xj1_XJ1_1_INTS_M
#    Modification time : Tue Mar 25 06:04:12 2014

@<TRIPOS>MOLECULE
2xj1_XJ1_1_INTS_M
   73     0    15     0     0
SMALL
NO_CHARGES


@<TRIPOS>ATOM
      1 CA        -19.0825  -33.1585   -5.5520 C.3       5 GLC5        0.0000 
      2 CA        -20.4820  -32.1700   -4.7560 C.3      15 GLL5        0.0000 
      3 CA        -17.6830  -34.1470   -6.3480 C.3      10 GLP5        0.0000 
      4 OD1       -21.7240  -27.8565   -2.3235 O.co2     3 ASC3        0.0000 
      5 OD1       -21.8830  -28.7740   -3.5700 O.co2    13 ASL3        0.0000 
      6 OD1       -21.5650  -26.9390   -1.0770 O.co2     8 ASP3        0.0000 
      7 O         -23.3090  -28.5175   -3.0325 O.2       1 ALC1        0.0000 
      8 O         -21.8830  -28.7740   -3.5700 O.2      11 ALL1        0.0000 
      9 O         -24.7350  -28.2610   -2.4950 O.2       6 ALP1        0.0000 
     10 O         -21.7240  -27.8565   -2.3235 O.2       1 ALC1        0.0000 
     11 O         -21.5650  -26.9390   -1.0770 O.2       6 ALP1        0.0000 
     12 CA        -24.6020  -35.8820   -5.8495 C.3       5 GLC5        0.0000 
     13 CA        -22.6330  -36.4880   -5.1900 C.3      15 GLL5        0.0000 
     14 CA        -26.5710  -35.2760   -6.5090 C.3      10 GLP5        0.0000 
     15 CA        -24.4445  -39.3865   -2.8645 C.3       5 GLC5        0.0000 
     16 CA        -23.0910  -37.6520   -3.2210 C.3      15 GLL5        0.0000 
     17 CA        -25.7980  -41.1210   -2.5080 C.3      10 GLP5        0.0000 
     18 CA        -23.5805  -33.9700   -0.7295 C.3       5 GLC5        0.0000 
     19 CA        -22.3620  -35.4140   -0.3590 C.3      15 GLL5        0.0000 
     20 CA        -24.7990  -32.5260   -1.1000 C.3      10 GLP5        0.0000 
     21 CA        -22.6605  -39.8060    0.3865 C.3       5 GLC5        0.0000 
     22 CA        -22.7360  -37.7770   -0.2680 C.3      15 GLL5        0.0000 
     23 CA        -22.5850  -41.8350    1.0410 C.3      10 GLP5        0.0000 
     24 CA        -22.5720  -39.6180    1.8330 C.3       5 GLC5        0.0000 
     25 CA        -22.7450  -37.7090    1.1400 C.3      15 GLL5        0.0000 
     26 CA        -22.3990  -41.5270    2.5260 C.3      10 GLP5        0.0000 
     27 CA        -24.0750  -36.3185    3.0280 C.3       5 GLC5        0.0000 
     28 CA        -22.5590  -36.4850    1.7820 C.3      15 GLL5        0.0000 
     29 CA        -25.5910  -36.1520    4.2740 C.3      10 GLP5        0.0000 
     30 CA        -21.6370  -36.2140    3.7830 C.3       5 GLC5        0.0000 
     31 CA        -20.7150  -35.9430    5.7840 C.3      10 GLP5        0.0000 
     32 CA        -19.8410  -34.1495    0.4605 C.3       5 GLC5        0.0000 
     33 CA        -21.4830  -32.9920    1.1620 C.3      15 GLL5        0.0000 
     34 CA        -18.1990  -35.3070   -0.2410 C.3      10 GLP5        0.0000 
     35 CA        -23.4000  -32.4915    1.2555 C.3       5 GLC5        0.0000 
     36 CA        -25.3170  -31.9910    1.3490 C.3      10 GLP5        0.0000 
     37 NZ        -19.8940  -29.8510    1.7295 N.4       4 LYC4        0.0000 
     38 NZ        -20.7680  -30.8650    1.3760 N.4      14 LYL4        0.0000 
     39 NZ        -19.0200  -28.8370    2.0830 N.4       9 LYP4        0.0000 
     40 N         -19.8940  -29.8510    1.7295 N.am      2 SEC2        0.0000 
     41 N         -20.7680  -30.8650    1.3760 N.am     12 SEL2        0.0000 
     42 N         -19.0200  -28.8370    2.0830 N.am      7 SEP2        0.0000 
     43 N         -23.0010  -30.6065    2.5735 N.am      2 SEC2        0.0000 
     44 N         -22.0350  -31.6700    2.9760 N.am     12 SEL2        0.0000 
     45 N         -23.9670  -29.5430    2.1710 N.am      7 SEP2        0.0000 
     46 CA        -19.5884  -30.2604   -3.8735 C.3       5 GLC5        0.0000 
     47 CA        -20.7090  -30.6430   -4.7420 C.3      15 GLL5        0.0000 
     48 CA        -18.0560  -29.7000   -3.5770 C.3      10 GLP5        0.0000 
     49 CA        -23.8332  -32.1405   -2.4413 C.3       5 GLC5        0.0000 
     50 CA        -22.9640  -30.9900   -3.7540 C.3      15 GLL5        0.0000 
     51 CA        -20.6287  -36.9450   -4.5145 C.3       5 GLC5        0.0000 
     52 CA        -22.1160  -35.4220   -4.4480 C.3      15 GLL5        0.0000 
     53 CA        -18.8830  -37.9350   -4.2100 C.3      10 GLP5        0.0000 
     54 CA        -21.2170  -38.0615   -2.4500 C.3       5 GLC5        0.0000 
     55 CA        -22.5510  -36.6120   -2.4530 C.3      15 GLL5        0.0000 
     56 CA        -19.6130  -38.9910   -2.0630 C.3      10 GLP5        0.0000 
     57 CA        -24.5630  -36.5030   -2.6235 C.3       5 GLC5        0.0000 
     58 CA        -26.3050  -35.8740   -2.4100 C.3      10 GLP5        0.0000 
     59 CA        -21.1247  -38.0960   -1.3568 C.3       5 GLC5        0.0000 
     60 CA        -22.5370  -36.6250   -1.0330 C.3      15 GLL5        0.0000 
     61 CA        -24.2553  -36.2892   -0.3385 C.3       5 GLC5        0.0000 
     62 CA        -26.0610  -36.5590    0.0190 C.3      10 GLP5        0.0000 
     63 CA        -20.2767  -35.3388    0.0478 C.3       5 GLC5        0.0000 
     64 CA        -21.1627  -37.8750    1.3845 C.3       5 GLC5        0.0000 
     65 CA        -19.5850  -38.0070    2.3330 C.3      10 GLP5        0.0000 
     66 CA        -24.4007  -37.1510    0.2275 C.3       5 GLC5        0.0000 
     67 CA        -21.0190  -36.9565    1.8700 C.3       5 GLC5        0.0000 
     68 CA        -24.2570  -36.2325    0.7130 C.3       5 GLC5        0.0000 
     69 CA        -20.8158  -33.7242    3.0257 C.3       5 GLC5        0.0000 
     70 CA        -22.1900  -34.0870    1.6650 C.3      15 GLL5        0.0000 
     71 CA        -19.7950  -33.9090    4.6380 C.3      10 GLP5        0.0000 
     72 CA        -24.0463  -34.1917    1.6415 C.3       5 GLC5        0.0000 
     73 CA        -25.7710  -33.3870    1.7470 C.3      10 GLP5        0.0000 
@<TRIPOS>BOND
@<TRIPOS>SUBSTRUCTURE
     1 ALC1        7 GROUP        1 X    ALC  0     ROOT ALC X 1
     2 SEC2       40 GROUP        1 X    SEC  0     **** SEC X 2
     3 ASC3        4 GROUP        1 X    ASC  0     **** ASC X 3
     4 LYC4       37 GROUP        1 X    LYC  0     **** LYC X 4
     5 GLC5        1 GROUP        1 X    GLC  0     **** GLC X 6
     6 ALP1        9 GROUP        1 Y    ALP  0     ROOT ALP Y 8
     7 SEP2       42 GROUP        1 Y    SEP  0     **** SEP Y 9
     8 ASP3        6 GROUP        1 Y    ASP  0     **** ASP Y 10
     9 LYP4       39 GROUP        1 Y    LYP  0     **** LYP Y 11
    10 GLP5        3 GROUP        1 Y    GLP  0     **** GLP Y 13
    11 ALL1        8 GROUP        1 Z    ALL  0     ROOT ALL Z 15
    12 SEL2       41 GROUP        1 Z    SEL  0     **** SEL Z 16
    13 ASL3        5 GROUP        1 Z    ASL  0     **** ASL Z 17
    14 LYL4       38 GROUP        1 Z    LYL  0     **** LYL Z 18
    15 GLL5        2 GROUP        1 Z    GLL  0     **** GLL Z 20
@<TRIPOS>SET

