#    Name: 2xj1_XJ1_1_ligand
#    Modification time : Tue Mar 25 06:04:12 2014

@<TRIPOS>MOLECULE
2xj1_XJ1_1_ligand
   47    49     1     0     0
SMALL
NO_CHARGES


@<TRIPOS>ATOM
      1 C3        -20.4820  -32.1700   -4.7560 C.3       1 XJ11307     0.0000 
      2 C4        -20.7090  -30.6430   -4.7420 C.3       1 XJ11307     0.0000 
      3 C5        -21.6460  -30.2350   -3.5910 C.3       1 XJ11307     0.0000 
      4 N8        -21.8830  -28.7740   -3.5700 N.4       1 XJ11307     0.0000 
      5 C6        -22.9640  -30.9900   -3.7540 C.3       1 XJ11307     0.0000 
      6 C7        -22.7710  -32.5200   -3.8110 C.3       1 XJ11307     0.0000 
      7 C2        -21.8260  -32.9080   -4.9490 C.3       1 XJ11307     0.0000 
      8 N1        -21.5930  -34.3680   -5.0880 N.pl3     1 XJ11307     0.0000 
      9 C9        -22.1160  -35.4220   -4.4480 C.ar      1 XJ11307     0.0000 
     10 N10       -22.0800  -35.5190   -3.1030 N.ar      1 XJ11307     0.0000 
     11 C14       -22.6330  -36.4880   -5.1900 C.ar      1 XJ11307     0.0000 
     12 N13       -23.1010  -37.5650   -4.5620 N.ar      1 XJ11307     0.0000 
     13 C12       -23.0910  -37.6520   -3.2210 C.ar      1 XJ11307     0.0000 
     14 C11       -22.5510  -36.6120   -2.4530 C.ar      1 XJ11307     0.0000 
     15 C15       -22.5370  -36.6250   -1.0330 C.ar      1 XJ11307     0.0000 
     16 C16       -22.3620  -35.4140   -0.3590 C.ar      1 XJ11307     0.0000 
     17 C20       -22.7360  -37.7770   -0.2680 C.ar      1 XJ11307     0.0000 
     18 C19       -22.7450  -37.7090    1.1400 C.ar      1 XJ11307     0.0000 
     19 C18       -22.5590  -36.4850    1.7820 C.ar      1 XJ11307     0.0000 
     20 C17       -22.3470  -35.3270    1.0320 C.ar      1 XJ11307     0.0000 
     21 C21       -22.1900  -34.0870    1.6650 C.2       1 XJ11307     0.0000 
     22 C22       -21.4830  -32.9920    1.1620 C.2       1 XJ11307     0.0000 
     23 C23       -21.4240  -31.7880    1.8820 C.2       1 XJ11307     0.0000 
     24 O25       -20.7680  -30.8650    1.3760 O.co2     1 XJ11307     0.0000 
     25 O24       -22.0350  -31.6700    2.9760 O.co2     1 XJ11307     0.0000 
     26 H         -20.0422  -32.4735   -3.8146 H         1 XJ11307     0.0000 
     27 H         -19.8171  -32.4239   -5.5716 H         1 XJ11307     0.0000 
     28 H         -21.1514  -30.3417   -5.6875 H         1 XJ11307     0.0000 
     29 H         -19.7521  -30.1434   -4.6186 H         1 XJ11307     0.0000 
     30 H         -21.1913  -30.5559   -2.6634 H         1 XJ11307     0.0000 
     31 H         -23.4568  -30.6637   -4.6760 H         1 XJ11307     0.0000 
     32 H         -23.6249  -30.7505   -2.9142 H         1 XJ11307     0.0000 
     33 H         -23.7381  -32.9916   -3.9664 H         1 XJ11307     0.0000 
     34 H         -22.3566  -32.8584   -2.8646 H         1 XJ11307     0.0000 
     35 H         -22.2546  -32.5170   -5.8850 H         1 XJ11307     0.0000 
     36 H         -20.8412  -34.5744   -5.8776 H         1 XJ11307     0.0000 
     37 H         -22.6388  -36.4115   -6.2228 H         1 XJ11307     0.0000 
     38 H         -23.4768  -38.4782   -2.7303 H         1 XJ11307     0.0000 
     39 H         -22.2379  -34.5418   -0.9196 H         1 XJ11307     0.0000 
     40 H         -22.8775  -38.6840   -0.7303 H         1 XJ11307     0.0000 
     41 H         -22.8890  -38.5641    1.6867 H         1 XJ11307     0.0000 
     42 H         -22.5779  -36.4350    2.8078 H         1 XJ11307     0.0000 
     43 H         -22.6541  -33.9695    2.6200 H         1 XJ11307     0.0000 
     44 H         -21.0002  -33.0654    0.2562 H         1 XJ11307     0.0000 
     45 H         -21.5832  -28.3615   -2.7098 H         1 XJ11307     0.0000 
     46 H         -21.3919  -28.3075   -4.3056 H         1 XJ11307     0.0000 
     47 H         -22.8523  -28.5534   -3.6787 H         1 XJ11307     0.0000 
@<TRIPOS>BOND
     1    2    1 1    
     2    7    1 1    
     3   26    1 1    
     4   27    1 1    
     5    3    2 1    
     6   28    2 1    
     7   29    2 1    
     8    4    3 1    
     9    5    3 1    
    10   30    3 1    
    11   45    4 1    
    12   46    4 1    
    13   47    4 1    
    14    6    5 1    
    15   31    5 1    
    16   32    5 1    
    17    7    6 1    
    18   33    6 1    
    19   34    6 1    
    20    8    7 1    
    21   35    7 1    
    22    9    8 1    
    23   36    8 1    
    24   10    9 ar   
    25   11    9 ar   
    26   14   10 ar   
    27   12   11 ar   
    28   37   11 1    
    29   13   12 ar   
    30   14   13 ar   
    31   38   13 1    
    32   15   14 1    
    33   16   15 ar   
    34   17   15 ar   
    35   20   16 ar   
    36   39   16 1    
    37   18   17 ar   
    38   40   17 1    
    39   19   18 ar   
    40   41   18 1    
    41   20   19 ar   
    42   42   19 1    
    43   21   20 1    
    44   22   21 2    
    45   43   21 1    
    46   23   22 1    
    47   44   22 1    
    48   24   23 ar   
    49   25   23 ar   
@<TRIPOS>SUBSTRUCTURE
     1 XJ11307     1 GROUP   
@<TRIPOS>SET

