#    Name: 1nqw_5YL_5_INTS_M
#    Modification time : Mon Mar 24 18:42:54 2014

@<TRIPOS>MOLECULE
1nqw_5YL_5_INTS_M
   91     0    12     0     0
SMALL
NO_CHARGES


@<TRIPOS>ATOM
      1 NZ        161.8975   18.3740  143.6910 N.4       3 LYC4        0.0000 
      2 NZ        162.4570   17.5190  142.7220 N.4      11 LYL4        0.0000 
      3 NZ        160.1320   19.7320  144.4920 N.4       7 LYP4        0.0000 
      4 N         161.8975   18.3740  143.6910 N.am      2 SEC2        0.0000 
      5 N         162.4570   17.5190  142.7220 N.am     10 SEL2        0.0000 
      6 N         161.3380   19.2290  144.6600 N.am      6 SEP2        0.0000 
      7 N         162.9910   16.4305  143.5165 N.am      2 SEC2        0.0000 
      8 N         163.5250   15.3420  144.3110 N.am      6 SEP2        0.0000 
      9 NZ        159.9835   18.8290  142.2980 N.4       3 LYC4        0.0000 
     10 NZ        160.5210   18.1070  141.2240 N.4      11 LYL4        0.0000 
     11 N         159.9835   18.8290  142.2980 N.am      2 SEC2        0.0000 
     12 N         160.5210   18.1070  141.2240 N.am     10 SEL2        0.0000 
     13 N         159.4460   19.5510  143.3720 N.am      6 SEP2        0.0000 
     14 N         160.9465   15.0840  143.2715 N.am      2 SEC2        0.0000 
     15 N         160.9180   15.7220  141.9430 N.am     10 SEL2        0.0000 
     16 N         160.9750   14.4460  144.6000 N.am      6 SEP2        0.0000 
     17 N         159.7600   15.4120  142.3255 N.am      2 SEC2        0.0000 
     18 N         158.6020   15.1020  142.7080 N.am      6 SEP2        0.0000 
     19 CA        163.6730   15.8915  141.3105 C.3       4 GLC5        0.0000 
     20 CA        162.5430   16.9000  140.3120 C.3      12 GLL5        0.0000 
     21 CA        164.8030   14.8830  142.3090 C.3       8 GLP5        0.0000 
     22 CA        159.9715   16.1825  138.1785 C.3       4 GLC5        0.0000 
     23 CA        161.9890   16.5080  138.9390 C.3      12 GLL5        0.0000 
     24 CA        157.9540   15.8570  137.4180 C.3       8 GLP5        0.0000 
     25 CA        162.6525   13.9090  135.0410 C.3       4 GLC5        0.0000 
     26 CA        162.5460   15.4530  136.5920 C.3      12 GLL5        0.0000 
     27 CA        162.7590   12.3650  133.4900 C.3       8 GLP5        0.0000 
     28 CA        160.6260   14.9650  135.6025 C.3       4 GLC5        0.0000 
     29 CA        158.7060   14.4770  134.6130 C.3       8 GLP5        0.0000 
     30 CA        163.8020   18.2480  135.4135 C.3       4 GLC5        0.0000 
     31 CA        163.0850   16.6890  135.8510 C.3      12 GLL5        0.0000 
     32 CA        164.5190   19.8070  134.9760 C.3       8 GLP5        0.0000 
     33 CA        164.3625   17.5235  133.7855 C.3       4 GLC5        0.0000 
     34 CA        163.1300   16.4390  134.3720 C.3      12 GLL5        0.0000 
     35 CA        165.5950   18.6080  133.1990 C.3       8 GLP5        0.0000 
     36 N         166.0120   14.0980  135.1865 N.am      2 SEC2        0.0000 
     37 N         165.1480   15.3100  134.6870 N.am     10 SEL2        0.0000 
     38 N         166.8760   12.8860  135.6860 N.am      6 SEP2        0.0000 
     39 O         165.6215   14.7685  132.2340 O.2       1 ALC1        0.0000 
     40 O         164.3310   15.2950  132.6280 O.2       9 ALL1        0.0000 
     41 O         166.9120   14.2420  131.8400 O.2       5 ALP1        0.0000 
     42 N         162.5550   15.1740  129.5905 N.am      2 SEC2        0.0000 
     43 N         163.5110   15.2690  130.5830 N.am     10 SEL2        0.0000 
     44 N         161.5990   15.0790  128.5980 N.am      6 SEP2        0.0000 
     45 N         163.4580   14.0585  129.9280 N.am      2 SEC2        0.0000 
     46 N         163.4050   12.8480  129.2730 N.am      6 SEP2        0.0000 
     47 CA        162.8650   18.3210  133.0265 C.3       4 GLC5        0.0000 
     48 CA        162.1060   16.7380  133.3190 C.3      12 GLL5        0.0000 
     49 CA        163.6240   19.9040  132.7340 C.3       8 GLP5        0.0000 
     50 CA        160.4060   15.6075  133.9660 C.3       4 GLC5        0.0000 
     51 O         160.6200   18.3810  134.7470 O.2       1 ALC1        0.0000 
     52 O         160.9580   17.4430  133.5610 O.2       9 ALL1        0.0000 
     53 O         160.2820   19.3190  135.9330 O.2       5 ALP1        0.0000 
     54 CA        161.9200   19.0225  132.6310 C.3       4 GLC5        0.0000 
     55 CA        160.2160   18.1410  132.5280 C.3      12 GLL5        0.0000 
     56 N         159.4110   15.2020  129.9310 N.am      2 SEC2        0.0000 
     57 N         159.7490   16.3040  131.0270 N.am     10 SEL2        0.0000 
     58 N         159.0730   14.1000  128.8350 N.am      6 SEP2        0.0000 
     59 O         158.5880   18.3600  128.8430 O.2       1 ALC1        0.0000 
     60 O         158.9200   18.8530  130.0810 O.2       9 ALL1        0.0000 
     61 O         158.2560   17.8670  127.6050 O.2       5 ALP1        0.0000 
     62 O         157.5520   18.6720  129.0395 O.2       1 ALC1        0.0000 
     63 O         156.1840   18.4910  127.9980 O.2       5 ALP1        0.0000 
     64 N         156.7710   18.8530  134.2510 N.am      2 SEC2        0.0000 
     65 N         156.7190   18.2970  132.9090 N.am     10 SEL2        0.0000 
     66 N         156.8230   19.4090  135.5930 N.am      6 SEP2        0.0000 
     67 O         155.3430   18.6575  133.3185 O.2       1 ALC1        0.0000 
     68 O         156.7190   18.2970  132.9090 O.2       9 ALL1        0.0000 
     69 O         153.9670   19.0180  133.7280 O.2       5 ALP1        0.0000 
     70 CA        154.5005   20.0195  129.8325 C.3       4 GLC5        0.0000 
     71 CA        156.2840   19.8170  131.0900 C.3      12 GLL5        0.0000 
     72 CA        152.7170   20.2220  128.5750 C.3       8 GLP5        0.0000 
     73 CA        155.2025   21.5300  131.2715 C.3       4 GLC5        0.0000 
     74 CA        154.1210   23.2430  131.4530 C.3       8 GLP5        0.0000 
     75 CA        156.3575   21.0380  129.5055 C.3       4 GLC5        0.0000 
     76 CA        156.4310   22.2590  127.9210 C.3       8 GLP5        0.0000 
     77 N         154.0490   18.5605  130.6885 N.am      2 SEC2        0.0000 
     78 N         155.4900   18.8620  130.4030 N.am     10 SEL2        0.0000 
     79 N         152.6080   18.2590  130.9740 N.am      6 SEP2        0.0000 
     80 O         155.8370   18.6765  129.2005 O.2       1 ALC1        0.0000 
     81 O         155.4900   18.8620  130.4030 O.2       9 ALL1        0.0000 
     82 CA        162.6885   14.4768  133.6678 C.3       4 GLC5        0.0000 
     83 CA        159.1927   16.0892  133.4065 C.3       4 GLC5        0.0000 
     84 CA        160.0573   17.5718  129.8483 C.3       4 GLC5        0.0000 
     85 CA        159.1430   17.2620  131.8720 C.3      12 GLL5        0.0000 
     86 CA        161.4520   17.4510  128.2460 C.3       8 GLP5        0.0000 
     87 CA        157.7792   16.3158  130.5482 C.3       4 GLC5        0.0000 
     88 CA        156.8960   14.9390  129.6460 C.3       8 GLP5        0.0000 
     89 CA        157.5643   21.2733  132.3930 C.3       4 GLC5        0.0000 
     90 CA        157.3510   19.0760  131.8860 C.3      12 GLL5        0.0000 
     91 CA        158.3110   23.1000  133.2980 C.3       8 GLP5        0.0000 
@<TRIPOS>BOND
@<TRIPOS>SUBSTRUCTURE
     1 ALC1       39 GROUP        1 X    ALC  0     ROOT ALC X 1
     2 SEC2        4 GROUP        1 X    SEC  0     **** SEC X 2
     3 LYC4        1 GROUP        1 X    LYC  0     **** LYC X 4
     4 GLC5       19 GROUP        1 X    GLC  0     **** GLC X 6
     5 ALP1       41 GROUP        1 Y    ALP  0     ROOT ALP Y 8
     6 SEP2        6 GROUP        1 Y    SEP  0     **** SEP Y 9
     7 LYP4        3 GROUP        1 Y    LYP  0     **** LYP Y 11
     8 GLP5       21 GROUP        1 Y    GLP  0     **** GLP Y 13
     9 ALL1       40 GROUP        1 Z    ALL  0     ROOT ALL Z 15
    10 SEL2        5 GROUP        1 Z    SEL  0     **** SEL Z 16
    11 LYL4        2 GROUP        1 Z    LYL  0     **** LYL Z 18
    12 GLL5       20 GROUP        1 Z    GLL  0     **** GLL Z 20
@<TRIPOS>SET

