#    Name: 1nqw_5YL_5_ligand
#    Modification time : Mon Mar 24 18:42:54 2014

@<TRIPOS>MOLECULE
1nqw_5YL_5_ligand
   51    51     1     0     0
SMALL
NO_CHARGES


@<TRIPOS>ATOM
      1 O3P       162.4570   17.5190  142.7220 O.co2     1 5YL5201     0.0000 
      2 P         161.5360   17.0470  141.6170 P.3       1 5YL5201     0.0000 
      3 O1P       160.5210   18.1070  141.2240 O.co2     1 5YL5201     0.0000 
      4 O2P       160.9180   15.7220  141.9430 O.co2     1 5YL5201     0.0000 
      5 C17       162.5430   16.9000  140.3120 C.3       1 5YL5201     0.0000 
      6 C16       161.9890   16.5080  138.9390 C.3       1 5YL5201     0.0000 
      7 C15       162.8280   15.4860  138.1280 C.3       1 5YL5201     0.0000 
      8 C14       162.5460   15.4530  136.5920 C.3       1 5YL5201     0.0000 
      9 C13       163.0850   16.6890  135.8510 C.3       1 5YL5201     0.0000 
     10 C5        163.1300   16.4390  134.3720 C.2       1 5YL5201     0.0000 
     11 C4        164.2540   15.6400  133.8980 C.2       1 5YL5201     0.0000 
     12 O4        165.1480   15.3100  134.6870 O.2       1 5YL5201     0.0000 
     13 N3        164.3310   15.2950  132.6280 N.am      1 5YL5201     0.0000 
     14 C2        163.3840   15.6130  131.7550 C.2       1 5YL5201     0.0000 
     15 O2        163.5110   15.2690  130.5830 O.2       1 5YL5201     0.0000 
     16 N1        162.3140   16.2970  132.0750 N.am      1 5YL5201     0.0000 
     17 C6        162.1060   16.7380  133.3190 C.2       1 5YL5201     0.0000 
     18 N7        160.9580   17.4430  133.5610 N.pl3     1 5YL5201     0.0000 
     19 C8        160.2160   18.1410  132.5280 C.3       1 5YL5201     0.0000 
     20 C9        159.1430   17.2620  131.8720 C.3       1 5YL5201     0.0000 
     21 O9        159.7490   16.3040  131.0270 O.3       1 5YL5201     0.0000 
     22 C10       158.1820   18.1230  131.0290 C.3       1 5YL5201     0.0000 
     23 O10       158.9200   18.8530  130.0810 O.3       1 5YL5201     0.0000 
     24 C11       157.3510   19.0760  131.8860 C.3       1 5YL5201     0.0000 
     25 O11       156.7190   18.2970  132.9090 O.3       1 5YL5201     0.0000 
     26 C12       156.2840   19.8170  131.0900 C.3       1 5YL5201     0.0000 
     27 O12       155.4900   18.8620  130.4030 O.3       1 5YL5201     0.0000 
     28 H         163.3326   16.1701  140.6288 H         1 5YL5201     0.0000 
     29 H         163.0809   17.8809  140.2419 H         1 5YL5201     0.0000 
     30 H         161.8704   17.4238  138.3238 H         1 5YL5201     0.0000 
     31 H         160.9682   16.0926  139.0680 H         1 5YL5201     0.0000 
     32 H         162.6480   14.4768  138.5354 H         1 5YL5201     0.0000 
     33 H         163.8982   15.7062  138.2794 H         1 5YL5201     0.0000 
     34 H         161.4647   15.3838  136.4411 H         1 5YL5201     0.0000 
     35 H         163.0068   14.5522  136.1758 H         1 5YL5201     0.0000 
     36 H         164.0846   16.9094  136.2243 H         1 5YL5201     0.0000 
     37 H         162.4343   17.5355  136.0683 H         1 5YL5201     0.0000 
     38 H         165.1767   14.7449  132.2893 H         1 5YL5201     0.0000 
     39 H         161.5841   16.5132  131.3330 H         1 5YL5201     0.0000 
     40 H         160.5678   17.5018  134.5308 H         1 5YL5201     0.0000 
     41 H         160.8909   18.4984  131.7291 H         1 5YL5201     0.0000 
     42 H         159.7120   19.0350  132.9384 H         1 5YL5201     0.0000 
     43 H         158.5647   16.7950  132.6527 H         1 5YL5201     0.0000 
     44 H         157.4896   17.4369  130.5313 H         1 5YL5201     0.0000 
     45 H         158.0196   19.8008  132.3300 H         1 5YL5201     0.0000 
     46 H         156.7917   20.4987  130.4034 H         1 5YL5201     0.0000 
     47 H         155.6949   20.4114  131.7924 H         1 5YL5201     0.0000 
     48 H         159.9723   16.8023  130.1893 H         1 5YL5201     0.0000 
     49 H         158.6202   18.5022  129.1938 H         1 5YL5201     0.0000 
     50 H         155.8107   18.7009  133.0177 H         1 5YL5201     0.0000 
     51 H         155.4858   19.1663  129.4504 H         1 5YL5201     0.0000 
@<TRIPOS>BOND
     1    2    1 ar   
     2    3    2 ar   
     3    4    2 ar   
     4    5    2 1    
     5    6    5 1    
     6   28    5 1    
     7   29    5 1    
     8    7    6 1    
     9   30    6 1    
    10   31    6 1    
    11    8    7 1    
    12   32    7 1    
    13   33    7 1    
    14    9    8 1    
    15   34    8 1    
    16   35    8 1    
    17   10    9 1    
    18   36    9 1    
    19   37    9 1    
    20   11   10 1    
    21   17   10 2    
    22   12   11 2    
    23   13   11 1    
    24   14   13 1    
    25   38   13 1    
    26   15   14 2    
    27   16   14 1    
    28   17   16 1    
    29   39   16 1    
    30   18   17 1    
    31   19   18 1    
    32   40   18 1    
    33   20   19 1    
    34   41   19 1    
    35   42   19 1    
    36   21   20 1    
    37   22   20 1    
    38   43   20 1    
    39   48   21 1    
    40   23   22 1    
    41   24   22 1    
    42   44   22 1    
    43   49   23 1    
    44   25   24 1    
    45   26   24 1    
    46   45   24 1    
    47   50   25 1    
    48   27   26 1    
    49   46   26 1    
    50   47   26 1    
    51   51   27 1    
@<TRIPOS>SUBSTRUCTURE
     1 5YL5201     1 GROUP   
@<TRIPOS>SET

