#    Name: 1cf2_NAP_4_INTS_M
#    Modification time : Mon Mar 24 20:38:40 2014

@<TRIPOS>MOLECULE
1cf2_NAP_4_INTS_M
   86     0    12     0     0
SMALL
NO_CHARGES


@<TRIPOS>ATOM
      1 N          47.5605   26.8800   22.8355 N.am      2 SEC2        0.0000 
      2 N          48.2460   26.6280   21.5490 N.am     10 SEL2        0.0000 
      3 N          46.8750   27.1320   24.1220 N.am      6 SEP2        0.0000 
      4 N          46.9565   27.3955   21.6700 N.am      2 SEC2        0.0000 
      5 N          45.6670   28.1630   21.7910 N.am      6 SEP2        0.0000 
      6 CA         53.0760   23.2035   25.6085 C.3       4 GLC5        0.0000 
      7 CA         54.0110   23.7980   24.1630 C.3      12 GLL5        0.0000 
      8 CA         52.1410   22.6090   27.0540 C.3       8 GLP5        0.0000 
      9 CA         53.3040   22.4725   22.5535 C.3       4 GLC5        0.0000 
     10 CA         52.5970   21.1470   20.9440 C.3       8 GLP5        0.0000 
     11 CA         58.7360   21.0605   25.1060 C.3       4 GLC5        0.0000 
     12 CA         57.2740   20.2560   23.7790 C.3      12 GLL5        0.0000 
     13 CA         60.1980   21.8650   26.4330 C.3       8 GLP5        0.0000 
     14 CA         58.2625   21.2780   26.1610 C.3       4 GLC5        0.0000 
     15 CA         56.3270   20.6910   25.8890 C.3      12 GLL5        0.0000 
     16 CA         54.8220   19.9645   25.2900 C.3       4 GLC5        0.0000 
     17 CA         53.3170   19.2380   24.6910 C.3       8 GLP5        0.0000 
     18 N          45.6920   24.7630   23.8690 N.am      2 SEC2        0.0000 
     19 N          46.5480   24.2390   22.7850 N.am     10 SEL2        0.0000 
     20 N          44.8360   25.2870   24.9530 N.am      6 SEP2        0.0000 
     21 CA         47.8195   20.5865   23.8660 C.3       4 GLC5        0.0000 
     22 CA         47.0610   21.2780   21.8900 C.3      12 GLL5        0.0000 
     23 CA         48.5780   19.8950   25.8420 C.3       8 GLP5        0.0000 
     24 N          45.1680   17.0000   19.8905 N.am      2 SEC2        0.0000 
     25 N          46.2310   17.8840   20.3660 N.am     10 SEL2        0.0000 
     26 N          44.1050   16.1160   19.4150 N.am      6 SEP2        0.0000 
     27 CA         44.3905   18.6185   22.2120 C.3       4 GLC5        0.0000 
     28 CA         44.1270   19.7370   20.8650 C.3      12 GLL5        0.0000 
     29 CA         44.6540   17.5000   23.5590 C.3       8 GLP5        0.0000 
     30 O          42.9265   26.1425   19.2235 O.2       1 ALC1        0.0000 
     31 O          43.3290   24.6650   19.4610 O.2       9 ALL1        0.0000 
     32 O          42.5240   27.6200   18.9860 O.2       5 ALP1        0.0000 
     33 CA         39.4030   21.9275   19.7200 C.3       4 GLC5        0.0000 
     34 CA         40.8330   22.4460   21.0120 C.3      12 GLL5        0.0000 
     35 CA         37.9730   21.4090   18.4280 C.3       8 GLP5        0.0000 
     36 CA         38.9310   21.3000   20.7610 C.3       4 GLC5        0.0000 
     37 CA         40.7830   21.1420   21.5120 C.3      12 GLL5        0.0000 
     38 CA         37.0790   21.4580   20.0100 C.3       8 GLP5        0.0000 
     39 CA         43.2115   18.8440   22.5250 C.3       4 GLC5        0.0000 
     40 CA         41.7690   20.1880   21.4910 C.3      12 GLL5        0.0000 
     41 CA         40.7555   20.3110   23.4050 C.3       4 GLC5        0.0000 
     42 CA         39.7420   20.4340   25.3190 C.3       8 GLP5        0.0000 
     43 NZ         54.5120   29.1770   24.1170 N.4       3 LYC4        0.0000 
     44 NZ         54.2870   28.1910   23.1230 N.4      11 LYL4        0.0000 
     45 NZ         54.7370   30.1630   25.1110 N.4       7 LYP4        0.0000 
     46 NZ         55.5560   29.1000   24.7420 N.4       3 LYC4        0.0000 
     47 NZ         56.3750   28.0370   24.3730 N.4      11 LYL4        0.0000 
     48 N          55.5560   29.1000   24.7420 N.am      2 SEC2        0.0000 
     49 N          56.3750   28.0370   24.3730 N.am     10 SEL2        0.0000 
     50 N          54.7370   30.1630   25.1110 N.am      6 SEP2        0.0000 
     51 N          57.1635   27.2565   25.0925 N.am      2 SEC2        0.0000 
     52 N          57.9520   26.4760   25.8120 N.am      6 SEP2        0.0000 
     53 N          57.6700   28.3725   24.4775 N.am      2 SEC2        0.0000 
     54 N          58.9650   28.7080   24.5820 N.am      6 SEP2        0.0000 
     55 N          57.4100   26.6920   22.4295 N.am      2 SEC2        0.0000 
     56 N          56.1770   26.8730   22.2000 N.am     10 SEL2        0.0000 
     57 N          58.6430   26.5110   22.6590 N.am      6 SEP2        0.0000 
     58 CA         51.3277   22.0333   23.2538 C.3       4 GLC5        0.0000 
     59 CA         51.7420   24.2510   23.8630 C.3      12 GLL5        0.0000 
     60 CA         51.3580   19.9580   23.2530 C.3       8 GLP5        0.0000 
     61 CA         51.9472   22.6277   22.0993 C.3       4 GLC5        0.0000 
     62 CA         50.8530   23.9660   22.6460 C.3      12 GLL5        0.0000 
     63 CA         52.1365   23.7610   25.4417 C.3       4 GLC5        0.0000 
     64 CA         50.4709   25.8439   24.3836 C.3       4 GLC5        0.0000 
     65 CA         49.0320   26.8460   25.2420 C.3       8 GLP5        0.0000 
     66 CA         56.0715   24.4415   23.7565 C.3       4 GLC5        0.0000 
     67 CA         53.9610   25.1740   23.4590 C.3      12 GLL5        0.0000 
     68 CA         58.1570   24.3970   23.7020 C.3       8 GLP5        0.0000 
     69 CA         56.0050   19.1303   22.4627 C.3       4 GLC5        0.0000 
     70 CA         56.4680   21.3110   23.2960 C.3      12 GLL5        0.0000 
     71 CA         55.1390   17.4770   21.3880 C.3       8 GLP5        0.0000 
     72 CA         57.2127   22.8781   23.7916 C.3       4 GLC5        0.0000 
     73 CA         54.7927   20.2986   24.2861 C.3       4 GLC5        0.0000 
     74 CA         45.5042   18.5675   22.2918 C.3       4 GLC5        0.0000 
     75 CA         46.3200   19.9670   21.7080 C.3      12 GLL5        0.0000 
     76 CA         46.5565   19.1017   18.2665 C.3       4 GLC5        0.0000 
     77 CA         46.3890   19.3030   20.3410 C.3      12 GLL5        0.0000 
     78 CA         47.3560   18.5810   16.5050 C.3       8 GLP5        0.0000 
     79 CA         45.3585   17.8888   19.1350 C.3       4 GLC5        0.0000 
     80 CA         44.9600   16.1550   18.2420 C.3       8 GLP5        0.0000 
     81 CA         42.9215   22.7638   22.1632 C.3       4 GLC5        0.0000 
     82 CA         43.1450   21.9060   20.4070 C.3      12 GLL5        0.0000 
     83 CA         43.2280   23.1840   23.8980 C.3       8 GLP5        0.0000 
     84 CA         40.1835   21.8535   23.1175 C.3       4 GLC5        0.0000 
     85 CA         39.5590   21.9130   24.9730 C.3       8 GLP5        0.0000 
     86 CA         42.2583   22.0875   22.6372 C.3       4 GLC5        0.0000 
@<TRIPOS>BOND
@<TRIPOS>SUBSTRUCTURE
     1 ALC1       30 GROUP        1 X    ALC  0     ROOT ALC X 1
     2 SEC2        1 GROUP        1 X    SEC  0     **** SEC X 2
     3 LYC4       43 GROUP        1 X    LYC  0     **** LYC X 4
     4 GLC5        6 GROUP        1 X    GLC  0     **** GLC X 6
     5 ALP1       32 GROUP        1 Y    ALP  0     ROOT ALP Y 8
     6 SEP2        3 GROUP        1 Y    SEP  0     **** SEP Y 9
     7 LYP4       45 GROUP        1 Y    LYP  0     **** LYP Y 11
     8 GLP5        8 GROUP        1 Y    GLP  0     **** GLP Y 13
     9 ALL1       31 GROUP        1 Z    ALL  0     ROOT ALL Z 15
    10 SEL2        2 GROUP        1 Z    SEL  0     **** SEL Z 16
    11 LYL4       44 GROUP        1 Z    LYL  0     **** LYL Z 18
    12 GLL5        7 GROUP        1 Z    GLL  0     **** GLL Z 20
@<TRIPOS>SET

