#    Name: 1cf2_NAP_4_ligand
#    Modification time : Mon Mar 24 20:38:40 2014

@<TRIPOS>MOLECULE
1cf2_NAP_4_ligand
   73    77     1     0     0
SMALL
NO_CHARGES


@<TRIPOS>ATOM
      1 PA         49.0750   25.4400   21.2230 P.3       1 NAP340      0.0000 
      2 O1A        50.0140   25.6140   20.1130 O.co2     1 NAP340      0.0000 
      3 O2A        48.2460   26.6280   21.5490 O.co2     1 NAP340      0.0000 
      4 O5B        49.9060   25.0700   22.5350 O.3       1 NAP340      0.0000 
      5 C5B        50.8530   23.9660   22.6460 C.3       1 NAP340      0.0000 
      6 C4B        51.7420   24.2510   23.8630 C.3       1 NAP340      0.0000 
      7 O4B        52.7490   23.1990   23.9290 O.3       1 NAP340      0.0000 
      8 C3B        52.5220   25.5750   23.7960 C.3       1 NAP340      0.0000 
      9 O3B        52.5630   26.2020   25.0750 O.3       1 NAP340      0.0000 
     10 C2B        53.9610   25.1740   23.4590 C.3       1 NAP340      0.0000 
     11 O2B        54.8870   25.9900   24.1930 O.3       1 NAP340      0.0000 
     12 C1B        54.0110   23.7980   24.1630 C.3       1 NAP340      0.0000 
     13 N9A        54.9960   22.9100   23.5220 N.pl3     1 NAP340      0.0000 
     14 C8A        55.4030   22.8370   22.2290 C.2       1 NAP340      0.0000 
     15 N7A        56.2930   21.8560   22.0510 N.2       1 NAP340      0.0000 
     16 C5A        56.4680   21.3110   23.2960 C.ar      1 NAP340      0.0000 
     17 C6A        57.2740   20.2560   23.7790 C.ar      1 NAP340      0.0000 
     18 N6A        58.0970   19.5760   22.9910 N.pl3     1 NAP340      0.0000 
     19 N1A        57.1740   19.9590   25.0960 N.ar      1 NAP340      0.0000 
     20 C2A        56.3270   20.6910   25.8890 C.ar      1 NAP340      0.0000 
     21 N3A        55.5480   21.6780   25.5460 N.ar      1 NAP340      0.0000 
     22 C4A        55.6660   21.9350   24.2250 C.ar      1 NAP340      0.0000 
     23 O3         48.1700   24.1470   20.9550 O.3       1 NAP340      0.0000 
     24 PN         46.6550   23.8680   21.3560 P.3       1 NAP340      0.0000 
     25 O1N        45.7220   24.6270   20.5130 O.co2     1 NAP340      0.0000 
     26 O2N        46.5480   24.2390   22.7850 O.co2     1 NAP340      0.0000 
     27 O5D        46.5350   22.2920   21.0120 O.3       1 NAP340      0.0000 
     28 C5D        47.0610   21.2780   21.8900 C.3       1 NAP340      0.0000 
     29 C4D        46.3200   19.9670   21.7080 C.3       1 NAP340      0.0000 
     30 O4D        44.8980   20.2060   21.9690 O.3       1 NAP340      0.0000 
     31 C3D        46.3890   19.3030   20.3410 C.3       1 NAP340      0.0000 
     32 O3D        46.2310   17.8840   20.3660 O.3       1 NAP340      0.0000 
     33 C2D        45.1250   19.9420   19.7150 C.3       1 NAP340      0.0000 
     34 O2D        44.6890   19.1700   18.6090 O.3       1 NAP340      0.0000 
     35 C1D        44.1270   19.7370   20.8650 C.3       1 NAP340      0.0000 
     36 N1N        42.9790   20.6490   20.8900 N.pl3     1 NAP340      0.0000 
     37 C2N        43.1450   21.9060   20.4070 C.ar      1 NAP340      0.0000 
     38 C3N        42.0850   22.7810   20.4500 C.ar      1 NAP340      0.0000 
     39 C7N        42.1330   24.2410   19.8940 C.2       1 NAP340      0.0000 
     40 O7N        41.1200   24.9330   19.8770 O.2       1 NAP340      0.0000 
     41 N7N        43.3290   24.6650   19.4610 N.am      1 NAP340      0.0000 
     42 C4N        40.8330   22.4460   21.0120 C.ar      1 NAP340      0.0000 
     43 C5N        40.7830   21.1420   21.5120 C.ar      1 NAP340      0.0000 
     44 C6N        41.7690   20.1880   21.4910 C.ar      1 NAP340      0.0000 
     45 P2B        55.4400   27.2850   23.4290 P.3       1 NAP340      0.0000 
     46 O1X        54.2870   28.1910   23.1230 O.co2     1 NAP340      0.0000 
     47 O2X        56.3750   28.0370   24.3730 O.co2     1 NAP340      0.0000 
     48 O3X        56.1770   26.8730   22.2000 O.co2     1 NAP340      0.0000 
     49 H          51.4851   23.8992   21.7712 H         1 NAP340      0.0000 
     50 H          50.3449   23.0254   22.8087 H         1 NAP340      0.0000 
     51 H          51.1505   24.2384   24.7527 H         1 NAP340      0.0000 
     52 H          52.1466   26.1717   23.0333 H         1 NAP340      0.0000 
     53 H          54.1055   25.0664   22.4816 H         1 NAP340      0.0000 
     54 H          54.2068   23.9323   25.1785 H         1 NAP340      0.0000 
     55 H          55.0760   23.4379   21.5186 H         1 NAP340      0.0000 
     56 H          58.6388   18.8610   23.4329 H         1 NAP340      0.0000 
     57 H          58.1011   19.8400   22.0265 H         1 NAP340      0.0000 
     58 H          56.3228   20.3854   26.9498 H         1 NAP340      0.0000 
     59 H          46.9694   21.5791   22.9445 H         1 NAP340      0.0000 
     60 H          48.1286   21.0975   21.6938 H         1 NAP340      0.0000 
     61 H          46.6746   19.2512   22.4547 H         1 NAP340      0.0000 
     62 H          47.2109   19.6676   19.8185 H         1 NAP340      0.0000 
     63 H          45.2778   20.9354   19.5642 H         1 NAP340      0.0000 
     64 H          43.8838   18.7479   20.9757 H         1 NAP340      0.0000 
     65 H          44.0466   22.2080   20.0129 H         1 NAP340      0.0000 
     66 H          43.3729   25.6141   19.1490 H         1 NAP340      0.0000 
     67 H          44.0701   23.9942   19.4888 H         1 NAP340      0.0000 
     68 H          40.0817   23.0694   21.0442 H         1 NAP340      0.0000 
     69 H          39.8402   20.8562   21.9741 H         1 NAP340      0.0000 
     70 H          41.6808   19.2806   21.8428 H         1 NAP340      0.0000 
     71 H          53.5053   26.5209   25.1767 H         1 NAP340      0.0000 
     72 H          47.0753   17.5369   20.7742 H         1 NAP340      0.0000 
     73 H          45.0069   18.2414   18.8003 H         1 NAP340      0.0000 
@<TRIPOS>BOND
     1    2    1 ar   
     2    3    1 ar   
     3    4    1 1    
     4   23    1 1    
     5    5    4 1    
     6    6    5 1    
     7   49    5 1    
     8   50    5 1    
     9    7    6 1    
    10    8    6 1    
    11   51    6 1    
    12   12    7 1    
    13    9    8 1    
    14   10    8 1    
    15   52    8 1    
    16   71    9 1    
    17   11   10 1    
    18   12   10 1    
    19   53   10 1    
    20   45   11 1    
    21   13   12 1    
    22   54   12 1    
    23   14   13 1    
    24   22   13 1    
    25   15   14 2    
    26   55   14 1    
    27   16   15 1    
    28   17   16 ar   
    29   22   16 ar   
    30   18   17 1    
    31   19   17 ar   
    32   56   18 1    
    33   57   18 1    
    34   20   19 ar   
    35   21   20 ar   
    36   58   20 1    
    37   22   21 ar   
    38   24   23 1    
    39   25   24 ar   
    40   26   24 ar   
    41   27   24 1    
    42   28   27 1    
    43   29   28 1    
    44   59   28 1    
    45   60   28 1    
    46   30   29 1    
    47   31   29 1    
    48   61   29 1    
    49   35   30 1    
    50   32   31 1    
    51   33   31 1    
    52   62   31 1    
    53   72   32 1    
    54   34   33 1    
    55   35   33 1    
    56   63   33 1    
    57   73   34 1    
    58   36   35 1    
    59   64   35 1    
    60   37   36 ar   
    61   44   36 ar   
    62   38   37 ar   
    63   65   37 1    
    64   39   38 1    
    65   42   38 ar   
    66   40   39 2    
    67   41   39 am   
    68   66   41 1    
    69   67   41 1    
    70   43   42 ar   
    71   68   42 1    
    72   44   43 ar   
    73   69   43 1    
    74   70   44 1    
    75   46   45 ar   
    76   47   45 ar   
    77   48   45 ar   
@<TRIPOS>SUBSTRUCTURE
     1 NAP340      1 GROUP   
@<TRIPOS>SET

