#    Name: 2oi0_283_1_INTS_M
#    Modification time : Tue Mar 25 22:42:46 2014

@<TRIPOS>MOLECULE
2oi0_283_1_INTS_M
   52     0     9     0     0
SMALL
NO_CHARGES


@<TRIPOS>ATOM
      1 CA         47.3590   27.2935    1.1535 C.3       3 GLC5        0.0000 
      2 CA         46.0850   28.4790    2.5260 C.3       9 GLL5        0.0000 
      3 CA         48.6330   26.1080   -0.2190 C.3       6 GLP5        0.0000 
      4 CA         46.1020   30.7345    1.3580 C.3       3 GLC5        0.0000 
      5 CA         45.1140   28.8150    1.5370 C.3       9 GLL5        0.0000 
      6 CA         47.0900   32.6540    1.1790 C.3       6 GLP5        0.0000 
      7 CA         42.3915   26.6425    2.6040 C.3       3 GLC5        0.0000 
      8 CA         43.3680   28.5170    3.1750 C.3       9 GLL5        0.0000 
      9 CA         41.4150   24.7680    2.0330 C.3       6 GLP5        0.0000 
     10 CA         43.7420   29.6635    4.7675 C.3       3 GLC5        0.0000 
     11 CA         44.1160   30.8100    6.3600 C.3       6 GLP5        0.0000 
     12 CA         46.7630   28.4155    6.1665 C.3       3 GLC5        0.0000 
     13 CA         47.9140   27.7740    4.7600 C.3       9 GLL5        0.0000 
     14 CA         45.6120   29.0570    7.5730 C.3       6 GLP5        0.0000 
     15 CA         49.7515   23.6470    4.4605 C.3       3 GLC5        0.0000 
     16 CA         48.5850   23.9670    3.0390 C.3       9 GLL5        0.0000 
     17 CA         50.9180   23.3270    5.8820 C.3       6 GLP5        0.0000 
     18 CA         48.4510   26.2360    1.9865 C.3       3 GLC5        0.0000 
     19 CA         48.2690   26.3640    4.1920 C.3       9 GLL5        0.0000 
     20 N          40.5445   27.5090    0.9575 N.am      1 SEC2        0.0000 
     21 N          41.1530   28.7870    1.1990 N.am      7 SEL2        0.0000 
     22 N          39.9360   26.2310    0.7160 N.am      4 SEP2        0.0000 
     23 N          40.2945   27.8730    2.2775 N.am      1 SEC2        0.0000 
     24 N          39.4360   26.9590    3.3560 N.am      4 SEP2        0.0000 
     25 Zn         42.6395   32.0880    2.7470 Zn        2 ZIC7        0.0000 
     26 Zn         42.2240   31.0160    0.7550 Zn        8 ZIL7        0.0000 
     27 Zn         43.0550   33.1600    4.7390 Zn        5 ZIP7        0.0000 
     28 CA         39.2745   31.3690    5.1555 C.3       3 GLC5        0.0000 
     29 CA         41.1580   31.9760    4.5860 C.3       9 GLL5        0.0000 
     30 CA         37.3910   30.7620    5.7250 C.3       6 GLP5        0.0000 
     31 CA         42.6370   31.3930    5.4730 C.3       3 GLC5        0.0000 
     32 CA         41.6970   32.8455    6.1395 C.3       3 GLC5        0.0000 
     33 CA         42.2360   33.7150    7.6930 C.3       6 GLP5        0.0000 
     34 CA         38.5290   32.6070    2.8585 C.3       3 GLC5        0.0000 
     35 CA         40.2900   31.9010    1.7620 C.3       9 GLL5        0.0000 
     36 CA         36.7680   33.3130    3.9550 C.3       6 GLP5        0.0000 
     37 CA         46.8377   29.2045    0.4682 C.3       3 GLC5        0.0000 
     38 CA         48.0760   29.7620   -1.0950 C.3       6 GLP5        0.0000 
     39 CA         44.7437   26.6528    5.4238 C.3       3 GLC5        0.0000 
     40 CA         45.6660   28.1620    3.8390 C.3       9 GLL5        0.0000 
     41 CA         44.4990   25.1330    6.8560 C.3       6 GLP5        0.0000 
     42 CA         45.1427   29.2022    5.3413 C.3       3 GLC5        0.0000 
     43 CA         44.3110   28.1830    4.1440 C.3       9 GLL5        0.0000 
     44 CA         45.2970   30.2320    6.6910 C.3       6 GLP5        0.0000 
     45 CA         48.0093   24.8500    1.5857 C.3       3 GLC5        0.0000 
     46 CA         48.4120   25.3010    3.6900 C.3       9 GLL5        0.0000 
     47 CA         47.5200   25.0660   -0.1930 C.3       6 GLP5        0.0000 
     48 CA         48.5463   24.8448    5.4675 C.3       3 GLC5        0.0000 
     49 CA         48.7520   23.8570    6.9940 C.3       6 GLP5        0.0000 
     50 CA         39.2135   30.1668    0.7392 C.3       3 GLC5        0.0000 
     51 CA         40.8840   31.5860    0.4110 C.3       9 GLL5        0.0000 
     52 CA         37.8400   28.5900    0.3920 C.3       6 GLP5        0.0000 
@<TRIPOS>BOND
@<TRIPOS>SUBSTRUCTURE
     1 SEC2       20 GROUP        1 X    SEC  0     ROOT SEC X 2
     2 ZIC7       25 GROUP        1 X    ZIC  0     **** ZIC X 5
     3 GLC5        1 GROUP        1 X    GLC  0     **** GLC X 6
     4 SEP2       22 GROUP        1 Y    SEP  0     ROOT SEP Y 9
     5 ZIP7       27 GROUP        1 Y    ZIP  0     **** ZIP Y 12
     6 GLP5        3 GROUP        1 Y    GLP  0     **** GLP Y 13
     7 SEL2       21 GROUP        1 Z    SEL  0     ROOT SEL Z 16
     8 ZIL7       26 GROUP        1 Z    ZIL  0     **** ZIL Z 19
     9 GLL5        2 GROUP        1 Z    GLL  0     **** GLL Z 20
@<TRIPOS>SET

