#    Name: 2oi0_283_1_ligand
#    Modification time : Tue Mar 25 22:42:46 2014

@<TRIPOS>MOLECULE
2oi0_283_1_ligand
   36    37     1     0     0
SMALL
NO_CHARGES


@<TRIPOS>ATOM
      1 C          46.0850   28.4790    2.5260 C.ar      1 2831        0.0000 
      2 C1         45.1140   28.8150    1.5370 C.ar      1 2831        0.0000 
      3 C2         43.3680   28.5170    3.1750 C.ar      1 2831        0.0000 
      4 C3         44.3110   28.1830    4.1440 C.ar      1 2831        0.0000 
      5 C4         45.6660   28.1620    3.8390 C.ar      1 2831        0.0000 
      6 O          46.4720   27.8170    4.9230 O.3       1 2831        0.0000 
      7 C5         47.9140   27.7740    4.7600 C.3       1 2831        0.0000 
      8 C6         48.5850   23.9670    3.0390 C.3       1 2831        0.0000 
      9 C7         48.4120   25.3010    3.6900 C.1       1 2831        0.0000 
     10 C8         48.2690   26.3640    4.1920 C.1       1 2831        0.0000 
     11 C9         43.7530   28.8330    1.8840 C.ar      1 2831        0.0000 
     12 O1         42.9950   28.7670   -0.4940 O.2       1 2831        0.0000 
     13 O2         41.1530   28.7870    1.1990 O.2       1 2831        0.0000 
     14 S          42.4650   29.2650    0.7610 S.o2      1 2831        0.0000 
     15 C10        40.8840   31.5860    0.4110 C.3       1 2831        0.0000 
     16 N          42.2240   31.0160    0.7550 N.pl3     1 2831        0.0000 
     17 C11        42.4910   31.6260    2.0950 C.3       1 2831        0.0000 
     18 C12        41.2000   31.4320    2.8880 C.3       1 2831        0.0000 
     19 S1         41.1580   31.9760    4.5860 S.3       1 2831        0.0000 
     20 C13        40.2900   31.9010    1.7620 C.3       1 2831        0.0000 
     21 H          47.0716   28.4689    2.2832 H         1 2831        0.0000 
     22 H          45.4139   29.0380    0.5922 H         1 2831        0.0000 
     23 H          42.3633   28.5279    3.4287 H         1 2831        0.0000 
     24 H          43.9974   27.9484    5.1004 H         1 2831        0.0000 
     25 H          48.4305   27.8855    5.7007 H         1 2831        0.0000 
     26 H          48.2625   28.5081    4.0502 H         1 2831        0.0000 
     27 H          40.2881   30.8580   -0.0845 H         1 2831        0.0000 
     28 H          40.9959   32.4811   -0.1518 H         1 2831        0.0000 
     29 H          42.6910   32.6721    1.9975 H         1 2831        0.0000 
     30 H          43.2885   31.1121    2.5886 H         1 2831        0.0000 
     31 H          41.0818   30.3054    2.9357 H         1 2831        0.0000 
     32 H          39.3189   31.4081    1.8590 H         1 2831        0.0000 
     33 H          40.1372   32.9798    1.8523 H         1 2831        0.0000 
     34 H          48.6280   24.0427    2.0428 H         1 2831        0.0000 
     35 H          49.4267   23.5155    3.3352 H         1 2831        0.0000 
     36 H          47.8293   23.3482    3.2536 H         1 2831        0.0000 
@<TRIPOS>BOND
     1    2    1 ar   
     2    5    1 ar   
     3   21    1 1    
     4   11    2 ar   
     5   22    2 1    
     6    4    3 ar   
     7   11    3 ar   
     8   23    3 1    
     9    5    4 ar   
    10   24    4 1    
    11    6    5 1    
    12    7    6 1    
    13   10    7 1    
    14   25    7 1    
    15   26    7 1    
    16    9    8 1    
    17   34    8 1    
    18   35    8 1    
    19   36    8 1    
    20   10    9 3    
    21   14   11 1    
    22   14   12 2    
    23   14   13 2    
    24   16   14 1    
    25   16   15 1    
    26   20   15 1    
    27   27   15 1    
    28   28   15 1    
    29   17   16 1    
    30   18   17 1    
    31   29   17 1    
    32   30   17 1    
    33   19   18 1    
    34   20   18 1    
    35   31   18 1    
    36   32   20 1    
    37   33   20 1    
@<TRIPOS>SUBSTRUCTURE
     1 2831        1 GROUP   
@<TRIPOS>SET

