#    Name: 1i8t_FAD_2_INTS_M
#    Modification time : Tue Mar 25 06:47:29 2014

@<TRIPOS>MOLECULE
1i8t_FAD_2_INTS_M
  114     0     9     0     0
SMALL
NO_CHARGES


@<TRIPOS>ATOM
      1 N          -4.7705   13.3465   25.5880 N.am      2 SEC2        0.0000 
      2 N          -3.4290   13.8930   25.1480 N.am      8 SEL2        0.0000 
      3 N          -6.1120   12.8000   26.0280 N.am      5 SEP2        0.0000 
      4 N          -4.9430   17.1590   25.5855 N.am      2 SEC2        0.0000 
      5 N          -3.8210   16.1300   25.9790 N.am      8 SEL2        0.0000 
      6 N          -6.0650   18.1880   25.1920 N.am      5 SEP2        0.0000 
      7 CA         -2.2880   17.4215   27.8670 C.3       3 GLC5        0.0000 
      8 CA         -1.4770   15.4940   27.8520 C.3       9 GLL5        0.0000 
      9 CA         -3.0990   19.3490   27.8820 C.3       6 GLP5        0.0000 
     10 CA          0.0685   14.2670   30.0810 C.3       3 GLC5        0.0000 
     11 CA         -1.5130   14.6290   29.1770 C.3       9 GLL5        0.0000 
     12 CA          1.6500   13.9050   30.9850 C.3       6 GLP5        0.0000 
     13 O          -2.2515   12.5080   31.0460 O.2       1 ALC1        0.0000 
     14 O          -3.1160   12.9750   30.1670 O.2       7 ALL1        0.0000 
     15 O          -1.3870   12.0410   31.9250 O.2       4 ALP1        0.0000 
     16 CA         -3.7270   16.5695   32.6225 C.3       3 GLC5        0.0000 
     17 CA         -3.0210   15.3120   31.0150 C.3       9 GLL5        0.0000 
     18 CA         -4.4330   17.8270   34.2300 C.3       6 GLP5        0.0000 
     19 O          -3.4280   13.8180   32.6650 O.2       1 ALC1        0.0000 
     20 O          -3.8710   14.8620   32.0670 O.2       7 ALL1        0.0000 
     21 O          -2.9850   12.7740   33.2630 O.2       4 ALP1        0.0000 
     22 CA          0.0265   14.6475   31.2115 C.3       3 GLC5        0.0000 
     23 CA         -1.5970   15.3900   31.4380 C.3       9 GLL5        0.0000 
     24 CA          0.1265   19.1735   31.8175 C.3       3 GLC5        0.0000 
     25 CA         -0.4320   18.0620   33.5710 C.3       9 GLL5        0.0000 
     26 CA          0.6850   20.2850   30.0640 C.3       6 GLP5        0.0000 
     27 CA          2.1465   18.3230   36.0015 C.3       3 GLC5        0.0000 
     28 CA          0.2750   18.4590   34.8400 C.3       9 GLL5        0.0000 
     29 CA          4.0180   18.1870   37.1630 C.3       6 GLP5        0.0000 
     30 O           0.0945   19.8665   36.8095 O.2       1 ALC1        0.0000 
     31 O           0.4440   19.7100   35.2400 O.2       7 ALL1        0.0000 
     32 O          -0.2550   20.0230   38.3790 O.2       4 ALP1        0.0000 
     33 N           1.3755   17.5630   37.0350 N.am      2 SEC2        0.0000 
     34 N           0.7510   17.3960   35.5970 N.am      8 SEL2        0.0000 
     35 N           2.0000   17.7300   38.4730 N.am      5 SEP2        0.0000 
     36 CA          2.0925   16.6790   34.3940 C.3       3 GLC5        0.0000 
     37 CA          0.5910   16.0760   35.2130 C.3       9 GLL5        0.0000 
     38 CA          3.5940   17.2820   33.5750 C.3       6 GLP5        0.0000 
     39 CA          2.1000   15.0125   36.2905 C.3       3 GLC5        0.0000 
     40 CA          3.6090   13.9490   37.3680 C.3       6 GLP5        0.0000 
     41 CA          0.3985   14.0880   35.1915 C.3       3 GLC5        0.0000 
     42 CA          0.2060   12.1000   35.1700 C.3       6 GLP5        0.0000 
     43 CA         -1.0350   15.8580   36.0235 C.3       3 GLC5        0.0000 
     44 CA         -2.6610   15.6400   36.8340 C.3       6 GLP5        0.0000 
     45 CA          0.1515   16.7120   37.2000 C.3       3 GLC5        0.0000 
     46 CA         -0.2880   17.3480   39.1870 C.3       6 GLP5        0.0000 
     47 CA          2.3045   17.1315   36.1880 C.3       3 GLC5        0.0000 
     48 N          -0.7550   14.6315   35.0630 N.am      2 SEC2        0.0000 
     49 N          -0.0440   15.6170   34.0780 N.am      8 SEL2        0.0000 
     50 N          -1.4660   13.6460   36.0480 N.am      5 SEP2        0.0000 
     51 CA          0.5555   15.2755   32.1390 C.3       3 GLC5        0.0000 
     52 CA         -0.5390   16.6460   33.2930 C.3       9 GLL5        0.0000 
     53 CA         -1.9870   16.3050   34.4455 C.3       3 GLC5        0.0000 
     54 CA         -3.4350   15.9640   35.5980 C.3       6 GLP5        0.0000 
     55 N          -4.8185   13.1105   15.9825 N.am      2 SEC2        0.0000 
     56 N          -6.4070   13.2410   16.2560 N.am      8 SEL2        0.0000 
     57 N          -3.2300   12.9800   15.7090 N.am      5 SEP2        0.0000 
     58 N          -4.3595   12.5205   15.1445 N.am      2 SEC2        0.0000 
     59 N          -5.4890   12.0610   14.5800 N.am      8 SEL2        0.0000 
     60 O          -7.7870   10.7355   14.0745 O.2       1 ALC1        0.0000 
     61 O          -7.7370   11.8960   14.7160 O.2       7 ALL1        0.0000 
     62 O          -7.8370    9.5750   13.4330 O.2       4 ALP1        0.0000 
     63 N          -9.9695   10.3900   15.0995 N.am      2 SEC2        0.0000 
     64 N          -9.9850   11.7680   14.9040 N.am      8 SEL2        0.0000 
     65 N          -9.9540    9.0120   15.2950 N.am      5 SEP2        0.0000 
     66 CA        -13.3365   14.4205   21.0020 C.3       3 GLC5        0.0000 
     67 CA        -12.4400   16.2260   20.5230 C.3       9 GLL5        0.0000 
     68 CA        -14.2330   12.6150   21.4810 C.3       6 GLP5        0.0000 
     69 CA        -13.9465   17.3105   21.1845 C.3       3 GLC5        0.0000 
     70 CA        -15.4530   18.3950   21.8460 C.3       6 GLP5        0.0000 
     71 CA        -12.4090   17.1550   22.2645 C.3       3 GLC5        0.0000 
     72 CA        -12.3780   18.0840   24.0060 C.3       6 GLP5        0.0000 
     73 CA        -12.4840   17.7895   19.5380 C.3       3 GLC5        0.0000 
     74 CA        -12.5280   19.3530   18.5530 C.3       6 GLP5        0.0000 
     75 CA        -11.0715   17.7615   22.6885 C.3       3 GLC5        0.0000 
     76 CA         -9.7650   17.4390   21.3710 C.3       9 GLL5        0.0000 
     77 CA        -10.5210   18.6070   19.7385 C.3       3 GLC5        0.0000 
     78 CA        -11.2770   19.7750   18.1060 C.3       6 GLP5        0.0000 
     79 CA         -6.7650   16.4615   17.1700 C.3       3 GLC5        0.0000 
     80 CA         -6.1390   15.0120   18.4250 C.3       9 GLL5        0.0000 
     81 CA         -7.3910   17.9110   15.9150 C.3       6 GLP5        0.0000 
     82 CA         -4.9305   15.0975   16.6000 C.3       3 GLC5        0.0000 
     83 CA         -3.7220   15.1830   14.7750 C.3       6 GLP5        0.0000 
     84 CA         -4.9035   12.5485   18.6655 C.3       3 GLC5        0.0000 
     85 CA         -5.5430   14.1950   19.6520 C.3       9 GLL5        0.0000 
     86 CA         -4.2640   10.9020   17.6790 C.3       6 GLP5        0.0000 
     87 N          -7.5475   13.3155   20.7375 N.am      2 SEC2        0.0000 
     88 N          -6.4320   14.2970   20.7610 N.am      8 SEL2        0.0000 
     89 N          -8.6630   12.3340   20.7140 N.am      5 SEP2        0.0000 
     90 O          -3.7265   15.6325   18.0140 O.2       1 ALC1        0.0000 
     91 O          -3.3480   14.6510   18.8610 O.2       7 ALL1        0.0000 
     92 O          -4.1050   16.6140   17.1670 O.2       4 ALP1        0.0000 
     93 CA         -0.8745   14.0380   20.2215 C.3       3 GLC5        0.0000 
     94 CA         -2.2490   14.8720   21.4090 C.3       9 GLL5        0.0000 
     95 CA          0.5000   13.2040   19.0340 C.3       6 GLP5        0.0000 
     96 N           1.1165   13.3595   23.8130 N.am      2 SEC2        0.0000 
     97 N           0.0580   14.2470   24.4570 N.am      8 SEL2        0.0000 
     98 N           2.1750   12.4720   23.1690 N.am      5 SEP2        0.0000 
     99 N          -0.1015   17.7350   22.6210 N.am      2 SEC2        0.0000 
    100 N          -0.1780   16.2780   22.9840 N.am      8 SEL2        0.0000 
    101 N          -0.0250   19.1920   22.2580 N.am      5 SEP2        0.0000 
    102 CA         -1.1320   13.2498   27.4713 C.3       3 GLC5        0.0000 
    103 CA         -0.7690   11.4380   26.4280 C.3       6 GLP5        0.0000 
    104 CA         -3.4240   13.1525   28.5735 C.3       3 GLC5        0.0000 
    105 CA         -4.6180   11.8320   27.6500 C.3       6 GLP5        0.0000 
    106 CA         -1.8438   17.8633   34.8353 C.3       3 GLC5        0.0000 
    107 CA         -3.6090   17.4660   35.4650 C.3       6 GLP5        0.0000 
    108 CA          1.6426   17.3676   33.6621 C.3       3 GLC5        0.0000 
    109 CA         -8.8020   13.0263   19.1345 C.3       3 GLC5        0.0000 
    110 CA         -8.6770   14.9890   18.6540 C.3       9 GLL5        0.0000 
    111 CA         -8.2980   11.3400   19.8440 C.3       6 GLP5        0.0000 
    112 CA         -7.0695   12.9718   19.4413 C.3       3 GLC5        0.0000 
    113 CA         -3.5475   16.2362   22.0881 C.3       3 GLC5        0.0000 
    114 CA         -4.0390   17.7930   23.1710 C.3       6 GLP5        0.0000 
@<TRIPOS>BOND
@<TRIPOS>SUBSTRUCTURE
     1 ALC1       13 GROUP        1 X    ALC  0     ROOT ALC X 1
     2 SEC2        1 GROUP        1 X    SEC  0     **** SEC X 2
     3 GLC5        7 GROUP        1 X    GLC  0     **** GLC X 6
     4 ALP1       15 GROUP        1 Y    ALP  0     ROOT ALP Y 8
     5 SEP2        3 GROUP        1 Y    SEP  0     **** SEP Y 9
     6 GLP5        9 GROUP        1 Y    GLP  0     **** GLP Y 13
     7 ALL1       14 GROUP        1 Z    ALL  0     ROOT ALL Z 15
     8 SEL2        2 GROUP        1 Z    SEL  0     **** SEL Z 16
     9 GLL5        8 GROUP        1 Z    GLL  0     **** GLL Z 20
@<TRIPOS>SET

