#    Name: 1i8t_FAD_2_ligand
#    Modification time : Tue Mar 25 06:47:29 2014

@<TRIPOS>MOLECULE
1i8t_FAD_2_ligand
   84    89     1     0     0
SMALL
NO_CHARGES


@<TRIPOS>ATOM
      1 PA         -2.9120   15.1940   25.5720 P.3       1 FAD451      0.0000 
      2 O1A        -3.4290   13.8930   25.1480 O.co2     1 FAD451      0.0000 
      3 O2A        -3.8210   16.1300   25.9790 O.co2     1 FAD451      0.0000 
      4 O5B        -2.2140   14.7050   26.8380 O.3       1 FAD451      0.0000 
      5 C5B        -1.4770   15.4940   27.8520 C.3       1 FAD451      0.0000 
      6 C4B        -1.5130   14.6290   29.1770 C.3       1 FAD451      0.0000 
      7 O4B        -0.7840   15.4150   30.2250 O.3       1 FAD451      0.0000 
      8 C3B        -2.9470   14.3170   29.8170 C.3       1 FAD451      0.0000 
      9 O3B        -3.1160   12.9750   30.1670 O.3       1 FAD451      0.0000 
     10 C2B        -3.0210   15.3120   31.0150 C.3       1 FAD451      0.0000 
     11 O2B        -3.8710   14.8620   32.0670 O.3       1 FAD451      0.0000 
     12 C1B        -1.5970   15.3900   31.4380 C.3       1 FAD451      0.0000 
     13 N9A        -1.2330   16.5910   32.1000 N.pl3     1 FAD451      0.0000 
     14 C8A        -1.5050   17.8860   31.6940 C.2       1 FAD451      0.0000 
     15 N7A        -1.0370   18.8050   32.5590 N.2       1 FAD451      0.0000 
     16 C5A        -0.4320   18.0620   33.5710 C.ar      1 FAD451      0.0000 
     17 C6A         0.2750   18.4590   34.8400 C.ar      1 FAD451      0.0000 
     18 N6A         0.4440   19.7100   35.2400 N.pl3     1 FAD451      0.0000 
     19 N1A         0.7510   17.3960   35.5970 N.ar      1 FAD451      0.0000 
     20 C2A         0.5910   16.0760   35.2130 C.ar      1 FAD451      0.0000 
     21 N3A        -0.0440   15.6170   34.0780 N.ar      1 FAD451      0.0000 
     22 C4A        -0.5390   16.6460   33.2930 C.ar      1 FAD451      0.0000 
     23 N1         -6.4070   13.2410   16.2560 N.2       1 FAD451      0.0000 
     24 C2         -6.4720   12.4130   15.1900 C.2       1 FAD451      0.0000 
     25 O2         -5.4890   12.0610   14.5800 O.2       1 FAD451      0.0000 
     26 N3         -7.7370   11.8960   14.7160 N.am      1 FAD451      0.0000 
     27 C4         -8.9480   12.2310   15.3380 C.2       1 FAD451      0.0000 
     28 O4         -9.9850   11.7680   14.9040 O.2       1 FAD451      0.0000 
     29 C4X        -8.8830   13.1420   16.4920 C.2       1 FAD451      0.0000 
     30 N5        -10.0440   13.5350   17.1430 N.2       1 FAD451      0.0000 
     31 C5X        -9.9350   14.4360   18.1960 C.ar      1 FAD451      0.0000 
     32 C6        -11.1580   14.8660   18.8390 C.ar      1 FAD451      0.0000 
     33 C7        -11.1420   15.8110   19.8670 C.ar      1 FAD451      0.0000 
     34 C7M       -12.4400   16.2260   20.5230 C.3       1 FAD451      0.0000 
     35 C8         -9.8640   16.3980   20.2940 C.ar      1 FAD451      0.0000 
     36 C8M        -9.7650   17.4390   21.3710 C.3       1 FAD451      0.0000 
     37 C9         -8.6640   15.9720   19.6820 C.ar      1 FAD451      0.0000 
     38 C9A        -8.6770   14.9890   18.6540 C.ar      1 FAD451      0.0000 
     39 N10        -7.4650   14.5120   17.9700 N.pl3     1 FAD451      0.0000 
     40 C10        -7.5430   13.6360   16.9130 C.2       1 FAD451      0.0000 
     41 C1'        -6.1390   15.0120   18.4250 C.3       1 FAD451      0.0000 
     42 C2'        -5.5430   14.1950   19.6520 C.3       1 FAD451      0.0000 
     43 O2'        -6.4320   14.2970   20.7610 O.3       1 FAD451      0.0000 
     44 C3'        -4.2000   14.8240   19.9970 C.3       1 FAD451      0.0000 
     45 O3'        -3.3480   14.6510   18.8610 O.3       1 FAD451      0.0000 
     46 C4'        -3.5260   14.1500   21.2060 C.3       1 FAD451      0.0000 
     47 O4'        -4.3630   14.2930   22.3600 O.3       1 FAD451      0.0000 
     48 C5'        -2.2490   14.8720   21.4090 C.3       1 FAD451      0.0000 
     49 O5'        -1.4110   14.2650   22.5570 O.3       1 FAD451      0.0000 
     50 P          -0.7700   15.1550   23.5940 P.3       1 FAD451      0.0000 
     51 O1P         0.0580   14.2470   24.4570 O.co2     1 FAD451      0.0000 
     52 O2P        -0.1780   16.2780   22.9840 O.co2     1 FAD451      0.0000 
     53 O3P        -1.7930   15.7620   24.4810 O.3       1 FAD451      0.0000 
     54 H          -1.9623   16.4221   28.0595 H         1 FAD451      0.0000 
     55 H          -0.4528   15.6267   27.5812 H         1 FAD451      0.0000 
     56 H          -1.0019   13.7103   29.0216 H         1 FAD451      0.0000 
     57 H          -3.6603   14.6821   29.0796 H         1 FAD451      0.0000 
     58 H          -3.3039   16.2604   30.6050 H         1 FAD451      0.0000 
     59 H          -1.3273   14.5266   32.0062 H         1 FAD451      0.0000 
     60 H          -1.9893   18.0914   30.8600 H         1 FAD451      0.0000 
     61 H           0.4792   19.8548   36.2288 H         1 FAD451      0.0000 
     62 H           0.5212   20.3965   34.5170 H         1 FAD451      0.0000 
     63 H           1.0073   15.3292   35.8718 H         1 FAD451      0.0000 
     64 H          -7.7279   11.2681   13.9007 H         1 FAD451      0.0000 
     65 H         -12.0429   14.4557   18.5177 H         1 FAD451      0.0000 
     66 H          -7.7689   16.3746   19.9802 H         1 FAD451      0.0000 
     67 H          -6.2036   16.0616   18.7418 H         1 FAD451      0.0000 
     68 H          -5.3998   14.9554   17.6148 H         1 FAD451      0.0000 
     69 H          -5.3928   13.2010   19.3210 H         1 FAD451      0.0000 
     70 H          -4.3424   15.8606   20.2135 H         1 FAD451      0.0000 
     71 H          -3.3377   13.1388   20.9557 H         1 FAD451      0.0000 
     72 H          -2.4374   15.9270   21.6489 H         1 FAD451      0.0000 
     73 H          -1.6412   14.8434   20.4948 H         1 FAD451      0.0000 
     74 H         -12.2926   16.9076   21.2397 H         1 FAD451      0.0000 
     75 H         -13.0775   16.6262   19.8646 H         1 FAD451      0.0000 
     76 H         -12.9061   15.4500   20.9479 H         1 FAD451      0.0000 
     77 H          -8.8186   17.7203   21.5297 H         1 FAD451      0.0000 
     78 H         -10.2809   18.2636   21.1390 H         1 FAD451      0.0000 
     79 H         -10.1220   17.1057   22.2436 H         1 FAD451      0.0000 
     80 H          -2.3720   12.7786   30.8057 H         1 FAD451      0.0000 
     81 H          -3.2583   14.4259   32.7261 H         1 FAD451      0.0000 
     82 H          -5.8403   14.3025   21.5672 H         1 FAD451      0.0000 
     83 H          -3.8878   14.9696   18.0819 H         1 FAD451      0.0000 
     84 H          -3.9648   13.6835   23.0456 H         1 FAD451      0.0000 
@<TRIPOS>BOND
     1    2    1 ar   
     2    3    1 ar   
     3    4    1 1    
     4   53    1 1    
     5    5    4 1    
     6    6    5 1    
     7   54    5 1    
     8   55    5 1    
     9    7    6 1    
    10    8    6 1    
    11   56    6 1    
    12   12    7 1    
    13    9    8 1    
    14   10    8 1    
    15   57    8 1    
    16   80    9 1    
    17   11   10 1    
    18   12   10 1    
    19   58   10 1    
    20   81   11 1    
    21   13   12 1    
    22   59   12 1    
    23   14   13 1    
    24   22   13 1    
    25   15   14 2    
    26   60   14 1    
    27   16   15 1    
    28   17   16 ar   
    29   22   16 ar   
    30   18   17 1    
    31   19   17 ar   
    32   61   18 1    
    33   62   18 1    
    34   20   19 ar   
    35   21   20 ar   
    36   63   20 1    
    37   22   21 ar   
    38   24   23 1    
    39   40   23 2    
    40   25   24 2    
    41   26   24 am   
    42   27   26 am   
    43   64   26 1    
    44   28   27 2    
    45   29   27 1    
    46   30   29 2    
    47   40   29 1    
    48   31   30 1    
    49   32   31 ar   
    50   38   31 ar   
    51   33   32 ar   
    52   65   32 1    
    53   34   33 1    
    54   35   33 ar   
    55   74   34 1    
    56   75   34 1    
    57   76   34 1    
    58   36   35 1    
    59   37   35 ar   
    60   77   36 1    
    61   78   36 1    
    62   79   36 1    
    63   38   37 ar   
    64   66   37 1    
    65   39   38 1    
    66   40   39 1    
    67   41   39 1    
    68   42   41 1    
    69   67   41 1    
    70   68   41 1    
    71   43   42 1    
    72   44   42 1    
    73   69   42 1    
    74   82   43 1    
    75   45   44 1    
    76   46   44 1    
    77   70   44 1    
    78   83   45 1    
    79   47   46 1    
    80   48   46 1    
    81   71   46 1    
    82   84   47 1    
    83   49   48 1    
    84   72   48 1    
    85   73   48 1    
    86   50   49 1    
    87   51   50 ar   
    88   52   50 ar   
    89   53   50 1    
@<TRIPOS>SUBSTRUCTURE
     1 FAD451      1 GROUP   
@<TRIPOS>SET

