#    Name: 1pdh_FAS_1_INTS_M
#    Modification time : Mon Mar 24 21:18:26 2014

@<TRIPOS>MOLECULE
1pdh_FAS_1_INTS_M
   96     0    12     0     0
SMALL
NO_CHARGES


@<TRIPOS>ATOM
      1 N          24.5370   97.8735   58.2110 N.am      2 SEC2        0.0000 
      2 N          24.8470   97.4700   59.6800 N.am     10 SEL2        0.0000 
      3 N          24.2270   98.2770   56.7420 N.am      6 SEP2        0.0000 
      4 NZ         23.7275   98.7955   57.5125 N.4       3 LYC4        0.0000 
      5 NZ         22.5690   98.4930   59.0960 N.4      11 LYL4        0.0000 
      6 NZ         24.8860   99.0980   55.9290 N.4       7 LYP4        0.0000 
      7 CA         25.1860   96.6745   62.3460 C.3       4 GLC5        0.0000 
      8 CA         24.3310   98.4960   62.4360 C.3      12 GLL5        0.0000 
      9 CA         26.0410   94.8530   62.2560 C.3       8 GLP5        0.0000 
     10 CA         24.1275   99.9985   65.0755 C.3       4 GLC5        0.0000 
     11 CA         24.6290   99.8110   63.1330 C.3      12 GLL5        0.0000 
     12 CA         23.6260  100.1860   67.0180 C.3       8 GLP5        0.0000 
     13 N          24.6275  102.3915   61.0025 N.am      2 SEC2        0.0000 
     14 N          24.6930  102.0620   62.4400 N.am     10 SEL2        0.0000 
     15 N          24.5620  102.7210   59.5650 N.am      6 SEP2        0.0000 
     16 O          24.6000  102.6160   63.6220 O.2       1 ALC1        0.0000 
     17 O          24.6930  102.0620   62.4400 O.2       9 ALL1        0.0000 
     18 O          24.5070  103.1700   64.8040 O.2       5 ALP1        0.0000 
     19 O          25.5645  103.0535   63.3680 O.2       1 ALC1        0.0000 
     20 O          26.4360  104.0450   64.2960 O.2       5 ALP1        0.0000 
     21 N          27.1155  102.5775   61.2880 N.am      2 SEC2        0.0000 
     22 N          27.3960  102.1690   62.7850 N.am     10 SEL2        0.0000 
     23 N          26.8350  102.9860   59.7910 N.am      6 SEP2        0.0000 
     24 O          26.9160  103.1070   63.5405 O.2       1 ALC1        0.0000 
     25 O          27.3960  102.1690   62.7850 O.2       9 ALL1        0.0000 
     26 CA         25.0570  100.3795   65.6615 C.3       4 GLC5        0.0000 
     27 CA         26.4880  100.5730   64.3050 C.3      12 GLL5        0.0000 
     28 CA         26.0665   98.6135   64.9340 C.3       4 GLC5        0.0000 
     29 CA         25.6450   96.6540   65.5630 C.3       8 GLP5        0.0000 
     30 CA         28.2210   99.1600   69.0010 C.3       4 GLC5        0.0000 
     31 CA         29.8450   99.8620   67.7890 C.3      12 GLL5        0.0000 
     32 CA         26.5970   98.4580   70.2130 C.3       8 GLP5        0.0000 
     33 CA         30.1295   98.2510   69.2020 C.3       4 GLC5        0.0000 
     34 CA         30.4140   96.6400   70.6150 C.3       8 GLP5        0.0000 
     35 CA         27.3800   99.8995   69.2670 C.3       4 GLC5        0.0000 
     36 CA         28.1630  101.3410   68.3210 C.3      12 GLL5        0.0000 
     37 CA         26.8295  102.8835   68.1560 C.3       4 GLC5        0.0000 
     38 CA         25.4960  104.4260   67.9910 C.3       8 GLP5        0.0000 
     39 CA         29.0670  102.5350   67.3450 C.3       4 GLC5        0.0000 
     40 CA         29.9710  103.7290   66.3690 C.3       8 GLP5        0.0000 
     41 CA         28.8320  101.5710   70.3415 C.3       4 GLC5        0.0000 
     42 CA         29.5010  101.8010   72.3620 C.3       8 GLP5        0.0000 
     43 N          27.6565  102.8680   67.1705 N.am      2 SEC2        0.0000 
     44 N          27.5290  101.3490   67.1520 N.am     10 SEL2        0.0000 
     45 N          27.7840  104.3870   67.1890 N.am      6 SEP2        0.0000 
     46 N          21.2925   96.9660   46.9400 N.am      2 SEC2        0.0000 
     47 N          21.7690   96.1330   47.9580 N.am     10 SEL2        0.0000 
     48 N          20.8160   97.7990   45.9220 N.am      6 SEP2        0.0000 
     49 CA         26.6925   96.3950   49.8800 C.3       4 GLC5        0.0000 
     50 CA         25.3200   97.0270   51.2900 C.3      12 GLL5        0.0000 
     51 CA         28.0650   95.7630   48.4700 C.3       8 GLP5        0.0000 
     52 CA         27.7645   96.7395   50.4310 C.3       4 GLC5        0.0000 
     53 CA         27.4640   97.7160   52.3920 C.3      12 GLL5        0.0000 
     54 CA         22.2700   97.2330   54.5050 C.3       4 GLC5        0.0000 
     55 CA         21.5080   95.3870   54.7060 C.3      12 GLL5        0.0000 
     56 CA         23.0320   99.0790   54.3040 C.3       8 GLP5        0.0000 
     57 O          19.5955   96.7950   54.4370 O.2       1 ALC1        0.0000 
     58 O          20.1500   95.5800   54.3340 O.2       9 ALL1        0.0000 
     59 O          19.0410   98.0100   54.5400 O.2       5 ALP1        0.0000 
     60 O          21.9490   92.8045   57.0905 O.2       1 ALC1        0.0000 
     61 O          21.0970   93.5370   56.1510 O.2       9 ALL1        0.0000 
     62 O          22.8010   92.0720   58.0300 O.2       5 ALP1        0.0000 
     63 O          22.6960   93.5560   56.8145 O.2       1 ALC1        0.0000 
     64 O          24.2950   93.5750   57.4780 O.2       5 ALP1        0.0000 
     65 CA         19.5935   97.1430   58.2125 C.3       4 GLC5        0.0000 
     66 CA         20.9900   95.7900   57.1150 C.3      12 GLL5        0.0000 
     67 CA         18.1970   98.4960   59.3100 C.3       8 GLP5        0.0000 
     68 N          22.9280   97.6705   56.8615 N.am      2 SEC2        0.0000 
     69 N          21.6290   97.0640   56.9810 N.am     10 SEL2        0.0000 
     70 N          20.8325   98.1580   56.5540 N.am      2 SEC2        0.0000 
     71 N          20.0360   99.2520   56.1270 N.am      6 SEP2        0.0000 
     72 CA         22.7665   94.0235   59.1020 C.3       4 GLC5        0.0000 
     73 CA         21.2110   95.2460   58.4780 C.3      12 GLL5        0.0000 
     74 CA         24.3220   92.8010   59.7260 C.3       8 GLP5        0.0000 
     75 N          20.0490   94.6160   62.1170 N.am      2 SEC2        0.0000 
     76 N          21.3790   94.6490   61.4530 N.am     10 SEL2        0.0000 
     77 N          18.7190   94.5830   62.7810 N.am      6 SEP2        0.0000 
     78 N          21.9550   93.2400   61.2780 N.am      2 SEC2        0.0000 
     79 N          22.5310   91.8310   61.1030 N.am      6 SEP2        0.0000 
     80 N          19.1515   97.2770   62.1625 N.am      2 SEC2        0.0000 
     81 N          20.5590   97.0390   61.6880 N.am     10 SEL2        0.0000 
     82 N          17.7440   97.5150   62.6370 N.am      6 SEP2        0.0000 
     83 CA         22.5450  100.0348   62.4047 C.3       4 GLC5        0.0000 
     84 CA         20.6100  100.9160   62.0250 C.3       8 GLP5        0.0000 
     85 CA         25.0625   97.9038   64.1737 C.3       4 GLC5        0.0000 
     86 CA         29.3949  101.9329   66.5575 C.3       4 GLC5        0.0000 
     87 CA         29.2420   99.7510   66.5530 C.3      12 GLL5        0.0000 
     88 CA         27.7709   98.5309   66.6880 C.3       4 GLC5        0.0000 
     89 CA         28.0940  100.4670   66.3210 C.3      12 GLL5        0.0000 
     90 CA         26.7230   96.9250   66.6300 C.3       8 GLP5        0.0000 
     91 CA         23.7440   98.1070   52.0985 C.3       4 GLC5        0.0000 
     92 CA         22.7860   99.5190   52.9000 C.3       8 GLP5        0.0000 
     93 CA         24.4742   97.8625   53.6483 C.3       4 GLC5        0.0000 
     94 CA         26.1240   96.9940   52.3890 C.3      12 GLL5        0.0000 
     95 CA         23.5723   97.3683   53.6677 C.3       4 GLC5        0.0000 
     96 CA         24.5350   95.6590   53.5880 C.3      12 GLL5        0.0000 
@<TRIPOS>BOND
@<TRIPOS>SUBSTRUCTURE
     1 ALC1       16 GROUP        1 X    ALC  0     ROOT ALC X 1
     2 SEC2        1 GROUP        1 X    SEC  0     **** SEC X 2
     3 LYC4        4 GROUP        1 X    LYC  0     **** LYC X 4
     4 GLC5        7 GROUP        1 X    GLC  0     **** GLC X 6
     5 ALP1       18 GROUP        1 Y    ALP  0     ROOT ALP Y 8
     6 SEP2        3 GROUP        1 Y    SEP  0     **** SEP Y 9
     7 LYP4        6 GROUP        1 Y    LYP  0     **** LYP Y 11
     8 GLP5        9 GROUP        1 Y    GLP  0     **** GLP Y 13
     9 ALL1       17 GROUP        1 Z    ALL  0     ROOT ALL Z 15
    10 SEL2        2 GROUP        1 Z    SEL  0     **** SEL Z 16
    11 LYL4        5 GROUP        1 Z    LYL  0     **** LYL Z 18
    12 GLL5        8 GROUP        1 Z    GLL  0     **** GLL Z 20
@<TRIPOS>SET

