#    Name: 1pdh_FAS_1_ligand
#    Modification time : Mon Mar 24 21:18:26 2014

@<TRIPOS>MOLECULE
1pdh_FAS_1_ligand
   84    89     1     0     0
SMALL
NO_CHARGES


@<TRIPOS>ATOM
      1 PA         23.4560   97.8300   60.0840 P.3       1 FAS395      0.0000 
      2 O1A        24.8470   97.4700   59.6800 O.co2     1 FAS395      0.0000 
      3 O2A        22.5690   98.4930   59.0960 O.co2     1 FAS395      0.0000 
      4 O5B        23.4980   98.7940   61.3400 O.3       1 FAS395      0.0000 
      5 C5B        24.3310   98.4960   62.4360 C.3       1 FAS395      0.0000 
      6 C4B        24.6290   99.8110   63.1330 C.3       1 FAS395      0.0000 
      7 O4B        25.5160   99.5510   64.2150 O.3       1 FAS395      0.0000 
      8 C3B        25.3780  100.8190   62.2580 C.3       1 FAS395      0.0000 
      9 O3B        24.6930  102.0620   62.4400 O.3       1 FAS395      0.0000 
     10 C2B        26.7710  100.8760   62.8810 C.3       1 FAS395      0.0000 
     11 O2B        27.3960  102.1690   62.7850 O.3       1 FAS395      0.0000 
     12 C1B        26.4880  100.5730   64.3050 C.3       1 FAS395      0.0000 
     13 N9A        27.7000  100.1560   65.0190 N.pl3     1 FAS395      0.0000 
     14 C8A        28.7150   99.3920   64.5260 C.2       1 FAS395      0.0000 
     15 N7A        29.6050   99.0490   65.4250 N.2       1 FAS395      0.0000 
     16 C5A        29.2420   99.7510   66.5530 C.ar      1 FAS395      0.0000 
     17 C6A        29.8450   99.8620   67.7890 C.ar      1 FAS395      0.0000 
     18 N6A        30.9810   99.2200   68.0700 N.pl3     1 FAS395      0.0000 
     19 N1A        29.2300  100.6700   68.6810 N.ar      1 FAS395      0.0000 
     20 C2A        28.1630  101.3410   68.3210 C.ar      1 FAS395      0.0000 
     21 N3A        27.5290  101.3490   67.1520 N.ar      1 FAS395      0.0000 
     22 C4A        28.0940  100.4670   66.3210 C.ar      1 FAS395      0.0000 
     23 N1         20.6980   94.1270   51.2210 N.2       1 FAS395      0.0000 
     24 C2         19.9140   94.0270   50.0650 C.2       1 FAS395      0.0000 
     25 O2         18.9100   93.2980   50.0400 O.2       1 FAS395      0.0000 
     26 N3         20.3020   94.7660   48.9800 N.am      1 FAS395      0.0000 
     27 C4         21.4210   95.5340   48.9490 C.2       1 FAS395      0.0000 
     28 O4         21.7690   96.1330   47.9580 O.2       1 FAS395      0.0000 
     29 C4X        22.2140   95.6020   50.1870 C.2       1 FAS395      0.0000 
     30 N5         23.2900   96.3790   50.2310 N.2       1 FAS395      0.0000 
     31 C5X        24.0840   96.3630   51.3040 C.ar      1 FAS395      0.0000 
     32 C6         25.3200   97.0270   51.2900 C.ar      1 FAS395      0.0000 
     33 C7         26.1240   96.9940   52.3890 C.ar      1 FAS395      0.0000 
     34 C7M        27.4640   97.7160   52.3920 C.3       1 FAS395      0.0000 
     35 C8         25.7090   96.2980   53.5960 C.ar      1 FAS395      0.0000 
     36 C8M        26.5840   96.2310   54.8790 C.3       1 FAS395      0.0000 
     37 C9         24.5350   95.6590   53.5880 C.ar      1 FAS395      0.0000 
     38 C9A        23.6900   95.6560   52.4750 C.ar      1 FAS395      0.0000 
     39 N10        22.5140   94.9930   52.4760 N.pl3     1 FAS395      0.0000 
     40 C10        21.7840   94.8890   51.3140 C.2       1 FAS395      0.0000 
     41 C1'        22.0850   94.3490   53.7690 C.3       1 FAS395      0.0000 
     42 C2'        21.5080   95.3870   54.7060 C.3       1 FAS395      0.0000 
     43 O2'        20.1500   95.5800   54.3340 O.3       1 FAS395      0.0000 
     44 C3'        21.6300   94.8560   56.0890 C.3       1 FAS395      0.0000 
     45 O3'        21.0970   93.5370   56.1510 O.3       1 FAS395      0.0000 
     46 C4'        20.9900   95.7900   57.1150 C.3       1 FAS395      0.0000 
     47 O4'        21.6290   97.0640   56.9810 O.3       1 FAS395      0.0000 
     48 C5'        21.2110   95.2460   58.4780 C.3       1 FAS395      0.0000 
     49 O5'        20.6590   96.0830   59.4720 O.3       1 FAS395      0.0000 
     50 P          21.2780   96.0300   60.9240 P.3       1 FAS395      0.0000 
     51 O1P        21.3790   94.6490   61.4530 O.co2     1 FAS395      0.0000 
     52 O2P        20.5590   97.0390   61.6880 O.co2     1 FAS395      0.0000 
     53 O3         22.7620   96.5480   60.7100 O.3       1 FAS395      0.0000 
     54 H          25.2781   98.0566   62.1298 H         1 FAS395      0.0000 
     55 H          23.8500   97.8366   63.1555 H         1 FAS395      0.0000 
     56 H          23.7288  100.2581   63.4805 H         1 FAS395      0.0000 
     57 H          25.4166  100.4763   61.2935 H         1 FAS395      0.0000 
     58 H          27.3539  100.0907   62.4747 H         1 FAS395      0.0000 
     59 H          26.0616  101.4574   64.7503 H         1 FAS395      0.0000 
     60 H          28.7533   99.1295   63.5558 H         1 FAS395      0.0000 
     61 H          31.3555   98.6483   67.3400 H         1 FAS395      0.0000 
     62 H          31.3555   99.3684   68.9853 H         1 FAS395      0.0000 
     63 H          27.7185  102.0011   69.1013 H         1 FAS395      0.0000 
     64 H          19.6872   94.7335   48.1120 H         1 FAS395      0.0000 
     65 H          25.6032   97.5351   50.4384 H         1 FAS395      0.0000 
     66 H          24.2115   95.1304   54.4400 H         1 FAS395      0.0000 
     67 H          22.9440   93.8726   54.2426 H         1 FAS395      0.0000 
     68 H          21.3315   93.5875   53.5656 H         1 FAS395      0.0000 
     69 H          22.0845   96.2792   54.6048 H         1 FAS395      0.0000 
     70 H          22.7161   94.8205   56.3301 H         1 FAS395      0.0000 
     71 H          19.9470   95.8507   56.9036 H         1 FAS395      0.0000 
     72 H          22.3037   95.1115   58.6272 H         1 FAS395      0.0000 
     73 H          20.7723   94.2263   58.5222 H         1 FAS395      0.0000 
     74 H          27.9420   97.6083   53.2637 H         1 FAS395      0.0000 
     75 H          28.0737   97.3703   51.6787 H         1 FAS395      0.0000 
     76 H          27.3572   98.6979   52.2357 H         1 FAS395      0.0000 
     77 H          27.4662   95.7937   54.7044 H         1 FAS395      0.0000 
     78 H          26.7756   97.1413   55.2459 H         1 FAS395      0.0000 
     79 H          26.1374   95.7099   55.6063 H         1 FAS395      0.0000 
     80 H          25.1306  102.4848   63.2335 H         1 FAS395      0.0000 
     81 H          26.8944  102.7472   63.4285 H         1 FAS395      0.0000 
     82 H          19.9594   96.5399   54.5395 H         1 FAS395      0.0000 
     83 H          21.6681   93.0583   56.8178 H         1 FAS395      0.0000 
     84 H          21.8308   97.3519   57.9172 H         1 FAS395      0.0000 
@<TRIPOS>BOND
     1    2    1 ar   
     2    3    1 ar   
     3    4    1 1    
     4   53    1 1    
     5    5    4 1    
     6    6    5 1    
     7   54    5 1    
     8   55    5 1    
     9    7    6 1    
    10    8    6 1    
    11   56    6 1    
    12   12    7 1    
    13    9    8 1    
    14   10    8 1    
    15   57    8 1    
    16   80    9 1    
    17   11   10 1    
    18   12   10 1    
    19   58   10 1    
    20   81   11 1    
    21   13   12 1    
    22   59   12 1    
    23   14   13 1    
    24   22   13 1    
    25   15   14 2    
    26   60   14 1    
    27   16   15 1    
    28   17   16 ar   
    29   22   16 ar   
    30   18   17 1    
    31   19   17 ar   
    32   61   18 1    
    33   62   18 1    
    34   20   19 ar   
    35   21   20 ar   
    36   63   20 1    
    37   22   21 ar   
    38   24   23 1    
    39   40   23 2    
    40   25   24 2    
    41   26   24 am   
    42   27   26 am   
    43   64   26 1    
    44   28   27 2    
    45   29   27 1    
    46   30   29 2    
    47   40   29 1    
    48   31   30 1    
    49   32   31 ar   
    50   38   31 ar   
    51   33   32 ar   
    52   65   32 1    
    53   34   33 1    
    54   35   33 ar   
    55   74   34 1    
    56   75   34 1    
    57   76   34 1    
    58   36   35 1    
    59   37   35 ar   
    60   77   36 1    
    61   78   36 1    
    62   79   36 1    
    63   38   37 ar   
    64   66   37 1    
    65   39   38 1    
    66   40   39 1    
    67   41   39 1    
    68   42   41 1    
    69   67   41 1    
    70   68   41 1    
    71   43   42 1    
    72   44   42 1    
    73   69   42 1    
    74   82   43 1    
    75   45   44 1    
    76   46   44 1    
    77   70   44 1    
    78   83   45 1    
    79   47   46 1    
    80   48   46 1    
    81   71   46 1    
    82   84   47 1    
    83   49   48 1    
    84   72   48 1    
    85   73   48 1    
    86   50   49 1    
    87   51   50 ar   
    88   52   50 ar   
    89   53   50 1    
@<TRIPOS>SUBSTRUCTURE
     1 FAS395      1 GROUP   
@<TRIPOS>SET

