#    Name: 2yje_LAB_3_INTS_M
#    Modification time : Tue Mar 25 09:24:17 2014

@<TRIPOS>MOLECULE
2yje_LAB_3_INTS_M
   65     0     9     0     0
SMALL
NO_CHARGES


@<TRIPOS>ATOM
      1 N          -3.0960  -30.4475  -45.6475 N.am      2 SEC2        0.0000 
      2 N          -2.5620  -31.8700  -45.7630 N.am      8 SEL2        0.0000 
      3 N          -3.6300  -29.0250  -45.5320 N.am      5 SEP2        0.0000 
      4 N          -2.9370  -32.6880  -44.2905 N.am      2 SEC2        0.0000 
      5 N          -3.3120  -33.5060  -42.8180 N.am      5 SEP2        0.0000 
      6 O          -2.3595  -34.0490  -46.3100 O.2       1 ALC1        0.0000 
      7 O          -1.6150  -33.4390  -47.1250 O.2       7 ALL1        0.0000 
      8 O          -3.1040  -34.6590  -45.4950 O.2       4 ALP1        0.0000 
      9 CA         -0.2115  -34.9345  -49.8315 C.3       3 GLC5        0.0000 
     10 CA         -0.5440  -33.5540  -48.1160 C.3       9 GLL5        0.0000 
     11 CA          0.1210  -36.3150  -51.5470 C.3       6 GLP5        0.0000 
     12 CA         -2.5780  -33.2460  -48.7545 C.3       3 GLC5        0.0000 
     13 CA         -4.6120  -32.9380  -49.3930 C.3       6 GLP5        0.0000 
     14 CA         -2.9240  -32.0045  -48.5795 C.3       3 GLC5        0.0000 
     15 CA         -1.2360  -31.0710  -47.7660 C.3       9 GLL5        0.0000 
     16 CA         -1.9090  -29.2625  -47.4000 C.3       3 GLC5        0.0000 
     17 CA         -2.5820  -27.4540  -47.0340 C.3       6 GLP5        0.0000 
     18 CA          0.7150  -32.5750  -45.9255 C.3       3 GLC5        0.0000 
     19 CA          0.6580  -34.1500  -47.4350 C.3       9 GLL5        0.0000 
     20 CA          0.7720  -31.0000  -44.4160 C.3       6 GLP5        0.0000 
     21 O           2.0175  -32.4205  -47.6365 O.2       1 ALC1        0.0000 
     22 O           1.3470  -33.0960  -46.7440 O.2       7 ALL1        0.0000 
     23 O           2.6880  -31.7450  -48.5290 O.2       4 ALP1        0.0000 
     24 CA          2.2540  -37.0605  -44.2735 C.3       3 GLC5        0.0000 
     25 CA          1.2850  -35.8630  -45.8050 C.3       9 GLL5        0.0000 
     26 CA          3.2230  -38.2580  -42.7420 C.3       6 GLP5        0.0000 
     27 N           1.1155  -34.8765  -49.7755 N.am      2 SEC2        0.0000 
     28 N           1.6140  -34.6710  -48.3530 N.am      8 SEL2        0.0000 
     29 N           0.6170  -35.0820  -51.1980 N.am      5 SEP2        0.0000 
     30 CA          3.2890  -37.5510  -49.9825 C.3       3 GLC5        0.0000 
     31 CA          3.4380  -36.0500  -48.9630 C.3       9 GLL5        0.0000 
     32 CA          3.1400  -39.0520  -51.0020 C.3       6 GLP5        0.0000 
     33 CA          4.9550  -36.6105  -50.2755 C.3       3 GLC5        0.0000 
     34 CA          3.9040  -34.8590  -49.8050 C.3       9 GLL5        0.0000 
     35 CA          6.0060  -38.3620  -50.7460 C.3       6 GLP5        0.0000 
     36 CA          2.0125  -35.5870  -50.6760 C.3       3 GLC5        0.0000 
     37 CA          5.8840  -34.2095  -51.9010 C.3       3 GLC5        0.0000 
     38 CA          5.8040  -33.2040  -49.8940 C.3       9 GLL5        0.0000 
     39 CA          5.9640  -35.2150  -53.9080 C.3       6 GLP5        0.0000 
     40 CA          5.5630  -36.9715  -47.7465 C.3       3 GLC5        0.0000 
     41 CA          5.8410  -35.2210  -48.3770 C.3       9 GLL5        0.0000 
     42 CA          5.2850  -38.7220  -47.1160 C.3       6 GLP5        0.0000 
     43 CA          5.9235  -36.7915  -49.5615 C.3       3 GLC5        0.0000 
     44 CA          6.3580  -36.9970  -46.8720 C.3       3 GLC5        0.0000 
     45 CA          5.9790  -35.3010  -47.0360 C.3       9 GLL5        0.0000 
     46 CA          6.7370  -38.6930  -46.7080 C.3       6 GLP5        0.0000 
     47 CA          4.0120  -36.6425  -43.8050 C.3       3 GLC5        0.0000 
     48 CA          4.8010  -35.0270  -44.8680 C.3       9 GLL5        0.0000 
     49 CA          5.0430  -36.8745  -45.9920 C.3       3 GLC5        0.0000 
     50 CA          3.2260  -36.0420  -43.0505 C.3       3 GLC5        0.0000 
     51 CA          3.2290  -33.8260  -43.3590 C.3       9 GLL5        0.0000 
     52 CA          2.0005  -32.4130  -43.8875 C.3       3 GLC5        0.0000 
     53 CA         -0.6285  -30.0375  -49.3957 C.3       3 GLC5        0.0000 
     54 CA         -0.5500  -28.4550  -50.5830 C.3       6 GLP5        0.0000 
     55 CA          0.0325  -31.3100  -46.3122 C.3       3 GLC5        0.0000 
     56 CA          0.2131  -37.6135  -46.2155 C.3       3 GLC5        0.0000 
     57 CA          0.1100  -35.2450  -46.5310 C.3       9 GLL5        0.0000 
     58 CA         -0.9910  -39.1720  -45.9210 C.3       6 GLP5        0.0000 
     59 CA          4.1018  -37.3768  -47.6289 C.3       3 GLC5        0.0000 
     60 CA          2.1370  -36.5560  -46.8520 C.3       9 GLL5        0.0000 
     61 CA          1.4223  -36.6608  -49.3634 C.3       3 GLC5        0.0000 
     62 CA         -0.0740  -37.2900  -50.5850 C.3       6 GLP5        0.0000 
     63 CA          4.8960  -31.9160  -49.2512 C.3       3 GLC5        0.0000 
     64 CA          4.9780  -34.1320  -49.0110 C.3       9 GLL5        0.0000 
     65 CA          4.4010  -30.1640  -49.0500 C.3       6 GLP5        0.0000 
@<TRIPOS>BOND
@<TRIPOS>SUBSTRUCTURE
     1 ALC1        6 GROUP        1 X    ALC  0     ROOT ALC X 1
     2 SEC2        1 GROUP        1 X    SEC  0     **** SEC X 2
     3 GLC5        9 GROUP        1 X    GLC  0     **** GLC X 6
     4 ALP1        8 GROUP        1 Y    ALP  0     ROOT ALP Y 8
     5 SEP2        3 GROUP        1 Y    SEP  0     **** SEP Y 9
     6 GLP5       11 GROUP        1 Y    GLP  0     **** GLP Y 13
     7 ALL1        7 GROUP        1 Z    ALL  0     ROOT ALL Z 15
     8 SEL2        2 GROUP        1 Z    SEL  0     **** SEL Z 16
     9 GLL5       10 GROUP        1 Z    GLL  0     **** GLL Z 20
@<TRIPOS>SET

