#    Name: 2yje_LAB_3_ligand
#    Modification time : Tue Mar 25 09:24:17 2014

@<TRIPOS>MOLECULE
2yje_LAB_3_ligand
   56    58     1     0     0
SMALL
NO_CHARGES


@<TRIPOS>ATOM
      1 O5         -2.5620  -31.8700  -45.7630 O.2       1 LAB376      0.0000 
      2 C18        -1.9040  -32.1890  -46.7510 C.2       1 LAB376      0.0000 
      3 N1         -1.6150  -33.4390  -47.1250 N.am      1 LAB376      0.0000 
      4 C16        -0.5440  -33.5540  -48.1160 C.3       1 LAB376      0.0000 
      5 C17        -0.1780  -32.1690  -48.6510 C.3       1 LAB376      0.0000 
      6 S1         -1.2360  -31.0710  -47.7660 S.3       1 LAB376      0.0000 
      7 C15         0.6580  -34.1500  -47.4350 C.3       1 LAB376      0.0000 
      8 O4          1.3470  -33.0960  -46.7440 O.3       1 LAB376      0.0000 
      9 C14         0.1100  -35.2450  -46.5310 C.3       1 LAB376      0.0000 
     10 C13         1.2850  -35.8630  -45.8050 C.3       1 LAB376      0.0000 
     11 O2          2.0350  -34.7270  -45.3670 O.3       1 LAB376      0.0000 
     12 C12         2.1370  -36.5560  -46.8520 C.3       1 LAB376      0.0000 
     13 C11         2.6610  -35.4700  -47.7890 C.3       1 LAB376      0.0000 
     14 O3          1.6140  -34.6710  -48.3530 O.3       1 LAB376      0.0000 
     15 C10         3.4380  -36.0500  -48.9630 C.3       1 LAB376      0.0000 
     16 C9          3.9040  -34.8590  -49.8050 C.3       1 LAB376      0.0000 
     17 C8          4.9780  -34.1320  -49.0110 C.3       1 LAB376      0.0000 
     18 C20         5.8040  -33.2040  -49.8940 C.3       1 LAB376      0.0000 
     19 C7          5.8410  -35.2210  -48.3770 C.2       1 LAB376      0.0000 
     20 C6          5.9790  -35.3010  -47.0360 C.2       1 LAB376      0.0000 
     21 C5          5.2940  -34.2950  -46.1140 C.3       1 LAB376      0.0000 
     22 C4          4.8010  -35.0270  -44.8680 C.3       1 LAB376      0.0000 
     23 C3          4.4870  -33.9980  -43.8050 C.2       1 LAB376      0.0000 
     24 C19         5.6000  -33.1490  -43.2570 C.3       1 LAB376      0.0000 
     25 C2          3.2290  -33.8260  -43.3590 C.2       1 LAB376      0.0000 
     26 C1          2.1670  -34.6700  -43.9220 C.2       1 LAB376      0.0000 
     27 O1          1.3830  -35.2940  -43.2150 O.2       1 LAB376      0.0000 
     28 H          -2.0538  -34.2647  -46.7953 H         1 LAB376      0.0000 
     29 H          -0.8374  -34.1760  -48.9265 H         1 LAB376      0.0000 
     30 H          -0.4499  -32.0285  -49.6455 H         1 LAB376      0.0000 
     31 H           0.7792  -31.8644  -48.3797 H         1 LAB376      0.0000 
     32 H          -0.3833  -35.9917  -47.1299 H         1 LAB376      0.0000 
     33 H          -0.5739  -34.8144  -45.8193 H         1 LAB376      0.0000 
     34 H           0.9894  -36.4854  -45.0700 H         1 LAB376      0.0000 
     35 H           1.5367  -37.2504  -47.4095 H         1 LAB376      0.0000 
     36 H           2.9648  -37.0508  -46.3795 H         1 LAB376      0.0000 
     37 H           3.3528  -34.8354  -47.2312 H         1 LAB376      0.0000 
     38 H           2.7959  -36.6735  -49.5510 H         1 LAB376      0.0000 
     39 H           4.2909  -36.5885  -48.6035 H         1 LAB376      0.0000 
     40 H           3.0730  -34.2002  -49.9815 H         1 LAB376      0.0000 
     41 H           4.3156  -35.2167  -50.7316 H         1 LAB376      0.0000 
     42 H           4.5064  -33.5738  -48.2266 H         1 LAB376      0.0000 
     43 H           6.2864  -35.8581  -49.0390 H         1 LAB376      0.0000 
     44 H           6.5325  -36.0156  -46.5582 H         1 LAB376      0.0000 
     45 H           4.4532  -33.8510  -46.6269 H         1 LAB376      0.0000 
     46 H           6.0013  -33.5307  -45.8263 H         1 LAB376      0.0000 
     47 H           5.5750  -35.6933  -44.5163 H         1 LAB376      0.0000 
     48 H           3.9096  -35.5860  -45.1122 H         1 LAB376      0.0000 
     49 H           2.9632  -33.1478  -42.6552 H         1 LAB376      0.0000 
     50 H           6.5080  -32.7232  -49.3712 H         1 LAB376      0.0000 
     51 H           6.2708  -33.7037  -50.6236 H         1 LAB376      0.0000 
     52 H           5.2371  -32.5067  -50.3326 H         1 LAB376      0.0000 
     53 H           6.3139  -33.7034  -42.8292 H         1 LAB376      0.0000 
     54 H           6.0398  -32.6061  -43.9725 H         1 LAB376      0.0000 
     55 H           5.2713  -32.5083  -42.5632 H         1 LAB376      0.0000 
     56 H           1.5756  -32.4284  -47.4526 H         1 LAB376      0.0000 
@<TRIPOS>BOND
     1    2    1 2    
     2    3    2 am   
     3    6    2 1    
     4    4    3 1    
     5   28    3 1    
     6    5    4 1    
     7    7    4 1    
     8   29    4 1    
     9    6    5 1    
    10   30    5 1    
    11   31    5 1    
    12    8    7 1    
    13    9    7 1    
    14   14    7 1    
    15   56    8 1    
    16   10    9 1    
    17   32    9 1    
    18   33    9 1    
    19   11   10 1    
    20   12   10 1    
    21   34   10 1    
    22   26   11 1    
    23   13   12 1    
    24   35   12 1    
    25   36   12 1    
    26   14   13 1    
    27   15   13 1    
    28   37   13 1    
    29   16   15 1    
    30   38   15 1    
    31   39   15 1    
    32   17   16 1    
    33   40   16 1    
    34   41   16 1    
    35   18   17 1    
    36   19   17 1    
    37   42   17 1    
    38   50   18 1    
    39   51   18 1    
    40   52   18 1    
    41   20   19 2    
    42   43   19 1    
    43   21   20 1    
    44   44   20 1    
    45   22   21 1    
    46   45   21 1    
    47   46   21 1    
    48   23   22 1    
    49   47   22 1    
    50   48   22 1    
    51   24   23 1    
    52   25   23 2    
    53   53   24 1    
    54   54   24 1    
    55   55   24 1    
    56   26   25 1    
    57   49   25 1    
    58   27   26 2    
@<TRIPOS>SUBSTRUCTURE
     1 LAB376      1 GROUP   
@<TRIPOS>SET

