#    Name: 3uok_0C6_2_INTS_M
#    Modification time : Mon Mar 24 23:09:48 2014

@<TRIPOS>MOLECULE
3uok_0C6_2_INTS_M
   72     0    12     0     0
SMALL
NO_CHARGES


@<TRIPOS>ATOM
      1 CA         -3.6890   29.0185   10.8450 C.3       4 GLC5        0.0000 
      2 CA         -2.9710   29.5710    9.3440 C.3      12 GLL5        0.0000 
      3 CA         -4.4070   28.4660   12.3460 C.3       8 GLP5        0.0000 
      4 CA         -2.0460   28.4095    9.9900 C.3       4 GLC5        0.0000 
      5 CA         -1.1210   27.2480   10.6360 C.3       8 GLP5        0.0000 
      6 CA         -3.8830   34.2800    6.2490 C.3       4 GLC5        0.0000 
      7 CA         -4.2340   33.0530    8.0080 C.3      12 GLL5        0.0000 
      8 CA         -3.5320   35.5070    4.4900 C.3       8 GLP5        0.0000 
      9 CA         -8.1010   31.5695    7.7880 C.3       4 GLC5        0.0000 
     10 CA         -6.1210   31.5500    7.9040 C.3      12 GLL5        0.0000 
     11 CA        -10.0810   31.5890    7.6720 C.3       8 GLP5        0.0000 
     12 CA         -8.8355   29.2875    9.4465 C.3       4 GLC5        0.0000 
     13 CA         -6.7200   28.8370    9.7570 C.3      12 GLL5        0.0000 
     14 CA        -10.9510   29.7380    9.1360 C.3       8 GLP5        0.0000 
     15 CA         -9.0535   26.3420   12.4310 C.3       4 GLC5        0.0000 
     16 CA         -7.6970   27.1290   11.1510 C.3      12 GLL5        0.0000 
     17 CA        -10.4100   25.5550   13.7110 C.3       8 GLP5        0.0000 
     18 N          -8.6620   27.7580   13.2700 N.am      2 SEC2        0.0000 
     19 N          -8.2000   28.0990   11.9520 N.am     10 SEL2        0.0000 
     20 N          -9.1240   27.4170   14.5880 N.am      6 SEP2        0.0000 
     21 CA         -9.4620   29.5555   10.3960 C.3       4 GLC5        0.0000 
     22 CA         -7.9730   29.3730   11.6560 C.3      12 GLL5        0.0000 
     23 CA         -7.5355   28.9245   13.5730 C.3       4 GLC5        0.0000 
     24 CA         -7.0980   28.4760   15.4900 C.3       8 GLP5        0.0000 
     25 CA         -6.1900   28.9195   12.0010 C.3       4 GLC5        0.0000 
     26 O          -8.8225   30.4280   13.7310 O.2       1 ALC1        0.0000 
     27 O          -8.5510   30.3300   12.5500 O.2       9 ALL1        0.0000 
     28 O          -9.0940   30.5260   14.9120 O.2       5 ALP1        0.0000 
     29 CA         -9.8610   30.7515   10.6500 C.3       4 GLC5        0.0000 
     30 CA         -8.7710   31.7650   12.1640 C.3      12 GLL5        0.0000 
     31 NZ        -11.2710   36.3560   10.3720 N.4       3 LYC4        0.0000 
     32 NZ        -10.3700   36.4880   11.7750 N.4      11 LYL4        0.0000 
     33 NZ        -13.3550   35.6770    9.2770 N.4       7 LYP4        0.0000 
     34 N         -11.2710   36.3560   10.3720 N.am      2 SEC2        0.0000 
     35 N         -10.3700   36.4880   11.7750 N.am     10 SEL2        0.0000 
     36 N         -12.1720   36.2240    8.9690 N.am      6 SEP2        0.0000 
     37 CA         -6.3465   25.0145    8.2710 C.3       4 GLC5        0.0000 
     38 CA         -6.4200   26.5060    9.2250 C.3      12 GLL5        0.0000 
     39 CA         -6.2730   23.5230    7.3170 C.3       8 GLP5        0.0000 
     40 CA         -3.5075   32.7575    9.9377 C.3       4 GLC5        0.0000 
     41 CA         -3.9930   30.7740    8.7030 C.3      12 GLL5        0.0000 
     42 CA         -3.2970   34.1140   11.2670 C.3       8 GLP5        0.0000 
     43 CA         -3.8810   30.8810    6.7602 C.3       4 GLC5        0.0000 
     44 CA         -4.0440   30.3610    4.9120 C.3       8 GLP5        0.0000 
     45 CA         -4.0998   33.5217    9.5620 C.3       4 GLC5        0.0000 
     46 CA         -4.4732   31.6453    6.3845 C.3       4 GLC5        0.0000 
     47 CA         -6.6650   32.8760    6.1955 C.3       4 GLC5        0.0000 
     48 CA         -5.5710   32.8060    7.7060 C.3      12 GLL5        0.0000 
     49 CA         -7.4840   33.5740    4.5860 C.3       8 GLP5        0.0000 
     50 CA         -4.8870   30.6988    6.5355 C.3       4 GLC5        0.0000 
     51 CA         -4.5222   30.9640   10.3676 C.3       4 GLC5        0.0000 
     52 CA         -5.3390   30.5230    8.4140 C.3      12 GLL5        0.0000 
     53 CA         -4.5160   30.9660   12.2240 C.3       8 GLP5        0.0000 
     54 CA         -7.6665   32.9532   13.0320 C.3       4 GLC5        0.0000 
     55 CA         -6.8470   33.8690   14.4790 C.3       8 GLP5        0.0000 
     56 CA         -6.5010   31.5018   11.9045 C.3       4 GLC5        0.0000 
     57 CA         -9.1940   32.2825    9.2548 C.3       4 GLC5        0.0000 
     58 CA         -8.2010   32.3100   11.0060 C.3      12 GLL5        0.0000 
     59 CA         -7.8250   33.9565   12.7810 C.3       4 GLC5        0.0000 
     60 CA         -8.4130   33.6420   10.6690 C.3      12 GLL5        0.0000 
     61 CA         -8.2525   33.5528   13.6490 C.3       4 GLC5        0.0000 
     62 CA         -9.7660   33.9010   12.6480 C.3      12 GLL5        0.0000 
     63 CA        -10.7019   32.7544   10.9041 C.3       4 GLC5        0.0000 
     64 CA         -9.5500   32.5720   12.9900 C.3      12 GLL5        0.0000 
     65 CA        -11.8890   32.1360    9.2770 C.3       8 GLP5        0.0000 
     66 CA         -7.8940   27.5476    7.9414 C.3       4 GLC5        0.0000 
     67 CA         -9.1640   27.7650    6.3250 C.3       8 GLP5        0.0000 
     68 CA         -8.5666   26.2781    9.5921 C.3       4 GLC5        0.0000 
     69 CA        -10.2650   25.6530    9.2780 C.3       8 GLP5        0.0000 
     70 CA         -5.7916   25.7561   10.7801 C.3       4 GLC5        0.0000 
     71 CA         -4.7150   24.6090   11.6540 C.3       8 GLP5        0.0000 
     72 CA         -5.6241   27.7699   11.1094 C.3       4 GLC5        0.0000 
@<TRIPOS>BOND
@<TRIPOS>SUBSTRUCTURE
     1 ALC1       26 GROUP        1 X    ALC  0     ROOT ALC X 1
     2 SEC2       18 GROUP        1 X    SEC  0     **** SEC X 2
     3 LYC4       31 GROUP        1 X    LYC  0     **** LYC X 4
     4 GLC5        1 GROUP        1 X    GLC  0     **** GLC X 6
     5 ALP1       28 GROUP        1 Y    ALP  0     ROOT ALP Y 8
     6 SEP2       20 GROUP        1 Y    SEP  0     **** SEP Y 9
     7 LYP4       33 GROUP        1 Y    LYP  0     **** LYP Y 11
     8 GLP5        3 GROUP        1 Y    GLP  0     **** GLP Y 13
     9 ALL1       27 GROUP        1 Z    ALL  0     ROOT ALL Z 15
    10 SEL2       19 GROUP        1 Z    SEL  0     **** SEL Z 16
    11 LYL4       32 GROUP        1 Z    LYL  0     **** LYL Z 18
    12 GLL5        2 GROUP        1 Z    GLL  0     **** GLL Z 20
@<TRIPOS>SET

