#    Name: 3uok_0C6_2_ligand
#    Modification time : Mon Mar 24 23:09:48 2014

@<TRIPOS>MOLECULE
3uok_0C6_2_ligand
   36    38     1     0     0
SMALL
NO_CHARGES


@<TRIPOS>ATOM
      1 CL1        -2.9710   29.5710    9.3440 Cl        1 0C61        0.0000 
      2 C02        -3.9930   30.7740    8.7030 C.ar      1 0C61        0.0000 
      3 C03        -3.4430   32.0280    8.5140 C.ar      1 0C61        0.0000 
      4 C04        -4.2340   33.0530    8.0080 C.ar      1 0C61        0.0000 
      5 C05        -5.5710   32.8060    7.7060 C.ar      1 0C61        0.0000 
      6 C06        -6.1210   31.5500    7.9040 C.ar      1 0C61        0.0000 
      7 C07        -5.3390   30.5230    8.4140 C.ar      1 0C61        0.0000 
      8 N08        -5.9390   29.2120    8.6050 N.pl3     1 0C61        0.0000 
      9 C09        -6.7200   28.8370    9.7570 C.ar      1 0C61        0.0000 
     10 C10        -6.9360   27.4720   10.0240 C.ar      1 0C61        0.0000 
     11 C12        -7.6970   27.1290   11.1510 C.ar      1 0C61        0.0000 
     12 N13        -8.2000   28.0990   11.9520 N.ar      1 0C61        0.0000 
     13 C14        -7.9730   29.3730   11.6560 C.ar      1 0C61        0.0000 
     14 N15        -8.5510   30.3300   12.5500 N.pl3     1 0C61        0.0000 
     15 C16        -8.7710   31.7650   12.1640 C.ar      1 0C61        0.0000 
     16 C17        -8.2010   32.3100   11.0060 C.ar      1 0C61        0.0000 
     17 C18        -8.4130   33.6420   10.6690 C.ar      1 0C61        0.0000 
     18 C19        -9.1930   34.4460   11.4970 C.ar      1 0C61        0.0000 
     19 C20        -9.4730   35.8910   11.1500 C.2       1 0C61        0.0000 
     20 O21       -10.3700   36.4880   11.7750 O.co2     1 0C61        0.0000 
     21 O22        -8.8650   36.4940   10.2120 O.co2     1 0C61        0.0000 
     22 C23        -9.7660   33.9010   12.6480 C.ar      1 0C61        0.0000 
     23 C24        -9.5500   32.5720   12.9900 C.ar      1 0C61        0.0000 
     24 N25        -7.2330   29.7610   10.5880 N.ar      1 0C61        0.0000 
     25 F11        -6.4200   26.5060    9.2250 F         1 0C61        0.0000 
     26 H          -2.4587   32.2045    8.7444 H         1 0C61        0.0000 
     27 H          -3.8365   33.9862    7.8575 H         1 0C61        0.0000 
     28 H          -6.1568   33.5705    7.3301 H         1 0C61        0.0000 
     29 H          -7.1093   31.3773    7.6733 H         1 0C61        0.0000 
     30 H          -5.7920   28.5021    7.8585 H         1 0C61        0.0000 
     31 H          -7.8623   26.1293   11.3524 H         1 0C61        0.0000 
     32 H          -8.8344   30.0555   13.4927 H         1 0C61        0.0000 
     33 H          -7.6182   31.7123   10.3997 H         1 0C61        0.0000 
     34 H          -7.9981   34.0316    9.8161 H         1 0C61        0.0000 
     35 H         -10.3576   34.4964   13.2508 H         1 0C61        0.0000 
     36 H          -9.9615   32.1852   13.8464 H         1 0C61        0.0000 
@<TRIPOS>BOND
     1    2    1 1    
     2    3    2 ar   
     3    7    2 ar   
     4    4    3 ar   
     5   26    3 1    
     6    5    4 ar   
     7   27    4 1    
     8    6    5 ar   
     9   28    5 1    
    10    7    6 ar   
    11   29    6 1    
    12    8    7 1    
    13    9    8 1    
    14   30    8 1    
    15   10    9 ar   
    16   24    9 ar   
    17   11   10 ar   
    18   25   10 1    
    19   12   11 ar   
    20   31   11 1    
    21   13   12 ar   
    22   14   13 1    
    23   24   13 ar   
    24   15   14 1    
    25   32   14 1    
    26   16   15 ar   
    27   23   15 ar   
    28   17   16 ar   
    29   33   16 1    
    30   18   17 ar   
    31   34   17 1    
    32   19   18 1    
    33   22   18 ar   
    34   20   19 ar   
    35   21   19 ar   
    36   23   22 ar   
    37   35   22 1    
    38   36   23 1    
@<TRIPOS>SUBSTRUCTURE
     1 0C61        1 GROUP   
@<TRIPOS>SET

