#    Name: 3p19_NAP_3_INTS_M
#    Modification time : Tue Mar 25 05:48:32 2014

@<TRIPOS>MOLECULE
3p19_NAP_3_INTS_M
  122     0    12     0     0
SMALL
NO_CHARGES


@<TRIPOS>ATOM
      1 N          26.4920   47.7055  161.3265 N.am      2 SEC2        0.0000 
      2 N          26.4530   48.0110  162.7150 N.am     10 SEL2        0.0000 
      3 N          26.5310   47.4000  159.9380 N.am      6 SEP2        0.0000 
      4 N          27.6240   48.9755  163.1600 N.am      2 SEC2        0.0000 
      5 N          28.7950   49.9400  163.6050 N.am      6 SEP2        0.0000 
      6 N          23.8035   44.4545  158.3605 N.am      2 SEC2        0.0000 
      7 N          23.1330   45.6950  159.1060 N.am     10 SEL2        0.0000 
      8 N          24.4740   43.2140  157.6150 N.am      6 SEP2        0.0000 
      9 O          23.6170   45.8080  157.8555 O.2       1 ALC1        0.0000 
     10 O          23.1330   45.6950  159.1060 O.2       9 ALL1        0.0000 
     11 O          24.1010   45.9210  156.6050 O.2       5 ALP1        0.0000 
     12 CA         18.9200   45.8245  160.5775 C.3       4 GLC5        0.0000 
     13 CA         20.5410   46.8130  159.6610 C.3      12 GLL5        0.0000 
     14 CA         17.2990   44.8360  161.4940 C.3       8 GLP5        0.0000 
     15 CA         14.8145   47.1385  156.7190 C.3       4 GLC5        0.0000 
     16 CA         16.0430   47.9330  158.3490 C.3      12 GLL5        0.0000 
     17 CA         13.5860   46.3440  155.0890 C.3       8 GLP5        0.0000 
     18 CA         14.7275   46.8175  159.2480 C.3       4 GLC5        0.0000 
     19 CA         13.4120   45.7020  160.1470 C.3       8 GLP5        0.0000 
     20 O          14.3585   49.3590  157.0315 O.2       1 ALC1        0.0000 
     21 O          15.1580   48.9210  158.4010 O.2       9 ALL1        0.0000 
     22 O          13.5590   49.7970  155.6620 O.2       5 ALP1        0.0000 
     23 N          14.4010   46.0385  157.5145 N.am      2 SEC2        0.0000 
     24 N          15.7600   46.7290  157.7720 N.am     10 SEL2        0.0000 
     25 N          13.0420   45.3480  157.2570 N.am      6 SEP2        0.0000 
     26 CA         18.0090   44.9025  156.4640 C.3       4 GLC5        0.0000 
     27 CA         16.6770   45.7680  157.7580 C.3      12 GLL5        0.0000 
     28 CA         19.3410   44.0370  155.1700 C.3       8 GLP5        0.0000 
     29 CA         15.1315   46.0560  156.4235 C.3       4 GLC5        0.0000 
     30 CA         15.4510   44.6190  158.5635 C.3       4 GLC5        0.0000 
     31 CA         14.2250   43.4700  159.3690 C.3       8 GLP5        0.0000 
     32 CA         16.9880   45.3020  159.6260 C.3       4 GLC5        0.0000 
     33 N          26.5335   48.3585  166.6105 N.am      2 SEC2        0.0000 
     34 N          25.3860   47.7910  166.9560 N.am     10 SEL2        0.0000 
     35 N          27.6810   48.9260  166.2650 N.am      6 SEP2        0.0000 
     36 N          26.3830   44.8710  164.9245 N.am      2 SEC2        0.0000 
     37 N          25.6000   46.0890  165.0790 N.am     10 SEL2        0.0000 
     38 N          27.1660   43.6530  164.7700 N.am      6 SEP2        0.0000 
     39 CA         24.2835   44.1850  166.2075 C.3       4 GLC5        0.0000 
     40 CA         22.7350   45.6000  165.8390 C.3      12 GLL5        0.0000 
     41 CA         25.8320   42.7700  166.5760 C.3       8 GLP5        0.0000 
     42 CA         23.7715   44.8195  167.9215 C.3       4 GLC5        0.0000 
     43 CA         21.8420   45.4750  167.0940 C.3      12 GLL5        0.0000 
     44 CA         25.7010   44.1640  168.7490 C.3       8 GLP5        0.0000 
     45 CA         21.4810   44.1285  168.4365 C.3       4 GLC5        0.0000 
     46 CA         21.1200   42.7820  169.7790 C.3       8 GLP5        0.0000 
     47 CA         19.4750   47.4035  165.8865 C.3       4 GLC5        0.0000 
     48 CA         20.9040   46.6970  167.1370 C.3      12 GLL5        0.0000 
     49 CA         18.0460   48.1100  164.6360 C.3       8 GLP5        0.0000 
     50 N          18.7350   46.4920  168.5955 N.am      2 SEC2        0.0000 
     51 N          19.5300   46.2860  167.3240 N.am     10 SEL2        0.0000 
     52 N          17.9400   46.6980  169.8670 N.am      6 SEP2        0.0000 
     53 O          19.6015   45.3670  166.1225 O.2       1 ALC1        0.0000 
     54 O          19.5300   46.2860  167.3240 O.2       9 ALL1        0.0000 
     55 O          19.6730   44.4480  164.9210 O.2       5 ALP1        0.0000 
     56 CA         19.5285   47.7305  169.4755 C.3       4 GLC5        0.0000 
     57 CA         21.4170   47.4910  168.3480 C.3      12 GLL5        0.0000 
     58 CA         17.6400   47.9700  170.6030 C.3       8 GLP5        0.0000 
     59 CA         22.5580   49.0310  168.5375 C.3       4 GLC5        0.0000 
     60 CA         23.6990   50.5710  168.7270 C.3       8 GLP5        0.0000 
     61 N          20.5235   49.0570  169.9900 N.am      2 SEC2        0.0000 
     62 N          20.3580   48.2570  168.9420 N.am     10 SEL2        0.0000 
     63 N          20.6890   49.8570  171.0380 N.am      6 SEP2        0.0000 
     64 N          19.1490   47.4775  169.4045 N.am      2 SEC2        0.0000 
     65 CA         23.8210   45.2620  168.9960 C.3       4 GLC5        0.0000 
     66 CA         21.9410   46.3600  169.2430 C.3      12 GLL5        0.0000 
     67 CA         21.5305   44.5710  169.5110 C.3       4 GLC5        0.0000 
     68 N          28.2535   48.5245  171.7620 N.am      2 SEC2        0.0000 
     69 N          27.0940   49.0580  171.5190 N.am     10 SEL2        0.0000 
     70 N          29.4130   47.9910  172.0050 N.am      6 SEP2        0.0000 
     71 O          28.1830   48.6820  169.3080 O.2       1 ALC1        0.0000 
     72 O          26.5980   48.6230  169.2370 O.2       9 ALL1        0.0000 
     73 O          29.7680   48.7410  169.3790 O.2       5 ALP1        0.0000 
     74 CA         25.0445   45.6600  172.8600 C.3       4 GLC5        0.0000 
     75 CA         24.6170   47.7450  172.3040 C.3      12 GLL5        0.0000 
     76 CA         25.4720   43.5750  173.4160 C.3       8 GLP5        0.0000 
     77 NZ         23.3640   48.2390  155.0870 N.4       3 LYC4        0.0000 
     78 NZ         21.9730   47.5410  155.2200 N.4      11 LYL4        0.0000 
     79 NZ         25.4590   49.2750  156.0280 N.4       7 LYP4        0.0000 
     80 N          23.0370   46.7310  155.9125 N.am      2 SEC2        0.0000 
     81 N          21.9730   47.5410  155.2200 N.am     10 SEL2        0.0000 
     82 N          24.1010   45.9210  156.6050 N.am      6 SEP2        0.0000 
     83 N          20.6580   46.8435  154.6205 N.am      2 SEC2        0.0000 
     84 N          19.3430   46.1460  154.0210 N.am      6 SEP2        0.0000 
     85 N          21.7145   47.3030  153.8435 N.am      2 SEC2        0.0000 
     86 N          21.4560   47.0650  152.4670 N.am      6 SEP2        0.0000 
     87 N          23.3640   48.2390  155.0870 N.am      2 SEC2        0.0000 
     88 N          24.7550   48.9370  154.9540 N.am      6 SEP2        0.0000 
     89 NZ         18.8805   48.8420  156.0375 N.4       3 LYC4        0.0000 
     90 NZ         19.6710   47.8300  156.2560 N.4      11 LYL4        0.0000 
     91 NZ         18.2780   51.0060  156.4570 N.4       7 LYP4        0.0000 
     92 N          19.5070   46.9880  155.1385 N.am      2 SEC2        0.0000 
     93 N          19.6710   47.8300  156.2560 N.am     10 SEL2        0.0000 
     94 N          18.8805   48.8420  156.0375 N.am      2 SEC2        0.0000 
     95 N          18.0900   49.8540  155.8190 N.am      6 SEP2        0.0000 
     96 NZ         20.3680   50.3750  156.9430 N.4       3 LYC4        0.0000 
     97 NZ         21.4240   49.5870  156.6160 N.4      11 LYL4        0.0000 
     98 N          20.3680   50.3750  156.9430 N.am      2 SEC2        0.0000 
     99 N          21.4240   49.5870  156.6160 N.am     10 SEL2        0.0000 
    100 N          19.3120   51.1630  157.2700 N.am      6 SEP2        0.0000 
    101 CA         16.8233   48.8185  156.7665 C.3       4 GLC5        0.0000 
    102 CA         17.2820   48.1390  158.9070 C.3      12 GLL5        0.0000 
    103 CA         16.9840   49.6010  154.9050 C.3       8 GLP5        0.0000 
    104 CA         17.5220   46.2302  160.1915 C.3       4 GLC5        0.0000 
    105 CA         15.8582   48.5270  160.5025 C.3       4 GLC5        0.0000 
    106 CA         15.0540   49.0180  162.3770 C.3       8 GLP5        0.0000 
    107 CA         25.1095   45.9108  169.6073 C.3       4 GLC5        0.0000 
    108 CA         24.0820   47.4310  169.9790 C.3      12 GLL5        0.0000 
    109 CA         24.1085   49.1142  169.5962 C.3       4 GLC5        0.0000 
    110 CA         26.5338   46.5692  171.6915 C.3       4 GLC5        0.0000 
    111 CA         24.9540   47.8840  170.9520 C.3      12 GLL5        0.0000 
    112 CA         28.2820   45.3240  171.7550 C.3       8 GLP5        0.0000 
    113 CA         25.2460   47.3097  174.0815 C.3       4 GLC5        0.0000 
    114 CA         26.4800   47.1740  175.6780 C.3       8 GLP5        0.0000 
    115 CA         21.6235   47.2060  173.2912 C.3       4 GLC5        0.0000 
    116 CA         23.4070   47.1460  172.6660 C.3      12 GLL5        0.0000 
    117 CA         20.2840   47.4930  174.4060 C.3       8 GLP5        0.0000 
    118 CA         22.9815   45.1475  172.8023 C.3       4 GLC5        0.0000 
    119 CA         23.0000   43.3760  173.4280 C.3       8 GLP5        0.0000 
    120 CA         21.2724   45.2234  159.9742 C.3       4 GLC5        0.0000 
    121 CA         22.8680   46.9370  159.7650 C.3      12 GLL5        0.0000 
    122 CA         20.6950   43.4590  160.0440 C.3       8 GLP5        0.0000 
@<TRIPOS>BOND
@<TRIPOS>SUBSTRUCTURE
     1 ALC1        9 GROUP        1 X    ALC  0     ROOT ALC X 1
     2 SEC2        1 GROUP        1 X    SEC  0     **** SEC X 2
     3 LYC4       77 GROUP        1 X    LYC  0     **** LYC X 4
     4 GLC5       12 GROUP        1 X    GLC  0     **** GLC X 6
     5 ALP1       11 GROUP        1 Y    ALP  0     ROOT ALP Y 8
     6 SEP2        3 GROUP        1 Y    SEP  0     **** SEP Y 9
     7 LYP4       79 GROUP        1 Y    LYP  0     **** LYP Y 11
     8 GLP5       14 GROUP        1 Y    GLP  0     **** GLP Y 13
     9 ALL1       10 GROUP        1 Z    ALL  0     ROOT ALL Z 15
    10 SEL2        2 GROUP        1 Z    SEL  0     **** SEL Z 16
    11 LYL4       78 GROUP        1 Z    LYL  0     **** LYL Z 18
    12 GLL5       13 GROUP        1 Z    GLL  0     **** GLL Z 20
@<TRIPOS>SET

