#    Name: 3p19_NAP_3_ligand
#    Modification time : Tue Mar 25 05:48:32 2014

@<TRIPOS>MOLECULE
3p19_NAP_3_ligand
   73    77     1     0     0
SMALL
NO_CHARGES


@<TRIPOS>ATOM
      1 PA         25.0730   48.4430  163.0180 P.3       1 NAP2001     0.0000 
      2 O1A        24.5520   49.7550  162.5250 O.co2     1 NAP2001     0.0000 
      3 O2A        26.4530   48.0110  162.7150 O.co2     1 NAP2001     0.0000 
      4 O5B        24.0610   47.2970  162.5690 O.3       1 NAP2001     0.0000 
      5 C5B        22.7980   47.6910  162.0620 C.3       1 NAP2001     0.0000 
      6 C4B        22.2840   46.6090  161.1400 C.3       1 NAP2001     0.0000 
      7 O4B        20.8520   46.7660  161.0270 O.3       1 NAP2001     0.0000 
      8 C3B        22.8680   46.9370  159.7650 C.3       1 NAP2001     0.0000 
      9 O3B        23.1330   45.6950  159.1060 O.3       1 NAP2001     0.0000 
     10 C2B        21.7060   47.5920  159.0520 C.3       1 NAP2001     0.0000 
     11 O2B        21.8370   47.2430  157.6760 O.3       1 NAP2001     0.0000 
     12 C1B        20.5410   46.8130  159.6610 C.3       1 NAP2001     0.0000 
     13 N9A        19.2950   47.5550  159.4840 N.pl3     1 NAP2001     0.0000 
     14 C8A        19.0630   48.8040  159.8950 C.2       1 NAP2001     0.0000 
     15 N7A        17.8300   49.1720  159.5500 N.2       1 NAP2001     0.0000 
     16 C5A        17.2820   48.1390  158.9070 C.ar      1 NAP2001     0.0000 
     17 C6A        16.0430   47.9330  158.3490 C.ar      1 NAP2001     0.0000 
     18 N6A        15.1580   48.9210  158.4010 N.pl3     1 NAP2001     0.0000 
     19 N1A        15.7600   46.7290  157.7720 N.ar      1 NAP2001     0.0000 
     20 C2A        16.6770   45.7680  157.7580 C.ar      1 NAP2001     0.0000 
     21 N3A        17.8830   45.9330  158.2930 N.ar      1 NAP2001     0.0000 
     22 C4A        18.2080   47.1100  158.8710 C.ar      1 NAP2001     0.0000 
     23 O3         24.8760   48.4900  164.6300 O.3       1 NAP2001     0.0000 
     24 PN         24.9030   47.2430  165.6500 P.3       1 NAP2001     0.0000 
     25 O1N        25.3860   47.7910  166.9560 O.co2     1 NAP2001     0.0000 
     26 O2N        25.6000   46.0890  165.0790 O.co2     1 NAP2001     0.0000 
     27 O5D        23.2780   46.9670  165.7300 O.3       1 NAP2001     0.0000 
     28 C5D        22.7350   45.6000  165.8390 C.3       1 NAP2001     0.0000 
     29 C4D        21.8420   45.4750  167.0940 C.3       1 NAP2001     0.0000 
     30 O4D        22.6940   45.5710  168.2630 O.3       1 NAP2001     0.0000 
     31 C3D        20.9040   46.6970  167.1370 C.3       1 NAP2001     0.0000 
     32 O3D        19.5300   46.2860  167.3240 O.3       1 NAP2001     0.0000 
     33 C2D        21.4170   47.4910  168.3480 C.3       1 NAP2001     0.0000 
     34 O2D        20.3580   48.2570  168.9420 O.3       1 NAP2001     0.0000 
     35 C1D        21.9410   46.3600  169.2430 C.3       1 NAP2001     0.0000 
     36 N1N        22.8640   46.8270  170.3230 N.pl3     1 NAP2001     0.0000 
     37 C2N        24.0820   47.4310  169.9790 C.ar      1 NAP2001     0.0000 
     38 C3N        24.9540   47.8840  170.9520 C.ar      1 NAP2001     0.0000 
     39 C7N        26.2920   48.5540  170.5500 C.2       1 NAP2001     0.0000 
     40 O7N        27.0940   49.0580  171.5190 O.2       1 NAP2001     0.0000 
     41 N7N        26.5980   48.6230  169.2370 N.am      1 NAP2001     0.0000 
     42 C4N        24.6170   47.7450  172.3040 C.ar      1 NAP2001     0.0000 
     43 C5N        23.4070   47.1460  172.6660 C.ar      1 NAP2001     0.0000 
     44 C6N        22.5190   46.6920  171.6870 C.ar      1 NAP2001     0.0000 
     45 P2B        21.2530   48.0230  156.4210 P.3       1 NAP2001     0.0000 
     46 O1X        21.9730   47.5410  155.2200 O.co2     1 NAP2001     0.0000 
     47 O2X        19.6710   47.8300  156.2560 O.co2     1 NAP2001     0.0000 
     48 O3X        21.4240   49.5870  156.6160 O.co2     1 NAP2001     0.0000 
     49 H          22.8600   48.6231  161.4902 H         1 NAP2001     0.0000 
     50 H          22.0630   47.8331  162.8616 H         1 NAP2001     0.0000 
     51 H          22.5846   45.6800  161.4459 H         1 NAP2001     0.0000 
     52 H          23.6555   47.5712  159.8503 H         1 NAP2001     0.0000 
     53 H          21.6497   48.5702  159.2766 H         1 NAP2001     0.0000 
     54 H          20.5064   45.8617  159.2214 H         1 NAP2001     0.0000 
     55 H          19.7056   49.3654  160.3787 H         1 NAP2001     0.0000 
     56 H          14.8237   49.2591  157.5212 H         1 NAP2001     0.0000 
     57 H          14.9056   49.2379  159.3152 H         1 NAP2001     0.0000 
     58 H          16.4394   44.8362  157.3043 H         1 NAP2001     0.0000 
     59 H          23.5396   44.8679  165.9226 H         1 NAP2001     0.0000 
     60 H          22.1283   45.3522  164.9667 H         1 NAP2001     0.0000 
     61 H          21.2892   44.6020  167.0596 H         1 NAP2001     0.0000 
     62 H          21.0655   47.2695  166.2675 H         1 NAP2001     0.0000 
     63 H          22.2457   48.0648  168.0216 H         1 NAP2001     0.0000 
     64 H          21.1307   45.8069  169.6058 H         1 NAP2001     0.0000 
     65 H          24.3245   47.5355  168.9781 H         1 NAP2001     0.0000 
     66 H          25.9150   48.2550  168.6061 H         1 NAP2001     0.0000 
     67 H          27.4805   49.0360  169.0120 H         1 NAP2001     0.0000 
     68 H          25.2594   48.0834  173.0287 H         1 NAP2001     0.0000 
     69 H          23.1682   47.0385  173.6617 H         1 NAP2001     0.0000 
     70 H          21.6304   46.2671  171.9465 H         1 NAP2001     0.0000 
     71 H          23.3306   45.9424  158.1575 H         1 NAP2001     0.0000 
     72 H          19.4840   45.3597  166.9501 H         1 NAP2001     0.0000 
     73 H          20.3417   49.1160  168.4304 H         1 NAP2001     0.0000 
@<TRIPOS>BOND
     1    2    1 ar   
     2    3    1 ar   
     3    4    1 1    
     4   23    1 1    
     5    5    4 1    
     6    6    5 1    
     7   49    5 1    
     8   50    5 1    
     9    7    6 1    
    10    8    6 1    
    11   51    6 1    
    12   12    7 1    
    13    9    8 1    
    14   10    8 1    
    15   52    8 1    
    16   71    9 1    
    17   11   10 1    
    18   12   10 1    
    19   53   10 1    
    20   45   11 1    
    21   13   12 1    
    22   54   12 1    
    23   14   13 1    
    24   22   13 1    
    25   15   14 2    
    26   55   14 1    
    27   16   15 1    
    28   17   16 ar   
    29   22   16 ar   
    30   18   17 1    
    31   19   17 ar   
    32   56   18 1    
    33   57   18 1    
    34   20   19 ar   
    35   21   20 ar   
    36   58   20 1    
    37   22   21 ar   
    38   24   23 1    
    39   25   24 ar   
    40   26   24 ar   
    41   27   24 1    
    42   28   27 1    
    43   29   28 1    
    44   59   28 1    
    45   60   28 1    
    46   30   29 1    
    47   31   29 1    
    48   61   29 1    
    49   35   30 1    
    50   32   31 1    
    51   33   31 1    
    52   62   31 1    
    53   72   32 1    
    54   34   33 1    
    55   35   33 1    
    56   63   33 1    
    57   73   34 1    
    58   36   35 1    
    59   64   35 1    
    60   37   36 ar   
    61   44   36 ar   
    62   38   37 ar   
    63   65   37 1    
    64   39   38 1    
    65   42   38 ar   
    66   40   39 2    
    67   41   39 am   
    68   66   41 1    
    69   67   41 1    
    70   43   42 ar   
    71   68   42 1    
    72   44   43 ar   
    73   69   43 1    
    74   70   44 1    
    75   46   45 ar   
    76   47   45 ar   
    77   48   45 ar   
@<TRIPOS>SUBSTRUCTURE
     1 NAP2001     1 GROUP   
@<TRIPOS>SET

