#    Name: 3dko_IHZ_1_INTS_M
#    Modification time : Mon Mar 24 23:35:31 2014

@<TRIPOS>MOLECULE
3dko_IHZ_1_INTS_M
   87     0     9     0     0
SMALL
NO_CHARGES


@<TRIPOS>ATOM
      1 CA        -17.6825   12.3055   -5.3885 C.3       3 GLC5        0.0000 
      2 CA        -15.9510   11.2950   -5.1960 C.3       9 GLL5        0.0000 
      3 CA        -19.4140   13.3160   -5.5810 C.3       6 GLP5        0.0000 
      4 CA        -15.3170   12.5220   -3.6725 C.3       3 GLC5        0.0000 
      5 CA        -14.6830   13.7490   -2.1490 C.3       6 GLP5        0.0000 
      6 CA        -14.2275   11.9950   -5.3615 C.3       3 GLC5        0.0000 
      7 CA        -12.5040   12.6950   -5.5270 C.3       6 GLP5        0.0000 
      8 CA        -15.9550   11.5265   -7.2600 C.3       3 GLC5        0.0000 
      9 CA        -15.9590   11.7580   -9.3240 C.3       6 GLP5        0.0000 
     10 CA        -17.5445   10.9825   -1.9330 C.3       3 GLC5        0.0000 
     11 CA        -16.0390   10.1160   -3.3310 C.3       9 GLL5        0.0000 
     12 CA        -19.0500   11.8490   -0.5350 C.3       6 GLP5        0.0000 
     13 CA        -15.6180   11.4970   -2.2540 C.3       3 GLC5        0.0000 
     14 CA        -15.1970   12.8780   -1.1770 C.3       6 GLP5        0.0000 
     15 CA        -15.7375    9.3210   -1.6990 C.3       3 GLC5        0.0000 
     16 CA        -15.4360    8.5260   -0.0670 C.3       6 GLP5        0.0000 
     17 CA        -15.0310    7.4015   -4.2700 C.3       3 GLC5        0.0000 
     18 CA        -15.5910    9.1590   -5.2190 C.3       9 GLL5        0.0000 
     19 CA        -14.4710    5.6440   -3.3210 C.3       6 GLP5        0.0000 
     20 CA        -13.9385    8.2415   -5.3600 C.3       3 GLC5        0.0000 
     21 CA        -12.2860    7.3240   -5.5010 C.3       6 GLP5        0.0000 
     22 CA        -17.1880    7.6320   -5.3680 C.3       3 GLC5        0.0000 
     23 CA        -18.7850    6.1050   -5.5170 C.3       6 GLP5        0.0000 
     24 CA        -17.1205   10.8505   -7.7770 C.3       3 GLC5        0.0000 
     25 CA        -18.2820    9.9430   -6.2300 C.3       9 GLL5        0.0000 
     26 CA        -18.8625   10.6750   -2.2080 C.3       3 GLC5        0.0000 
     27 CA        -18.6750    9.5010   -3.8810 C.3       9 GLL5        0.0000 
     28 CA        -19.8335   11.5045   -6.9060 C.3       3 GLC5        0.0000 
     29 CA        -19.6270    9.6990   -6.5300 C.3       9 GLL5        0.0000 
     30 CA        -20.0400   13.3100   -7.2820 C.3       6 GLP5        0.0000 
     31 O         -21.4940    9.8920   -7.6305 O.2       1 ALC1        0.0000 
     32 O         -20.1320    9.7850   -7.7900 O.2       7 ALL1        0.0000 
     33 O         -22.8560    9.9990   -7.4710 O.2       4 ALP1        0.0000 
     34 N         -18.0220    8.1040   -8.3425 N.am      2 SEC2        0.0000 
     35 N         -18.2530    9.3590   -9.0340 N.am      8 SEL2        0.0000 
     36 N         -17.7910    6.8490   -7.6510 N.am      5 SEP2        0.0000 
     37 CA        -17.7970   11.0255  -10.3500 C.3       3 GLC5        0.0000 
     38 CA        -19.6350   10.2930  -11.3760 C.3       9 GLL5        0.0000 
     39 CA        -23.4780   10.0390  -15.2235 C.3       3 GLC5        0.0000 
     40 CA        -22.4420   10.2240  -13.9650 C.3       9 GLL5        0.0000 
     41 CA        -24.5140    9.8540  -16.4820 C.3       6 GLP5        0.0000 
     42 CA        -21.7260   11.7540  -15.2485 C.3       3 GLC5        0.0000 
     43 CA        -21.0100   13.2840  -16.5320 C.3       6 GLP5        0.0000 
     44 CA        -21.5455    8.2290  -13.4800 C.3       3 GLC5        0.0000 
     45 CA        -20.6490    6.2340  -12.9950 C.3       6 GLP5        0.0000 
     46 CA        -17.7170   12.9275  -16.8760 C.3       3 GLC5        0.0000 
     47 CA        -18.4650   11.2690  -15.7250 C.3       9 GLL5        0.0000 
     48 CA        -16.9690   14.5860  -18.0270 C.3       6 GLP5        0.0000 
     49 CA        -16.5265   10.9985  -16.3330 C.3       3 GLC5        0.0000 
     50 CA        -14.5880   10.7280  -16.9410 C.3       6 GLP5        0.0000 
     51 N         -17.0325   11.6485  -17.5435 N.am      2 SEC2        0.0000 
     52 N         -18.1760   10.8530  -16.9590 N.am      8 SEL2        0.0000 
     53 N         -15.8890   12.4440  -18.1280 N.am      5 SEP2        0.0000 
     54 CA        -19.8465   11.4995  -16.9875 C.3       3 GLC5        0.0000 
     55 CA        -18.6830    9.7150  -17.4430 C.3       9 GLL5        0.0000 
     56 CA        -16.6355   10.2215  -17.1920 C.3       3 GLC5        0.0000 
     57 CA        -15.8002    8.7560   -6.6145 C.3       3 GLC5        0.0000 
     58 CA        -15.6520    7.8680   -8.2960 C.3       6 GLP5        0.0000 
     59 CA        -18.7285   11.6080   -5.5783 C.3       3 GLC5        0.0000 
     60 CA        -16.8475    8.8840   -6.9357 C.3       3 GLC5        0.0000 
     61 CA        -18.4140    8.0025   -5.5463 C.3       3 GLC5        0.0000 
     62 CA        -19.0648    7.7395   -4.7695 C.3       3 GLC5        0.0000 
     63 CA        -19.6624   11.3392   -5.1658 C.3       3 GLC5        0.0000 
     64 CA        -20.4770    9.3510   -5.4790 C.3       9 GLL5        0.0000 
     65 CA        -19.4185    7.8150   -5.7607 C.3       3 GLC5        0.0000 
     66 CA        -21.6281   10.5175   -5.7002 C.3       3 GLC5        0.0000 
     67 CA        -23.3200   11.5360   -5.7250 C.3       6 GLP5        0.0000 
     68 CA        -20.7957   11.7763  -10.8920 C.3       3 GLC5        0.0000 
     69 CA        -20.2660    9.7540  -10.2500 C.3       9 GLL5        0.0000 
     70 CA        -21.6410   13.5290  -10.9710 C.3       6 GLP5        0.0000 
     71 CA        -18.2642    9.7285  -12.7640 C.3       3 GLC5        0.0000 
     72 CA        -16.5690    9.0860  -13.5360 C.3       6 GLP5        0.0000 
     73 CA        -23.9402    9.9047  -10.8347 C.3       3 GLC5        0.0000 
     74 CA        -21.6020    9.3580  -10.3370 C.3       9 GLL5        0.0000 
     75 CA        -25.9450   10.3690  -10.7250 C.3       6 GLP5        0.0000 
     76 CA        -21.7882   11.4848  -10.9578 C.3       3 GLC5        0.0000 
     77 CA        -22.2690    9.5230  -11.5520 C.3       9 GLL5        0.0000 
     78 CA        -21.2987   11.8938  -11.8063 C.3       3 GLC5        0.0000 
     79 CA        -21.6290   10.0680  -12.6750 C.3       9 GLL5        0.0000 
     80 CA        -20.0199   11.9430  -15.9795 C.3       3 GLC5        0.0000 
     81 CA        -19.3240   10.5320  -14.8820 C.3       9 GLL5        0.0000 
     82 CA        -17.7994    9.8440  -14.4815 C.3       3 GLC5        0.0000 
     83 CA        -20.6805    9.6167  -18.3957 C.3       3 GLC5        0.0000 
     84 CA        -19.5510    8.9200  -16.6740 C.3       9 GLL5        0.0000 
     85 CA        -22.2440    9.9160  -19.7330 C.3       6 GLP5        0.0000 
     86 CA        -17.7670    8.1698  -15.9943 C.3       3 GLC5        0.0000 
     87 CA        -16.4170    7.0220  -14.9300 C.3       6 GLP5        0.0000 
@<TRIPOS>BOND
@<TRIPOS>SUBSTRUCTURE
     1 ALC1       31 GROUP        1 X    ALC  0     ROOT ALC X 1
     2 SEC2       34 GROUP        1 X    SEC  0     **** SEC X 2
     3 GLC5        1 GROUP        1 X    GLC  0     **** GLC X 6
     4 ALP1       33 GROUP        1 Y    ALP  0     ROOT ALP Y 8
     5 SEP2       36 GROUP        1 Y    SEP  0     **** SEP Y 9
     6 GLP5        3 GROUP        1 Y    GLP  0     **** GLP Y 13
     7 ALL1       32 GROUP        1 Z    ALL  0     ROOT ALL Z 15
     8 SEL2       35 GROUP        1 Z    SEL  0     **** SEL Z 16
     9 GLL5        2 GROUP        1 Z    GLL  0     **** GLL Z 20
@<TRIPOS>SET

