#    Name: 3dko_IHZ_1_ligand
#    Modification time : Mon Mar 24 23:35:31 2014

@<TRIPOS>MOLECULE
3dko_IHZ_1_ligand
   47    49     1     0     0
SMALL
NO_CHARGES


@<TRIPOS>ATOM
      1 FAE       -15.9510   11.2950   -5.1960 F         1 IHZ1001     0.0000 
      2 CBD       -16.3060   10.1290   -4.6470 C.3       1 IHZ1001     0.0000 
      3 FAF       -16.0390   10.1160   -3.3310 F         1 IHZ1001     0.0000 
      4 FAG       -15.5910    9.1590   -5.2190 F         1 IHZ1001     0.0000 
      5 CBB       -17.8040    9.8570   -4.9210 C.ar      1 IHZ1001     0.0000 
      6 CAP       -18.2820    9.9430   -6.2300 C.ar      1 IHZ1001     0.0000 
      7 CAK       -18.6750    9.5010   -3.8810 C.ar      1 IHZ1001     0.0000 
      8 CAH       -20.0140    9.2470   -4.1630 C.ar      1 IHZ1001     0.0000 
      9 CAI       -20.4770    9.3510   -5.4790 C.ar      1 IHZ1001     0.0000 
     10 CAX       -19.6270    9.6990   -6.5300 C.ar      1 IHZ1001     0.0000 
     11 NAS       -20.1320    9.7850   -7.7900 N.am      1 IHZ1001     0.0000 
     12 CAV       -19.4570    9.6040   -8.9480 C.2       1 IHZ1001     0.0000 
     13 OAD       -18.2530    9.3590   -9.0340 O.2       1 IHZ1001     0.0000 
     14 CAZ       -20.2660    9.7540  -10.2500 C.ar      1 IHZ1001     0.0000 
     15 CAQ       -19.6350   10.2930  -11.3760 C.ar      1 IHZ1001     0.0000 
     16 CAL       -21.6020    9.3580  -10.3370 C.ar      1 IHZ1001     0.0000 
     17 CAJ       -22.2690    9.5230  -11.5520 C.ar      1 IHZ1001     0.0000 
     18 CAW       -21.6290   10.0680  -12.6750 C.ar      1 IHZ1001     0.0000 
     19 CAA       -22.4420   10.2240  -13.9650 C.3       1 IHZ1001     0.0000 
     20 CBC       -20.2840   10.4490  -12.6080 C.ar      1 IHZ1001     0.0000 
     21 NAT       -19.5920   11.0090  -13.6400 N.pl3     1 IHZ1001     0.0000 
     22 CAY       -19.3240   10.5320  -14.8820 C.ar      1 IHZ1001     0.0000 
     23 CAO       -19.8650    9.3380  -15.3760 C.ar      1 IHZ1001     0.0000 
     24 CAM       -18.4650   11.2690  -15.7250 C.ar      1 IHZ1001     0.0000 
     25 NAR       -18.1760   10.8530  -16.9590 N.ar      1 IHZ1001     0.0000 
     26 CAN       -18.6830    9.7150  -17.4430 C.ar      1 IHZ1001     0.0000 
     27 CBA       -19.5510    8.9200  -16.6740 C.ar      1 IHZ1001     0.0000 
     28 CAU       -20.1540    7.5920  -17.1990 C.2       1 IHZ1001     0.0000 
     29 OAC       -21.0380    7.0160  -16.5620 O.2       1 IHZ1001     0.0000 
     30 NAB       -19.6630    7.1230  -18.3510 N.am      1 IHZ1001     0.0000 
     31 H         -17.6302   10.1919   -6.9943 H         1 IHZ1001     0.0000 
     32 H         -18.3236    9.4298   -2.9228 H         1 IHZ1001     0.0000 
     33 H         -20.6603    8.9848   -3.4125 H         1 IHZ1001     0.0000 
     34 H         -21.4785    9.1643   -5.6776 H         1 IHZ1001     0.0000 
     35 H         -21.1892   10.0244   -7.8718 H         1 IHZ1001     0.0000 
     36 H         -18.6370   10.5924  -11.2960 H         1 IHZ1001     0.0000 
     37 H         -22.0784    8.9583   -9.5331 H         1 IHZ1001     0.0000 
     38 H         -23.2627    9.2364  -11.6295 H         1 IHZ1001     0.0000 
     39 H         -19.1814   12.0203  -13.4282 H         1 IHZ1001     0.0000 
     40 H         -20.4864    8.7750  -14.7903 H         1 IHZ1001     0.0000 
     41 H         -18.0638   12.1550  -15.3433 H         1 IHZ1001     0.0000 
     42 H         -18.4491    9.3847  -18.4046 H         1 IHZ1001     0.0000 
     43 H         -18.9321    7.6620  -18.7697 H         1 IHZ1001     0.0000 
     44 H         -20.0708    6.2754  -18.6905 H         1 IHZ1001     0.0000 
     45 H         -21.8946   10.6171  -14.7038 H         1 IHZ1001     0.0000 
     46 H         -22.7898    9.3458  -14.2933 H         1 IHZ1001     0.0000 
     47 H         -23.2326   10.8225  -13.8356 H         1 IHZ1001     0.0000 
@<TRIPOS>BOND
     1    2    1 1    
     2    3    2 1    
     3    4    2 1    
     4    5    2 1    
     5    6    5 ar   
     6    7    5 ar   
     7   10    6 ar   
     8   31    6 1    
     9    8    7 ar   
    10   32    7 1    
    11    9    8 ar   
    12   33    8 1    
    13   10    9 ar   
    14   34    9 1    
    15   11   10 1    
    16   12   11 am   
    17   35   11 1    
    18   13   12 2    
    19   14   12 1    
    20   15   14 ar   
    21   16   14 ar   
    22   20   15 ar   
    23   36   15 1    
    24   17   16 ar   
    25   37   16 1    
    26   18   17 ar   
    27   38   17 1    
    28   19   18 1    
    29   20   18 ar   
    30   45   19 1    
    31   46   19 1    
    32   47   19 1    
    33   21   20 1    
    34   22   21 1    
    35   39   21 1    
    36   23   22 ar   
    37   24   22 ar   
    38   27   23 ar   
    39   40   23 1    
    40   25   24 ar   
    41   41   24 1    
    42   26   25 ar   
    43   27   26 ar   
    44   42   26 1    
    45   28   27 1    
    46   29   28 2    
    47   30   28 am   
    48   43   30 1    
    49   44   30 1    
@<TRIPOS>SUBSTRUCTURE
     1 IHZ1001     1 GROUP   
@<TRIPOS>SET

