#    Name: 3l8k_ADP_1_INTS_M
#    Modification time : Mon Mar 24 21:07:45 2014

@<TRIPOS>MOLECULE
3l8k_ADP_1_INTS_M
   65     0     9     0     0
SMALL
NO_CHARGES


@<TRIPOS>ATOM
      1 N          -1.2865   56.4810   21.6285 N.am      2 SEC2        0.0000 
      2 N          -1.5240   56.4170   20.1040 N.am      8 SEL2        0.0000 
      3 N          -1.0490   56.5450   23.1530 N.am      5 SEP2        0.0000 
      4 N          -0.0200   60.0455   19.0835 N.am      2 SEC2        0.0000 
      5 N          -0.7020   58.7350   19.3420 N.am      8 SEL2        0.0000 
      6 N           0.6620   61.3560   18.8250 N.am      5 SEP2        0.0000 
      7 N          -1.4370   53.6075   16.3360 N.am      2 SEC2        0.0000 
      8 N          -0.8010   54.7630   17.1520 N.am      8 SEL2        0.0000 
      9 N          -2.0730   52.4520   15.5200 N.am      5 SEP2        0.0000 
     10 N          -0.0580   53.3690   16.4330 N.am      2 SEC2        0.0000 
     11 N           0.6850   51.9750   15.7140 N.am      5 SEP2        0.0000 
     12 N          -2.3630   55.8755   14.3480 N.am      2 SEC2        0.0000 
     13 N          -1.7990   56.4820   15.4070 N.am      8 SEL2        0.0000 
     14 N          -2.9270   55.2690   13.2890 N.am      5 SEP2        0.0000 
     15 CA         -5.3485   58.2775   17.4650 C.3       3 GLC5        0.0000 
     16 CA         -4.2830   56.4290   17.2150 C.3       9 GLL5        0.0000 
     17 CA         -6.4140   60.1260   17.7150 C.3       6 GLP5        0.0000 
     18 CA         -3.5885   58.1085   16.7995 C.3       3 GLC5        0.0000 
     19 CA         -2.8940   59.7880   16.3840 C.3       6 GLP5        0.0000 
     20 CA         -6.9440   56.1195   18.6880 C.3       3 GLC5        0.0000 
     21 CA         -5.5990   55.6740   17.1690 C.3       9 GLL5        0.0000 
     22 CA         -8.2890   56.5650   20.2070 C.3       6 GLP5        0.0000 
     23 CA         -5.5800   53.0540   15.0455 C.3       3 GLC5        0.0000 
     24 CA         -5.7500   54.8690   15.8850 C.3       9 GLL5        0.0000 
     25 CA         -5.4100   51.2390   14.2060 C.3       6 GLP5        0.0000 
     26 CA         -4.4885   53.3660   16.6940 C.3       3 GLC5        0.0000 
     27 CA         -3.2270   51.8630   17.5030 C.3       6 GLP5        0.0000 
     28 O          -7.4370   53.0680   16.4470 O.2       1 ALC1        0.0000 
     29 O          -5.8570   53.4960   16.2590 O.2       7 ALL1        0.0000 
     30 O          -9.0170   52.6400   16.6350 O.2       4 ALP1        0.0000 
     31 O          -6.8300   53.4390   17.2645 O.2       1 ALC1        0.0000 
     32 O          -7.8030   53.3820   18.2700 O.2       4 ALP1        0.0000 
     33 O          -8.4465   53.5360   15.6330 O.2       1 ALC1        0.0000 
     34 O          -7.8760   54.4320   14.6310 O.2       7 ALL1        0.0000 
     35 CA         -7.9935   56.3590   18.2620 C.3       3 GLC5        0.0000 
     36 CA         -7.6980   56.1530   16.3170 C.3       9 GLL5        0.0000 
     37 CA         -9.6385   55.2120   15.9600 C.3       3 GLC5        0.0000 
     38 CA        -11.5790   54.2710   15.6030 C.3       6 GLP5        0.0000 
     39 CA         -7.0560   58.1395   17.0160 C.3       3 GLC5        0.0000 
     40 CA        -13.5360   57.9620   16.1590 C.3       3 GLC5        0.0000 
     41 CA        -11.6940   59.0280   16.4550 C.3       9 GLL5        0.0000 
     42 CA        -15.3780   56.8960   15.8630 C.3       6 GLP5        0.0000 
     43 O         -13.7195   60.8115   16.4365 O.2       1 ALC1        0.0000 
     44 O         -12.3550   60.1140   16.0180 O.2       7 ALL1        0.0000 
     45 O         -15.0840   61.5090   16.8550 O.2       4 ALP1        0.0000 
     46 N         -13.8100   58.5105   17.4205 N.am      2 SEC2        0.0000 
     47 N         -12.2660   58.2380   17.3950 N.am      8 SEL2        0.0000 
     48 N         -15.3540   58.7830   17.4460 N.am      5 SEP2        0.0000 
     49 CA        -11.4035   58.7290   18.6810 C.3       3 GLC5        0.0000 
     50 CA        -11.6650   57.1450   17.8970 C.3       9 GLL5        0.0000 
     51 CA        -11.1420   60.3130   19.4650 C.3       6 GLP5        0.0000 
     52 CA         -9.9770   56.8550   19.0520 C.3       3 GLC5        0.0000 
     53 CA        -11.5170   55.2255   18.1295 C.3       3 GLC5        0.0000 
     54 CA        -11.3690   53.3060   18.3620 C.3       6 GLP5        0.0000 
     55 CA        -11.6220   55.7080   16.7500 C.3       3 GLC5        0.0000 
     56 CA        -13.5215   57.0205   16.8800 C.3       3 GLC5        0.0000 
     57 CA        -13.3525   57.9035   19.0725 C.3       3 GLC5        0.0000 
     58 CA        -15.0400   58.6620   20.2480 C.3       6 GLP5        0.0000 
     59 CA         -9.0270   57.0040   18.3695 C.3       3 GLC5        0.0000 
     60 CA         -9.7650   57.4430   16.5320 C.3       9 GLL5        0.0000 
     61 CA        -10.6720   55.8570   16.0675 C.3       3 GLC5        0.0000 
     62 CA         -8.7323   59.5775   16.6788 C.3       3 GLC5        0.0000 
     63 CA        -10.3340   58.6610   15.9510 C.3       9 GLL5        0.0000 
     64 CA         -7.4150   61.1030   17.1160 C.3       6 GLP5        0.0000 
     65 CA        -10.7658   59.2284   17.9162 C.3       3 GLC5        0.0000 
@<TRIPOS>BOND
@<TRIPOS>SUBSTRUCTURE
     1 ALC1       28 GROUP        1 X    ALC  0     ROOT ALC X 1
     2 SEC2        1 GROUP        1 X    SEC  0     **** SEC X 2
     3 GLC5       15 GROUP        1 X    GLC  0     **** GLC X 6
     4 ALP1       30 GROUP        1 Y    ALP  0     ROOT ALP Y 8
     5 SEP2        3 GROUP        1 Y    SEP  0     **** SEP Y 9
     6 GLP5       17 GROUP        1 Y    GLP  0     **** GLP Y 13
     7 ALL1       29 GROUP        1 Z    ALL  0     ROOT ALL Z 15
     8 SEL2        2 GROUP        1 Z    SEL  0     **** SEL Z 16
     9 GLL5       16 GROUP        1 Z    GLL  0     **** GLL Z 20
@<TRIPOS>SET

