#    Name: 3l8k_ADP_1_ligand
#    Modification time : Mon Mar 24 21:07:45 2014

@<TRIPOS>MOLECULE
3l8k_ADP_1_ligand
   39    41     1     0     0
SMALL
NO_CHARGES


@<TRIPOS>ATOM
      1 PB         -0.6500   57.2570   19.1880 P.3       1 ADP465      0.0000 
      2 O1B        -1.5240   56.4170   20.1040 O.co2     1 ADP465      0.0000 
      3 O2B        -0.7020   58.7350   19.3420 O.co2     1 ADP465      0.0000 
      4 O3B         0.7780   56.7350   19.0490 O.co2     1 ADP465      0.0000 
      5 PA         -1.7060   55.9300   16.8240 P.3       1 ADP465      0.0000 
      6 O1A        -0.8010   54.7630   17.1520 O.co2     1 ADP465      0.0000 
      7 O2A        -1.7990   56.4820   15.4070 O.co2     1 ADP465      0.0000 
      8 O3A        -1.3360   57.2260   17.7350 O.3       1 ADP465      0.0000 
      9 O5'        -3.2040   55.5120   17.2410 O.3       1 ADP465      0.0000 
     10 C5'        -4.2830   56.4290   17.2150 C.3       1 ADP465      0.0000 
     11 C4'        -5.5990   55.6740   17.1690 C.3       1 ADP465      0.0000 
     12 O4'        -6.6730   56.6180   17.1960 O.3       1 ADP465      0.0000 
     13 C3'        -5.7500   54.8690   15.8850 C.3       1 ADP465      0.0000 
     14 O3'        -5.8570   53.4960   16.2590 O.3       1 ADP465      0.0000 
     15 C2'        -7.0010   55.4280   15.1820 C.3       1 ADP465      0.0000 
     16 O2'        -7.8760   54.4320   14.6310 O.3       1 ADP465      0.0000 
     17 C1'        -7.6980   56.1530   16.3170 C.3       1 ADP465      0.0000 
     18 N9         -8.5790   57.2810   15.9490 N.pl3     1 ADP465      0.0000 
     19 C8         -8.3670   58.2780   15.0460 C.2       1 ADP465      0.0000 
     20 N7         -9.4270   59.1250   15.0370 N.2       1 ADP465      0.0000 
     21 C5        -10.3340   58.6610   15.9510 C.ar      1 ADP465      0.0000 
     22 C6        -11.6940   59.0280   16.4550 C.ar      1 ADP465      0.0000 
     23 N6        -12.3550   60.1140   16.0180 N.pl3     1 ADP465      0.0000 
     24 N1        -12.2660   58.2380   17.3950 N.ar      1 ADP465      0.0000 
     25 C2        -11.6650   57.1450   17.8970 C.ar      1 ADP465      0.0000 
     26 N3        -10.4480   56.7530   17.4690 N.ar      1 ADP465      0.0000 
     27 C4         -9.7650   57.4430   16.5320 C.ar      1 ADP465      0.0000 
     28 H          -4.2416   57.0857   16.3348 H         1 ADP465      0.0000 
     29 H          -4.2958   57.0722   18.1060 H         1 ADP465      0.0000 
     30 H          -5.6564   55.0065   18.0028 H         1 ADP465      0.0000 
     31 H          -4.8964   55.0704   15.2778 H         1 ADP465      0.0000 
     32 H          -6.6842   56.1620   14.4800 H         1 ADP465      0.0000 
     33 H          -8.2938   55.3973   16.8654 H         1 ADP465      0.0000 
     34 H          -7.5742   58.3671   14.4922 H         1 ADP465      0.0000 
     35 H         -13.2430   60.2893   16.4431 H         1 ADP465      0.0000 
     36 H         -11.8997   60.6496   15.3068 H         1 ADP465      0.0000 
     37 H         -12.1538   56.5821   18.6402 H         1 ADP465      0.0000 
     38 H          -6.5389   53.4795   16.9903 H         1 ADP465      0.0000 
     39 H          -8.1545   53.8721   15.4113 H         1 ADP465      0.0000 
@<TRIPOS>BOND
     1    2    1 ar   
     2    3    1 ar   
     3    4    1 ar   
     4    8    1 1    
     5    6    5 ar   
     6    7    5 ar   
     7    8    5 1    
     8    9    5 1    
     9   10    9 1    
    10   11   10 1    
    11   28   10 1    
    12   29   10 1    
    13   12   11 1    
    14   13   11 1    
    15   30   11 1    
    16   17   12 1    
    17   14   13 1    
    18   15   13 1    
    19   31   13 1    
    20   38   14 1    
    21   16   15 1    
    22   17   15 1    
    23   32   15 1    
    24   39   16 1    
    25   18   17 1    
    26   33   17 1    
    27   19   18 1    
    28   27   18 1    
    29   20   19 2    
    30   34   19 1    
    31   21   20 1    
    32   22   21 ar   
    33   27   21 ar   
    34   23   22 1    
    35   24   22 ar   
    36   35   23 1    
    37   36   23 1    
    38   25   24 ar   
    39   26   25 ar   
    40   37   25 1    
    41   27   26 ar   
@<TRIPOS>SUBSTRUCTURE
     1 ADP465      1 GROUP   
@<TRIPOS>SET

