#    Name: 1q41_IXM_1_INTS_M
#    Modification time : Mon Mar 24 23:02:49 2014

@<TRIPOS>MOLECULE
1q41_IXM_1_INTS_M
   54     0     9     0     0
SMALL
NO_CHARGES


@<TRIPOS>ATOM
      1 CA         38.8095    4.3835   37.4405 C.3       3 GLC5        0.0000 
      2 CA         40.8210    3.8770   36.6990 C.3       9 GLL5        0.0000 
      3 CA         36.7980    4.8900   38.1820 C.3       6 GLP5        0.0000 
      4 O          41.0465    4.6755   38.7075 O.2       1 ALC1        0.0000 
      5 O          40.5960    5.0550   37.3470 O.2       7 ALL1        0.0000 
      6 O          41.4970    4.2960   40.0680 O.2       4 ALP1        0.0000 
      7 CA         42.1575    2.4295   39.1040 C.3       3 GLC5        0.0000 
      8 CA         41.4700    2.7350   37.2090 C.3       9 GLL5        0.0000 
      9 CA         42.8450    2.1240   40.9990 C.3       6 GLP5        0.0000 
     10 CA         38.3685    5.4315   37.3690 C.3       3 GLC5        0.0000 
     11 CA         39.9390    5.9730   36.5560 C.3       9 GLL5        0.0000 
     12 O          40.0980    9.8040   39.5840 O.2       1 ALC1        0.0000 
     13 O          39.5880    9.0090   38.4350 O.2       7 ALL1        0.0000 
     14 O          40.6080   10.5990   40.7330 O.2       4 ALP1        0.0000 
     15 CA         36.7210   11.1935   38.6285 C.3       3 GLC5        0.0000 
     16 CA         38.1100   10.5980   37.2150 C.3       9 GLL5        0.0000 
     17 CA         35.3320   11.7890   40.0420 C.3       6 GLP5        0.0000 
     18 CA         38.3455    9.9580   33.4175 C.3       3 GLC5        0.0000 
     19 CA         37.2640    9.7690   35.0520 C.3       9 GLL5        0.0000 
     20 CA         39.4270   10.1470   31.7830 C.3       6 GLP5        0.0000 
     21 CA         39.5530    9.1275   34.3870 C.3       3 GLC5        0.0000 
     22 CA         37.9780    8.5360   35.2210 C.3       9 GLL5        0.0000 
     23 CA         41.1280    9.7190   33.5530 C.3       6 GLP5        0.0000 
     24 N          41.1680    6.8395   40.3070 N.am      2 SEC2        0.0000 
     25 N          40.8470    7.1490   39.0760 N.am      8 SEL2        0.0000 
     26 N          41.4890    6.5300   41.5380 N.am      5 SEP2        0.0000 
     27 CA         42.0053    5.4308   35.6060 C.3       3 GLC5        0.0000 
     28 CA         43.4470    6.9640   35.1720 C.3       6 GLP5        0.0000 
     29 CA         39.0553    2.7352   36.2745 C.3       3 GLC5        0.0000 
     30 CA         37.5470    1.5730   36.5090 C.3       6 GLP5        0.0000 
     31 CA         40.7490    1.0242   38.3698 C.3       3 GLC5        0.0000 
     32 CA         39.9560   -0.1220   39.9540 C.3       6 GLP5        0.0000 
     33 CA         39.5445    1.8718   36.6472 C.3       3 GLC5        0.0000 
     34 CA         40.6910   -0.0365   35.3552 C.3       3 GLC5        0.0000 
     35 CA         41.6140    1.6060   36.3620 C.3       9 GLL5        0.0000 
     36 CA         40.0240   -1.6960   35.0160 C.3       6 GLP5        0.0000 
     37 CA         39.1582    1.8980   35.6420 C.3       3 GLC5        0.0000 
     38 CA         41.1020    1.6400   35.0270 C.3       9 GLL5        0.0000 
     39 CA         41.6063    6.7838   35.9585 C.3       3 GLC5        0.0000 
     40 CA         38.1130    7.3717   38.1277 C.3       3 GLC5        0.0000 
     41 CA         38.7520    8.3330   36.3870 C.3       9 GLL5        0.0000 
     42 CA         37.0540    6.9600   39.5950 C.3       6 GLP5        0.0000 
     43 CA         40.0565    9.1484   35.2804 C.3       3 GLC5        0.0000 
     44 CA         39.5920    7.2340   36.9340 C.3       9 GLL5        0.0000 
     45 CA         37.7540    8.4725   38.4400 C.3       3 GLC5        0.0000 
     46 CA         38.7980    9.3720   37.3550 C.3       9 GLL5        0.0000 
     47 CA         40.3657   10.2656   37.2810 C.3       3 GLC5        0.0000 
     48 CA         42.2890   10.8060   37.5190 C.3       6 GLP5        0.0000 
     49 CA         38.2332   12.5180   36.7418 C.3       3 GLC5        0.0000 
     50 CA         38.7450   14.3410   36.8520 C.3       6 GLP5        0.0000 
     51 CA         36.0018    9.8005   37.1948 C.3       3 GLC5        0.0000 
     52 CA         34.2820    8.9060   37.7580 C.3       6 GLP5        0.0000 
     53 CA         36.1398    8.3154   36.0090 C.3       3 GLC5        0.0000 
     54 CA         34.4650    7.5290   36.5900 C.3       6 GLP5        0.0000 
@<TRIPOS>BOND
@<TRIPOS>SUBSTRUCTURE
     1 ALC1        4 GROUP        1 X    ALC  0     ROOT ALC X 1
     2 SEC2       24 GROUP        1 X    SEC  0     **** SEC X 2
     3 GLC5        1 GROUP        1 X    GLC  0     **** GLC X 6
     4 ALP1        6 GROUP        1 Y    ALP  0     ROOT ALP Y 8
     5 SEP2       26 GROUP        1 Y    SEP  0     **** SEP Y 9
     6 GLP5        3 GROUP        1 Y    GLP  0     **** GLP Y 13
     7 ALL1        5 GROUP        1 Z    ALL  0     ROOT ALL Z 15
     8 SEL2       25 GROUP        1 Z    SEL  0     **** SEL Z 16
     9 GLL5        2 GROUP        1 Z    GLL  0     **** GLL Z 20
@<TRIPOS>SET

