#    Name: 1q41_IXM_1_ligand
#    Modification time : Mon Mar 24 23:02:49 2014

@<TRIPOS>MOLECULE
1q41_IXM_1_ligand
   32    35     1     0     0
SMALL
NO_CHARGES


@<TRIPOS>ATOM
      1 C1         40.3060    3.9180   35.3810 C.ar      1 IXM451      0.0000 
      2 C2         39.6890    5.2740   35.2240 C.2       1 IXM451      0.0000 
      3 C3         40.8210    3.8770   36.6990 C.ar      1 IXM451      0.0000 
      4 N4         40.5960    5.0550   37.3470 N.pl3     1 IXM451      0.0000 
      5 C5         41.4700    2.7350   37.2090 C.ar      1 IXM451      0.0000 
      6 C7         41.6140    1.6060   36.3620 C.ar      1 IXM451      0.0000 
      7 C9         41.1020    1.6400   35.0270 C.ar      1 IXM451      0.0000 
      8 C11        40.4370    2.8060   34.5230 C.ar      1 IXM451      0.0000 
      9 C13        39.9390    5.9730   36.5560 C.2       1 IXM451      0.0000 
     10 C14        39.5920    7.2340   36.9340 C.2       1 IXM451      0.0000 
     11 C15        40.1170    7.7360   38.2760 C.2       1 IXM451      0.0000 
     12 N16        39.5880    9.0090   38.4350 N.am      1 IXM451      0.0000 
     13 C17        38.7980    9.3720   37.3550 C.ar      1 IXM451      0.0000 
     14 C18        38.7520    8.3330   36.3870 C.ar      1 IXM451      0.0000 
     15 C19        38.1100   10.5980   37.2150 C.ar      1 IXM451      0.0000 
     16 C20        37.3330   10.7920   36.0480 C.ar      1 IXM451      0.0000 
     17 C21        37.2640    9.7690   35.0520 C.ar      1 IXM451      0.0000 
     18 C22        37.9780    8.5360   35.2210 C.ar      1 IXM451      0.0000 
     19 O23        40.8470    7.1490   39.0760 O.2       1 IXM451      0.0000 
     20 N24        39.0400    5.8050   34.2330 N.2       1 IXM451      0.0000 
     21 O39        38.8830    5.0110   33.0960 O.3       1 IXM451      0.0000 
     22 H          40.8685    5.2374   38.2743 H         1 IXM451      0.0000 
     23 H          41.8254    2.7162   38.1533 H         1 IXM451      0.0000 
     24 H          42.0819    0.7676   36.7003 H         1 IXM451      0.0000 
     25 H          41.2107    0.8237   34.4235 H         1 IXM451      0.0000 
     26 H          40.0788    2.8199   33.5853 H         1 IXM451      0.0000 
     27 H          39.7514    9.5754   39.2079 H         1 IXM451      0.0000 
     28 H          38.1697   11.3111   37.9215 H         1 IXM451      0.0000 
     29 H          36.8190   11.6613   35.9116 H         1 IXM451      0.0000 
     30 H          36.7035    9.9144   34.2139 H         1 IXM451      0.0000 
     31 H          37.9221    7.8213   34.5044 H         1 IXM451      0.0000 
     32 H          38.1275    4.3933   33.3142 H         1 IXM451      0.0000 
@<TRIPOS>BOND
     1    2    1 1    
     2    3    1 ar   
     3    8    1 ar   
     4    9    2 1    
     5   20    2 2    
     6    4    3 1    
     7    5    3 ar   
     8    9    4 1    
     9   22    4 1    
    10    6    5 ar   
    11   23    5 1    
    12    7    6 ar   
    13   24    6 1    
    14    8    7 ar   
    15   25    7 1    
    16   26    8 1    
    17   10    9 2    
    18   11   10 1    
    19   14   10 1    
    20   12   11 am   
    21   19   11 2    
    22   13   12 1    
    23   27   12 1    
    24   14   13 ar   
    25   15   13 ar   
    26   18   14 ar   
    27   16   15 ar   
    28   28   15 1    
    29   17   16 ar   
    30   29   16 1    
    31   18   17 ar   
    32   30   17 1    
    33   31   18 1    
    34   21   20 1    
    35   32   21 1    
@<TRIPOS>SUBSTRUCTURE
     1 IXM451      1 GROUP   
@<TRIPOS>SET

