#    Name: 4k9y_K9Y_1_INTS_M
#    Modification time : Tue Mar 25 07:38:05 2014

@<TRIPOS>MOLECULE
4k9y_K9Y_1_INTS_M
   93     0     9     0     0
SMALL
NO_CHARGES


@<TRIPOS>ATOM
      1 CA        -30.6810  -31.7395    8.7045 C.3       3 GLC5        0.0000 
      2 CA        -28.9920  -30.8790    9.2530 C.3       9 GLL5        0.0000 
      3 CA        -32.3700  -32.6000    8.1560 C.3       6 GLP5        0.0000 
      4 N         -27.2570  -35.5800    7.0920 N.am      2 SEC2        0.0000 
      5 N         -27.5860  -34.0950    7.2120 N.am      8 SEL2        0.0000 
      6 N         -26.9280  -37.0650    6.9720 N.am      5 SEP2        0.0000 
      7 CA        -27.9335  -27.7690    3.4820 C.3       3 GLC5        0.0000 
      8 CA        -26.5330  -29.0100    4.3790 C.3       9 GLL5        0.0000 
      9 CA        -29.3340  -26.5280    2.5850 C.3       6 GLP5        0.0000 
     10 CA        -28.0575  -30.1565    3.2665 C.3       3 GLC5        0.0000 
     11 CA        -27.2830  -29.9840    5.0410 C.3       9 GLL5        0.0000 
     12 CA        -28.8320  -30.3290    1.4920 C.3       6 GLP5        0.0000 
     13 CA        -20.0125  -28.7735    4.0465 C.3       3 GLC5        0.0000 
     14 CA        -20.2910  -27.8290    2.3370 C.3       9 GLL5        0.0000 
     15 CA        -19.7340  -29.7180    5.7560 C.3       6 GLP5        0.0000 
     16 CA        -22.9135  -23.1475   -0.8765 C.3       3 GLC5        0.0000 
     17 CA        -21.6740  -22.5400    0.3010 C.3       9 GLL5        0.0000 
     18 CA        -24.1530  -23.7550   -2.0540 C.3       6 GLP5        0.0000 
     19 CA        -21.4915  -22.2260    3.5705 C.3       3 GLC5        0.0000 
     20 CA        -22.4250  -23.9920    2.5800 C.3       9 GLL5        0.0000 
     21 CA        -20.5580  -20.4600    4.5610 C.3       6 GLP5        0.0000 
     22 CA        -22.5225  -20.2525    2.2915 C.3       3 GLC5        0.0000 
     23 CA        -23.3740  -20.7630    0.7860 C.3       9 GLL5        0.0000 
     24 CA        -21.6710  -19.7420    3.7970 C.3       6 GLP5        0.0000 
     25 CA        -24.9530  -19.8095    0.7620 C.3       3 GLC5        0.0000 
     26 CA        -26.5320  -18.8560    0.7380 C.3       6 GLP5        0.0000 
     27 O         -23.8835  -26.5010    2.4200 O.2       1 ALC1        0.0000 
     28 O         -22.6320  -27.1280    2.6150 O.2       7 ALL1        0.0000 
     29 O         -25.1350  -25.8740    2.2250 O.2       4 ALP1        0.0000 
     30 N         -21.3640  -28.0900    4.9825 N.am      2 SEC2        0.0000 
     31 N         -22.3350  -28.8050    4.0720 N.am      8 SEL2        0.0000 
     32 N         -20.3930  -27.3750    5.8930 N.am      5 SEP2        0.0000 
     33 O         -24.7920  -27.0390    2.8575 O.2       1 ALC1        0.0000 
     34 O         -24.4490  -28.2040    3.4900 O.2       7 ALL1        0.0000 
     35 CA        -19.8600  -28.5330   -0.2255 C.3       3 GLC5        0.0000 
     36 CA        -17.8420  -28.8120    0.6280 C.3       9 GLL5        0.0000 
     37 CA        -21.8780  -28.2540   -1.0790 C.3       6 GLP5        0.0000 
     38 CA        -16.8865  -28.9860   -0.9825 C.3       3 GLC5        0.0000 
     39 CA        -15.9310  -29.1600   -2.5930 C.3       6 GLP5        0.0000 
     40 CA        -17.5280  -30.6365    0.9525 C.3       3 GLC5        0.0000 
     41 CA        -17.2140  -32.4610    1.2770 C.3       6 GLP5        0.0000 
     42 CA        -17.4860  -25.6055   -0.3500 C.3       3 GLC5        0.0000 
     43 CA        -16.7370  -26.7570    1.3860 C.3       9 GLL5        0.0000 
     44 CA        -18.2350  -24.4540   -2.0860 C.3       6 GLP5        0.0000 
     45 CA        -16.0425  -27.3190   -0.6055 C.3       3 GLC5        0.0000 
     46 CA        -15.3480  -27.8810   -2.5970 C.3       6 GLP5        0.0000 
     47 CA        -15.2385  -25.9565    0.9690 C.3       3 GLC5        0.0000 
     48 CA        -13.7400  -25.1560    0.5520 C.3       6 GLP5        0.0000 
     49 CA        -15.8040  -26.6865    3.3735 C.3       3 GLC5        0.0000 
     50 CA        -14.8710  -26.6160    5.3610 C.3       6 GLP5        0.0000 
     51 CA        -17.2290  -30.5290    2.1455 C.3       3 GLC5        0.0000 
     52 CA        -17.2440  -28.5970    3.0140 C.3       9 GLL5        0.0000 
     53 CA        -16.0575  -27.6065    4.1875 C.3       3 GLC5        0.0000 
     54 CA        -16.3280  -29.5770    4.6975 C.3       3 GLC5        0.0000 
     55 CA        -15.4120  -30.5570    6.3810 C.3       6 GLP5        0.0000 
     56 CA        -18.4890  -29.1575    4.3850 C.3       3 GLC5        0.0000 
     57 O         -28.1985  -35.6440    9.9115 O.2       1 ALC1        0.0000 
     58 O         -28.9930  -34.4050    9.9540 O.2       7 ALL1        0.0000 
     59 O         -27.4040  -36.8830    9.8690 O.2       4 ALP1        0.0000 
     60 CA        -29.1100  -32.7745    5.9928 C.3       3 GLC5        0.0000 
     61 CA        -28.1370  -33.1700    8.0430 C.3       9 GLL5        0.0000 
     62 CA        -30.1960  -33.0190    4.2270 C.3       6 GLP5        0.0000 
     63 CA        -30.4250  -32.8955    8.4075 C.3       3 GLC5        0.0000 
     64 CA        -29.6575  -34.5940    7.7695 C.3       3 GLC5        0.0000 
     65 CA        -28.8230  -33.2120    9.2750 C.3       9 GLL5        0.0000 
     66 CA        -30.8350  -35.9970    6.8800 C.3       6 GLP5        0.0000 
     67 CA        -26.4913  -32.7205    8.4919 C.3       3 GLC5        0.0000 
     68 CA        -24.5590  -32.5700    8.4670 C.3       6 GLP5        0.0000 
     69 CA        -26.5920  -29.3975    2.6117 C.3       3 GLC5        0.0000 
     70 CA        -27.3440  -29.7130    0.9170 C.3       6 GLP5        0.0000 
     71 CA        -24.1958  -32.0183    3.9255 C.3       3 GLC5        0.0000 
     72 CA        -24.5140  -30.3230    4.6740 C.3       9 GLL5        0.0000 
     73 CA        -23.5030  -33.2380    2.8400 C.3       6 GLP5        0.0000 
     74 CA        -28.5798  -31.7885    4.7513 C.3       3 GLC5        0.0000 
     75 CA        -26.6440  -31.1320    5.5100 C.3       9 GLL5        0.0000 
     76 CA        -25.1626  -31.7676    6.8638 C.3       3 GLC5        0.0000 
     77 CA        -21.3325  -27.8065    0.6373 C.3       3 GLC5        0.0000 
     78 CA        -21.2830  -26.8890    2.3700 C.3       9 GLL5        0.0000 
     79 CA        -20.0820  -26.2705    3.7933 C.3       3 GLC5        0.0000 
     80 CA        -19.3770  -25.1820    5.2330 C.3       6 GLP5        0.0000 
     81 CA        -23.0045  -24.6400    0.5700 C.3       3 GLC5        0.0000 
     82 CA        -21.4300  -24.4800    1.7160 C.3       9 GLL5        0.0000 
     83 CA        -24.7580  -25.1610   -0.0070 C.3       6 GLP5        0.0000 
     84 CA        -20.6523  -24.7090    3.6905 C.3       3 GLC5        0.0000 
     85 CA        -20.4155  -23.6435   -1.2692 C.3       3 GLC5        0.0000 
     86 CA        -21.0720  -23.7580    0.5780 C.3       9 GLL5        0.0000 
     87 CA        -19.4580  -24.1380   -2.9780 C.3       6 GLP5        0.0000 
     88 CA        -24.0987  -22.7228    0.0132 C.3       3 GLC5        0.0000 
     89 CA        -22.6870  -22.0680    1.1410 C.3       9 GLL5        0.0000 
     90 CA        -25.1670  -24.0300   -0.9370 C.3       6 GLP5        0.0000 
     91 CA        -23.7557  -24.2782    1.2092 C.3       3 GLC5        0.0000 
     92 CA        -23.0820  -22.7990    2.2710 C.3       9 GLL5        0.0000 
     93 CA        -22.1511  -21.1467    2.6465 C.3       3 GLC5        0.0000 
@<TRIPOS>BOND
@<TRIPOS>SUBSTRUCTURE
     1 ALC1       27 GROUP        1 X    ALC  0     ROOT ALC X 1
     2 SEC2        4 GROUP        1 X    SEC  0     **** SEC X 2
     3 GLC5        1 GROUP        1 X    GLC  0     **** GLC X 6
     4 ALP1       29 GROUP        1 Y    ALP  0     ROOT ALP Y 8
     5 SEP2        6 GROUP        1 Y    SEP  0     **** SEP Y 9
     6 GLP5        3 GROUP        1 Y    GLP  0     **** GLP Y 13
     7 ALL1       28 GROUP        1 Z    ALL  0     ROOT ALL Z 15
     8 SEL2        5 GROUP        1 Z    SEL  0     **** SEL Z 16
     9 GLL5        2 GROUP        1 Z    GLL  0     **** GLL Z 20
@<TRIPOS>SET

