#    Name: 4k9y_K9Y_1_ligand
#    Modification time : Tue Mar 25 07:38:05 2014

@<TRIPOS>MOLECULE
4k9y_K9Y_1_ligand
   63    67     1     0     0
SMALL
NO_CHARGES


@<TRIPOS>ATOM
      1 C1        -28.9920  -30.8790    9.2530 C.ar      1 K9Y701      0.0000 
      2 N2        -28.3570  -30.7960    8.0980 N.ar      1 K9Y701      0.0000 
      3 C3        -27.9110  -31.8900    7.4740 C.ar      1 K9Y701      0.0000 
      4 C4        -28.1370  -33.1700    8.0430 C.ar      1 K9Y701      0.0000 
      5 C5        -28.8230  -33.2120    9.2750 C.ar      1 K9Y701      0.0000 
      6 N6        -29.2010  -32.0540    9.8360 N.ar      1 K9Y701      0.0000 
      7 N7        -27.5860  -34.0950    7.2120 N.2       1 K9Y701      0.0000 
      8 N8        -27.2560  -32.1210    6.2950 N.pl3     1 K9Y701      0.0000 
      9 C9        -27.0430  -33.4820    6.1950 C.2       1 K9Y701      0.0000 
     10 C10       -26.5330  -29.0100    4.3790 C.ar      1 K9Y701      0.0000 
     11 C11       -25.1470  -29.1540    4.2340 C.ar      1 K9Y701      0.0000 
     12 C12       -24.5140  -30.3230    4.6740 C.ar      1 K9Y701      0.0000 
     13 C13       -25.2630  -31.2740    5.3480 C.ar      1 K9Y701      0.0000 
     14 C14       -26.6440  -31.1320    5.5100 C.ar      1 K9Y701      0.0000 
     15 C15       -27.2830  -29.9840    5.0410 C.ar      1 K9Y701      0.0000 
     16 N16       -20.7620  -25.7080    1.9370 N.pl3     1 K9Y701      0.0000 
     17 C17       -21.2830  -26.8890    2.3700 C.2       1 K9Y701      0.0000 
     18 C18       -20.2910  -27.8290    2.3370 C.2       1 K9Y701      0.0000 
     19 C19       -19.1070  -27.1840    1.9880 C.2       1 K9Y701      0.0000 
     20 N20       -19.4050  -25.9340    1.7240 N.2       1 K9Y701      0.0000 
     21 C21       -17.7520  -27.8270    1.7930 C.3       1 K9Y701      0.0000 
     22 C22       -21.4300  -24.4800    1.7160 C.ar      1 K9Y701      0.0000 
     23 C23       -21.0720  -23.7580    0.5780 C.ar      1 K9Y701      0.0000 
     24 C24       -21.6740  -22.5400    0.3010 C.ar      1 K9Y701      0.0000 
     25 C25       -22.6870  -22.0680    1.1410 C.ar      1 K9Y701      0.0000 
     26 C26       -23.0820  -22.7990    2.2710 C.ar      1 K9Y701      0.0000 
     27 C27       -22.4250  -23.9920    2.5800 C.ar      1 K9Y701      0.0000 
     28 C28       -23.3740  -20.7630    0.7860 C.3       1 K9Y701      0.0000 
     29 N29       -22.6320  -27.1280    2.6150 N.am      1 K9Y701      0.0000 
     30 C30       -23.0950  -28.0790    3.4350 C.2       1 K9Y701      0.0000 
     31 O31       -22.3350  -28.8050    4.0720 O.2       1 K9Y701      0.0000 
     32 N32       -24.4490  -28.2040    3.4900 N.am      1 K9Y701      0.0000 
     33 C33       -17.8420  -28.8120    0.6280 C.3       1 K9Y701      0.0000 
     34 C34       -16.7370  -26.7570    1.3860 C.3       1 K9Y701      0.0000 
     35 C35       -17.2440  -28.5970    3.0140 C.3       1 K9Y701      0.0000 
     36 N36       -28.9930  -34.4050    9.9540 N.pl3     1 K9Y701      0.0000 
     37 H         -29.3406  -29.9989    9.7234 H         1 K9Y701      0.0000 
     38 H         -26.5507  -33.8869    5.4522 H         1 K9Y701      0.0000 
     39 H         -27.0008  -28.1777    3.9932 H         1 K9Y701      0.0000 
     40 H         -23.5204  -30.4653    4.4984 H         1 K9Y701      0.0000 
     41 H         -24.7938  -32.1111    5.7427 H         1 K9Y701      0.0000 
     42 H         -28.2863  -29.8572    5.1798 H         1 K9Y701      0.0000 
     43 H         -20.3780  -28.7571    2.5170 H         1 K9Y701      0.0000 
     44 H         -20.3546  -24.1353   -0.0595 H         1 K9Y701      0.0000 
     45 H         -21.3830  -21.9874   -0.5100 H         1 K9Y701      0.0000 
     46 H         -23.8434  -22.4597    2.8607 H         1 K9Y701      0.0000 
     47 H         -22.6635  -24.5097    3.4282 H         1 K9Y701      0.0000 
     48 H         -23.3273  -26.4989    2.1042 H         1 K9Y701      0.0000 
     49 H         -25.0414  -27.5188    2.9162 H         1 K9Y701      0.0000 
     50 H         -28.2860  -35.0975    9.8106 H         1 K9Y701      0.0000 
     51 H         -29.8081  -34.4715   10.5294 H         1 K9Y701      0.0000 
     52 H         -22.7279  -20.0005    0.7516 H         1 K9Y701      0.0000 
     53 H         -23.8204  -20.8094   -0.1076 H         1 K9Y701      0.0000 
     54 H         -24.0783  -20.5205    1.4533 H         1 K9Y701      0.0000 
     55 H         -16.9680  -29.2672    0.4582 H         1 K9Y701      0.0000 
     56 H         -18.5176  -29.5291    0.7993 H         1 K9Y701      0.0000 
     57 H         -18.1061  -28.3578   -0.2228 H         1 K9Y701      0.0000 
     58 H         -15.8247  -27.1432    1.2496 H         1 K9Y701      0.0000 
     59 H         -16.9951  -26.3061    0.5316 H         1 K9Y701      0.0000 
     60 H         -16.6520  -26.0425    2.0804 H         1 K9Y701      0.0000 
     61 H         -16.3483  -29.0090    2.8470 H         1 K9Y701      0.0000 
     62 H         -17.1494  -28.0043    3.8139 H         1 K9Y701      0.0000 
     63 H         -17.8644  -29.3383    3.2701 H         1 K9Y701      0.0000 
@<TRIPOS>BOND
     1    2    1 ar   
     2    6    1 ar   
     3   37    1 1    
     4    3    2 ar   
     5    4    3 ar   
     6    8    3 1    
     7    5    4 ar   
     8    7    4 1    
     9    6    5 ar   
    10   36    5 1    
    11    9    7 2    
    12    9    8 1    
    13   14    8 1    
    14   38    9 1    
    15   11   10 ar   
    16   15   10 ar   
    17   39   10 1    
    18   12   11 ar   
    19   32   11 1    
    20   13   12 ar   
    21   40   12 1    
    22   14   13 ar   
    23   41   13 1    
    24   15   14 ar   
    25   42   15 1    
    26   17   16 1    
    27   20   16 1    
    28   22   16 1    
    29   18   17 2    
    30   29   17 1    
    31   19   18 1    
    32   43   18 1    
    33   20   19 2    
    34   21   19 1    
    35   33   21 1    
    36   34   21 1    
    37   35   21 1    
    38   23   22 ar   
    39   27   22 ar   
    40   24   23 ar   
    41   44   23 1    
    42   25   24 ar   
    43   45   24 1    
    44   26   25 ar   
    45   28   25 1    
    46   27   26 ar   
    47   46   26 1    
    48   47   27 1    
    49   52   28 1    
    50   53   28 1    
    51   54   28 1    
    52   30   29 am   
    53   48   29 1    
    54   31   30 2    
    55   32   30 am   
    56   49   32 1    
    57   55   33 1    
    58   56   33 1    
    59   57   33 1    
    60   58   34 1    
    61   59   34 1    
    62   60   34 1    
    63   61   35 1    
    64   62   35 1    
    65   63   35 1    
    66   50   36 1    
    67   51   36 1    
@<TRIPOS>SUBSTRUCTURE
     1 K9Y701      1 GROUP   
@<TRIPOS>SET

