#    Name: 1xr1_ANP_1_INTS_M
#    Modification time : Tue Mar 25 10:35:44 2014

@<TRIPOS>MOLECULE
1xr1_ANP_1_INTS_M
   51     0    15     0     0
SMALL
NO_CHARGES


@<TRIPOS>ATOM
      1 Zn         75.1250   27.5155    3.2120 Zn        4 ZIC7        0.0000 
      2 Zn         76.0320   27.0560    3.4460 Zn       14 ZIL7        0.0000 
      3 Zn         74.2180   27.9750    2.9780 Zn        9 ZIP7        0.0000 
      4 NZ         77.5425   28.1390   -0.5695 N.4       3 LYC4        0.0000 
      5 NZ         77.5880   27.3070    1.0710 N.4      13 LYL4        0.0000 
      6 NZ         77.4970   28.9710   -2.2100 N.4       8 LYP4        0.0000 
      7 Zn         77.3410   26.3995    0.6350 Zn        4 ZIC7        0.0000 
      8 Zn         77.5880   27.3070    1.0710 Zn       14 ZIL7        0.0000 
      9 Zn         77.0940   25.4920    0.1990 Zn        9 ZIP7        0.0000 
     10 NZ         76.5430   29.7340   -1.2835 N.4       3 LYC4        0.0000 
     11 NZ         75.5890   30.4970   -0.3570 N.4      13 LYL4        0.0000 
     12 N          76.5430   29.7340   -1.2835 N.am      2 SEC2        0.0000 
     13 N          75.5890   30.4970   -0.3570 N.am     12 SEL2        0.0000 
     14 N          77.4970   28.9710   -2.2100 N.am      7 SEP2        0.0000 
     15 Zn         74.8370   28.7185    2.4465 Zn        4 ZIC7        0.0000 
     16 Zn         75.4560   29.4620    1.9150 Zn       14 ZIL7        0.0000 
     17 CA         77.7295   34.1815    4.9505 C.3       5 GLC5        0.0000 
     18 CA         76.2520   33.3180    3.6200 C.3      15 GLL5        0.0000 
     19 CA         79.2070   35.0450    6.2810 C.3      10 GLP5        0.0000 
     20 CA         76.8095   36.9765    3.1660 C.3       5 GLC5        0.0000 
     21 CA         75.4770   35.4050    2.7650 C.3      15 GLL5        0.0000 
     22 CA         78.1420   38.5480    3.5670 C.3      10 GLP5        0.0000 
     23 CA         77.3875   34.7695    2.1790 C.3       5 GLC5        0.0000 
     24 CA         79.2980   34.1340    1.5930 C.3      10 GLP5        0.0000 
     25 CA         73.9070   39.5135   -2.0120 C.3       5 GLC5        0.0000 
     26 CA         73.7190   37.4100   -1.3480 C.3      15 GLL5        0.0000 
     27 CA         74.0950   41.6170   -2.6760 C.3      10 GLP5        0.0000 
     28 O          73.1190   38.1150   -3.7815 O.2       1 ALC1        0.0000 
     29 O          73.5090   37.2460   -2.6650 O.2      11 ALL1        0.0000 
     30 O          72.7290   38.9840   -4.8980 O.2       6 ALP1        0.0000 
     31 CA         75.4500   39.2030    0.9845 C.3       5 GLC5        0.0000 
     32 CA         73.5190   38.8150    0.5440 C.3      15 GLL5        0.0000 
     33 CA         77.3810   39.5910    1.4250 C.3      10 GLP5        0.0000 
     34 CA         73.7120   40.3705   -0.3210 C.3       5 GLC5        0.0000 
     35 CA         73.9050   41.9260   -1.1860 C.3      10 GLP5        0.0000 
     36 CA         72.2130   40.1375    1.7040 C.3       5 GLC5        0.0000 
     37 CA         70.9070   41.4600    2.8640 C.3      10 GLP5        0.0000 
     38 CA         71.9830   37.8165    0.3705 C.3       5 GLC5        0.0000 
     39 CA         70.4470   36.8180    0.1970 C.3      10 GLP5        0.0000 
     40 CA         75.9270   38.1500    1.0930 C.3       5 GLC5        0.0000 
     41 CA         74.4730   36.7090    0.7610 C.3      15 GLL5        0.0000 
     42 CA         76.6560   36.4525    0.5230 C.3       5 GLC5        0.0000 
     43 CA         78.8390   36.1960    0.2850 C.3      10 GLP5        0.0000 
     44 CA         77.9018   33.4050    2.4405 C.3       5 GLC5        0.0000 
     45 CA         73.3183   33.2430    2.1342 C.3       5 GLC5        0.0000 
     46 CA         74.7390   33.3190    3.7820 C.3      15 GLL5        0.0000 
     47 CA         72.0780   32.4330    0.5640 C.3      10 GLP5        0.0000 
     48 CA         75.4322   37.7040   -1.8017 C.3       5 GLC5        0.0000 
     49 CA         74.3020   36.4160   -0.6070 C.3      15 GLL5        0.0000 
     50 CA         76.8540   38.4950   -2.6260 C.3      10 GLP5        0.0000 
     51 CA         72.3444   36.8145    0.0444 C.3       5 GLC5        0.0000 
@<TRIPOS>BOND
@<TRIPOS>SUBSTRUCTURE
     1 ALC1       28 GROUP        1 X    ALC  0     ROOT ALC X 1
     2 SEC2       12 GROUP        1 X    SEC  0     **** SEC X 2
     3 LYC4        4 GROUP        1 X    LYC  0     **** LYC X 4
     4 ZIC7        1 GROUP        1 X    ZIC  0     **** ZIC X 5
     5 GLC5       17 GROUP        1 X    GLC  0     **** GLC X 6
     6 ALP1       30 GROUP        1 Y    ALP  0     ROOT ALP Y 8
     7 SEP2       14 GROUP        1 Y    SEP  0     **** SEP Y 9
     8 LYP4        6 GROUP        1 Y    LYP  0     **** LYP Y 11
     9 ZIP7        3 GROUP        1 Y    ZIP  0     **** ZIP Y 12
    10 GLP5       19 GROUP        1 Y    GLP  0     **** GLP Y 13
    11 ALL1       29 GROUP        1 Z    ALL  0     ROOT ALL Z 15
    12 SEL2       13 GROUP        1 Z    SEL  0     **** SEL Z 16
    13 LYL4        5 GROUP        1 Z    LYL  0     **** LYL Z 18
    14 ZIL7        2 GROUP        1 Z    ZIL  0     **** ZIL Z 19
    15 GLL5       18 GROUP        1 Z    GLL  0     **** GLL Z 20
@<TRIPOS>SET

