#    Name: 1xr1_ANP_1_ligand
#    Modification time : Tue Mar 25 10:35:44 2014

@<TRIPOS>MOLECULE
1xr1_ANP_1_ligand
   43    45     1     0     0
SMALL
NO_CHARGES


@<TRIPOS>ATOM
      1 PG         77.2350   27.6320    4.2710 P.3       1 ANP501      0.0000 
      2 O1G        76.0320   27.0560    3.4460 O.co2     1 ANP501      0.0000 
      3 O2G        78.0250   26.4040    4.8050 O.co2     1 ANP501      0.0000 
      4 O3G        76.6900   28.4210    5.5040 O.co2     1 ANP501      0.0000 
      5 PB         78.3040   28.5550    1.6830 P.3       1 ANP501      0.0000 
      6 O1B        79.7910   28.5560    1.2250 O.co2     1 ANP501      0.0000 
      7 O2B        77.5880   27.3070    1.0710 O.co2     1 ANP501      0.0000 
      8 N3B        78.2450   28.5740    3.3420 N.4       1 ANP501      0.0000 
      9 PA         76.2650   30.4140    1.0280 P.3       1 ANP501      0.0000 
     10 O1A        75.5890   30.4970   -0.3570 O.co2     1 ANP501      0.0000 
     11 O2A        75.4560   29.4620    1.9150 O.co2     1 ANP501      0.0000 
     12 O3A        77.6870   29.8320    0.9980 O.3       1 ANP501      0.0000 
     13 O5'        76.0900   31.7850    1.6790 O.3       1 ANP501      0.0000 
     14 C5'        76.7590   32.0340    2.9560 C.3       1 ANP501      0.0000 
     15 C4'        76.2520   33.3180    3.6200 C.3       1 ANP501      0.0000 
     16 O4'        76.5890   34.4950    2.8570 O.3       1 ANP501      0.0000 
     17 C3'        74.7390   33.3190    3.7820 C.3       1 ANP501      0.0000 
     18 O3'        74.2380   32.7260    4.9900 O.3       1 ANP501      0.0000 
     19 C2'        74.3780   34.7870    3.6270 C.3       1 ANP501      0.0000 
     20 O2'        74.3840   35.4160    4.9340 O.3       1 ANP501      0.0000 
     21 C1'        75.4770   35.4050    2.7650 C.3       1 ANP501      0.0000 
     22 N9         75.0780   35.5940    1.3320 N.pl3     1 ANP501      0.0000 
     23 C8         75.2600   34.6720    0.3310 C.2       1 ANP501      0.0000 
     24 N7         74.7950   35.1610   -0.8430 N.2       1 ANP501      0.0000 
     25 C5         74.3020   36.4160   -0.6070 C.ar      1 ANP501      0.0000 
     26 C6         73.7190   37.4100   -1.3480 C.ar      1 ANP501      0.0000 
     27 N6         73.5090   37.2460   -2.6650 N.pl3     1 ANP501      0.0000 
     28 N1         73.3390   38.5790   -0.7730 N.ar      1 ANP501      0.0000 
     29 C2         73.5190   38.8150    0.5440 C.ar      1 ANP501      0.0000 
     30 N3         74.0930   37.8850    1.3640 N.ar      1 ANP501      0.0000 
     31 C4         74.4730   36.7090    0.7610 C.ar      1 ANP501      0.0000 
     32 H          77.8452   32.1299    2.8151 H         1 ANP501      0.0000 
     33 H          76.5906   31.2009    3.6535 H         1 ANP501      0.0000 
     34 H          76.6859   33.3864    4.6159 H         1 ANP501      0.0000 
     35 H          74.3361   32.8185    2.8844 H         1 ANP501      0.0000 
     36 H          73.4565   34.8739    3.1344 H         1 ANP501      0.0000 
     37 H          75.7463   36.3538    3.2027 H         1 ANP501      0.0000 
     38 H          75.6648   33.7983    0.4575 H         1 ANP501      0.0000 
     39 H          73.7787   36.3620   -3.0469 H         1 ANP501      0.0000 
     40 H          73.1017   38.0226   -3.1457 H         1 ANP501      0.0000 
     41 H          73.2135   39.7314    0.9541 H         1 ANP501      0.0000 
     42 H          75.0200   32.2441    5.3853 H         1 ANP501      0.0000 
     43 H          74.1984   34.6745    5.5788 H         1 ANP501      0.0000 
@<TRIPOS>BOND
     1    2    1 ar   
     2    3    1 ar   
     3    4    1 ar   
     4    8    1 1    
     5    6    5 ar   
     6    7    5 ar   
     7    8    5 1    
     8   12    5 1    
     9   10    9 ar   
    10   11    9 ar   
    11   12    9 1    
    12   13    9 1    
    13   14   13 1    
    14   15   14 1    
    15   32   14 1    
    16   33   14 1    
    17   16   15 1    
    18   17   15 1    
    19   34   15 1    
    20   21   16 1    
    21   18   17 1    
    22   19   17 1    
    23   35   17 1    
    24   42   18 1    
    25   20   19 1    
    26   21   19 1    
    27   36   19 1    
    28   43   20 1    
    29   22   21 1    
    30   37   21 1    
    31   23   22 1    
    32   31   22 1    
    33   24   23 2    
    34   38   23 1    
    35   25   24 1    
    36   26   25 ar   
    37   31   25 ar   
    38   27   26 1    
    39   28   26 ar   
    40   39   27 1    
    41   40   27 1    
    42   29   28 ar   
    43   30   29 ar   
    44   41   29 1    
    45   31   30 ar   
@<TRIPOS>SUBSTRUCTURE
     1 ANP501      1 GROUP   
@<TRIPOS>SET

