#    Name: 3NX7_1_CAVITY_N1_6.mol2
#    Modification time : Tue Mar 11 18:41:48 2014

@<TRIPOS>MOLECULE
3NX7_1_CAVITY_N1_6.mol2
   87     0     6     0     0
SMALL
NO_CHARGES


@<TRIPOS>ATOM
      1 N          -3.1728   -8.5058   -1.9105 N.2       1 ALA2        0.0000 
      2 O          -3.3677  -11.4323   -3.5377 O.2       1 ALA2        0.0000 
      3 CA          0.2262   -4.8732   -1.9370 C.3       5 GLY6        0.0000 
      4 N          -3.1093   -4.8465   -1.5855 N.2       1 ALA2        0.0000 
      5 DU         -1.8141   -5.4425   -2.0515 H         6 CUB7        0.0000 
      6 CA         -0.5188   -6.0384   -2.5176 C.3       5 GLY6        0.0000 
      7 N          -2.5591   -6.6077   -2.6321 N.2       1 ALA2        0.0000 
      8 N          -1.2639   -7.2037   -3.0982 N.2       1 ALA2        0.0000 
      9 N          -3.3042   -7.7730   -3.2127 N.2       1 ALA2        0.0000 
     10 N          -2.0089   -8.3689   -3.6787 N.2       1 ALA2        0.0000 
     11 O          -2.7540   -9.5342   -4.2593 O.2       1 ALA2        0.0000 
     12 CA         -1.4588  -10.1301   -4.7254 C.3       5 GLY6        0.0000 
     13 CA         -2.2038  -11.2954   -5.3059 C.3       5 GLY6        0.0000 
     14 DU         -1.2004   -3.5444   -2.7732 H         6 CUB7        0.0000 
     15 CA          0.0948   -4.1404   -3.2392 C.3       5 GLY6        0.0000 
     16 CA         -3.2407   -4.1137   -2.8877 C.3       5 GLY6        0.0000 
     17 DU         -1.9454   -4.7097   -3.3537 H         6 CUB7        0.0000 
     18 CA         -0.6502   -5.3056   -3.8198 C.3       5 GLY6        0.0000 
     19 CA          0.6450   -5.9016   -4.2859 C.3       5 GLY6        0.0000 
     20 N          -3.9857   -5.2790   -3.4682 N.2       1 ALA2        0.0000 
     21 N          -2.6905   -5.8749   -3.9343 N.2       1 ALA2        0.0000 
     22 DU         -1.3953   -6.4709   -4.4004 H         6 CUB7        0.0000 
     23 O          -0.1000   -7.0668   -4.8664 O.2       1 ALA2        0.0000 
     24 N          -3.4356   -7.0402   -4.5149 N.2       1 ALA2        0.0000 
     25 CA         -2.1403   -7.6361   -4.9809 C.3       5 GLY6        0.0000 
     26 CA         -2.8854   -8.8014   -5.5615 C.3       5 GLY6        0.0000 
     27 CA          0.1583   -0.4811   -2.9142 C.3       5 GLY6        0.0000 
     28 OD1        -1.8820   -1.0504   -3.0287 O.3       2 ASP3        0.0000 
     29 N          -0.5867   -1.6463   -3.4948 N.2       1 ALA2        0.0000 
     30 N           0.7085   -2.2423   -3.9608 N.2       1 ALA2        0.0000 
     31 N          -1.3318   -2.8116   -4.0754 N.2       1 ALA2        0.0000 
     32 OD1        -2.0768   -3.9768   -4.6559 O.3       2 ASP3        0.0000 
     33 N          -0.7816   -4.5728   -5.1220 N.2       1 ALA2        0.0000 
     34 N          -4.1171   -4.5461   -4.7704 N.2       1 ALA2        0.0000 
     35 DU         -2.8219   -5.1421   -5.2365 H         6 CUB7        0.0000 
     36 O          -1.5267   -5.7381   -5.7026 O.2       1 ALA2        0.0000 
     37 CA         -4.8622   -5.7114   -5.3510 C.3       5 GLY6        0.0000 
     38 DU         -3.5670   -6.3074   -5.8171 H         6 CUB7        0.0000 
     39 CA         -2.2717   -6.9033   -6.2831 C.3       5 GLY6        0.0000 
     40 O          -5.6073   -6.8767   -5.9316 O.2       1 ALA2        0.0000 
     41 O          -4.3120   -7.4726   -6.3976 O.2       1 ALA2        0.0000 
     42 CA         -3.0168   -8.0686   -6.8637 C.3       5 GLY6        0.0000 
     43 N         -10.4329   -9.1805   -6.7412 N.2       1 ALA2        0.0000 
     44 N          -9.8827  -10.9417   -7.7878 N.2       1 ALA2        0.0000 
     45 N          -2.5635    1.4436   -3.2843 N.2       1 ALA2        0.0000 
     46 CA         -1.2683    0.8477   -3.7503 C.3       5 GLY6        0.0000 
     47 OD1        -2.0133   -0.3176   -4.3309 O.3       2 ASP3        0.0000 
     48 N          -0.7181   -0.9135   -4.7970 N.2       1 ALA2        0.0000 
     49 N          -1.4632   -2.0788   -5.3776 N.2       1 ALA2        0.0000 
     50 NZ         -2.2082   -3.2440   -5.9581 N.2       3 LYS4        0.0000 
     51 NZ         -2.9533   -4.4093   -6.5387 N.2       3 LYS4        0.0000 
     52 NZ         -1.6581   -5.0052   -7.0048 N.2       3 LYS4        0.0000 
     53 N          -4.9936   -4.9786   -6.6532 N.2       1 ALA2        0.0000 
     54 CA         -3.6984   -5.5745   -7.1193 C.3       5 GLY6        0.0000 
     55 CA         -2.4031   -6.1705   -7.5853 C.3       5 GLY6        0.0000 
     56 O          -5.7386   -6.1438   -7.2338 O.2       1 ALA2        0.0000 
     57 CA         -4.4434   -6.7398   -7.6998 C.3       5 GLY6        0.0000 
     58 CA         -3.1482   -7.3358   -8.1659 C.3       5 GLY6        0.0000 
     59 N          -7.7789   -6.7131   -7.3483 N.2       1 ALA2        0.0000 
     60 N          -6.4837   -7.3091   -7.8144 N.2       1 ALA2        0.0000 
     61 CZ         -5.1885   -7.9051   -8.2804 C.ar      4 PHE5        0.0000 
     62 N          -8.5240   -7.8784   -7.9289 N.2       1 ALA2        0.0000 
     63 CA         -7.2288   -8.4744   -8.3949 C.3       5 GLY6        0.0000 
     64 N         -10.5643   -8.4477   -8.0434 N.2       1 ALA2        0.0000 
     65 N          -9.2691   -9.0437   -8.5094 N.2       1 ALA2        0.0000 
     66 O          -7.9738   -9.6396   -8.9755 O.2       1 ALA2        0.0000 
     67 N         -11.3093   -9.6130   -8.6239 N.2       1 ALA2        0.0000 
     68 N         -10.0141  -10.2089   -9.0900 N.2       1 ALA2        0.0000 
     69 O          -1.3997    1.5805   -5.0525 O.2       1 ALA2        0.0000 
     70 CA         -3.8297   -4.8417   -8.4215 C.3       5 GLY6        0.0000 
     71 CA         -5.8700   -5.4110   -8.5360 C.3       5 GLY6        0.0000 
     72 CA         -4.5748   -6.0070   -9.0020 C.3       5 GLY6        0.0000 
     73 CA         -6.6151   -6.5763   -9.1166 C.3       5 GLY6        0.0000 
     74 CZ         -5.3199   -7.1722   -9.5826 C.ar      4 PHE5        0.0000 
     75 N          -8.6554   -7.1456   -9.2311 N.2       1 ALA2        0.0000 
     76 N          -7.3602   -7.7415   -9.6971 N.2       1 ALA2        0.0000 
     77 CZ         -6.0649   -8.3375  -10.1632 C.ar      4 PHE5        0.0000 
     78 CA        -10.6957   -7.7149   -9.3456 C.3       5 GLY6        0.0000 
     79 CA         -9.4004   -8.3108   -9.8116 C.3       5 GLY6        0.0000 
     80 N          -8.1052   -8.9068  -10.2777 N.2       1 ALA2        0.0000 
     81 DU        -11.4407   -8.8801   -9.9261 H         6 CUB7        0.0000 
     82 N         -10.1455   -9.4761  -10.3922 N.2       1 ALA2        0.0000 
     83 N          -8.8503  -10.0721  -10.8583 N.2       1 ALA2        0.0000 
     84 CA         -9.5318   -7.5780  -11.1138 C.3       5 GLY6        0.0000 
     85 CA         -8.2366   -8.1740  -11.5799 C.3       5 GLY6        0.0000 
     86 CZ        -11.5721   -8.1473  -11.2283 C.ar      4 PHE5        0.0000 
     87 CA        -10.2769   -8.7433  -11.6944 C.3       5 GLY6        0.0000 
@<TRIPOS>BOND
@<TRIPOS>SUBSTRUCTURE
     1 ALA2        1 GROUP   
     2 ASP3       28 GROUP   
     3 LYS4       50 GROUP   
     4 PHE5       61 GROUP   
     5 GLY6        3 GROUP   
     6 CUB7        5 GROUP   
@<TRIPOS>SET

