#    Name: 3nx7_NHK_1_INTS_M
#    Modification time : Tue Mar 25 02:53:31 2014

@<TRIPOS>MOLECULE
3nx7_NHK_1_INTS_M
   51     0    12     0     0
SMALL
NO_CHARGES


@<TRIPOS>ATOM
      1 N           0.9650   -6.2785   -5.7865 N.am      2 SEC2        0.0000 
      2 N          -0.2430   -5.7120   -5.3860 N.am     10 SEL2        0.0000 
      3 N           2.1730   -6.8450   -6.1870 N.am      6 SEP2        0.0000 
      4 N           0.8080   -5.1650   -6.6105 N.am      2 SEC2        0.0000 
      5 N           1.8590   -4.6180   -7.8350 N.am      6 SEP2        0.0000 
      6 Zn         -3.1455   -3.3045   -4.2410 Zn        3 ZIC7        0.0000 
      7 Zn         -1.8370   -5.2410   -3.5980 Zn       11 ZIL7        0.0000 
      8 Zn         -4.4540   -1.3680   -4.8840 Zn        7 ZIP7        0.0000 
      9 Zn         -3.9155   -2.1015   -4.3435 Zn        3 ZIC7        0.0000 
     10 Zn         -3.3770   -2.8350   -3.8030 Zn       11 ZIL7        0.0000 
     11 O          -0.4375   -2.3805   -5.8190 O.2       1 ALC1        0.0000 
     12 O          -1.6850   -2.1590   -5.1280 O.2       9 ALL1        0.0000 
     13 O           0.8100   -2.6020   -6.5100 O.2       5 ALP1        0.0000 
     14 Zn         -3.4730   -1.3145   -5.3505 Zn        3 ZIC7        0.0000 
     15 Zn         -2.4920   -1.2610   -5.8170 Zn       11 ZIL7        0.0000 
     16 O          -2.3445   -1.6415   -7.0970 O.2       1 ALC1        0.0000 
     17 O          -2.4920   -1.2610   -5.8170 O.2       9 ALL1        0.0000 
     18 O          -2.1970   -2.0220   -8.3770 O.2       5 ALP1        0.0000 
     19 O          -2.0010   -0.6155   -7.2620 O.2       1 ALC1        0.0000 
     20 O          -1.5100    0.0300   -8.7070 O.2       5 ALP1        0.0000 
     21 CA         -0.7850   -6.4070   -7.5695 C.3       4 GLC5        0.0000 
     22 CA         -2.4930   -5.1620   -6.9740 C.3      12 GLL5        0.0000 
     23 CA          0.9230   -7.6520   -8.1650 C.3       8 GLP5        0.0000 
     24 CA         -5.1545   -8.6525   -6.7350 C.3       4 GLC5        0.0000 
     25 CA         -4.7570   -6.7880   -6.8420 C.3      12 GLL5        0.0000 
     26 CA         -5.5520  -10.5170   -6.6280 C.3       8 GLP5        0.0000 
     27 CA         -5.0965   -7.9535   -4.5455 C.3       4 GLC5        0.0000 
     28 CA         -3.7760   -6.8890   -5.8520 C.3      12 GLL5        0.0000 
     29 CA         -6.4170   -9.0180   -3.2390 C.3       8 GLP5        0.0000 
     30 CA         -3.9595   -8.7335   -6.5495 C.3       4 GLC5        0.0000 
     31 CA         -4.1430  -10.5780   -7.2470 C.3       8 GLP5        0.0000 
     32 CA         -5.2935   -6.2395  -10.8035 C.3       4 GLC5        0.0000 
     33 CA         -6.5950   -6.6760   -9.1820 C.3      12 GLL5        0.0000 
     34 CA         -3.9920   -5.8030  -12.4250 C.3       8 GLP5        0.0000 
     35 CA         -6.6635   -4.9165   -9.4030 C.3       4 GLC5        0.0000 
     36 CA         -6.7320   -3.1570   -9.6240 C.3       8 GLP5        0.0000 
     37 CA         -5.4315   -8.4985   -9.4705 C.3       4 GLC5        0.0000 
     38 CA         -4.2680  -10.3210   -9.7590 C.3       8 GLP5        0.0000 
     39 CA         -4.5985   -4.9270   -1.7087 C.3       4 GLC5        0.0000 
     40 CA         -2.8340   -5.7010   -2.6370 C.3      12 GLL5        0.0000 
     41 CA         -6.5450   -4.3830   -1.4860 C.3       8 GLP5        0.0000 
     42 CA         -2.0940   -7.8798   -6.8480 C.3       4 GLC5        0.0000 
     43 CA         -0.9780   -9.2870   -7.8150 C.3       8 GLP5        0.0000 
     44 CA         -4.2325   -3.6835   -7.4945 C.3       4 GLC5        0.0000 
     45 CA         -3.4650   -5.0800   -7.9640 C.3      12 GLL5        0.0000 
     46 CA         -5.4860   -2.2460   -7.5200 C.3       8 GLP5        0.0000 
     47 CA         -2.7755   -5.5732   -9.4315 C.3       4 GLC5        0.0000 
     48 CA         -4.6030   -5.8860   -7.9030 C.3      12 GLL5        0.0000 
     49 CA         -1.7600   -5.6430  -11.1770 C.3       8 GLP5        0.0000 
     50 CA         -5.5875   -4.6105   -7.7668 C.3       4 GLC5        0.0000 
     51 CA         -6.4950   -2.8840   -8.1610 C.3       8 GLP5        0.0000 
@<TRIPOS>BOND
@<TRIPOS>SUBSTRUCTURE
     1 ALC1       11 GROUP        1 X    ALC  0     ROOT ALC X 1
     2 SEC2        1 GROUP        1 X    SEC  0     **** SEC X 2
     3 ZIC7        6 GROUP        1 X    ZIC  0     **** ZIC X 5
     4 GLC5       21 GROUP        1 X    GLC  0     **** GLC X 6
     5 ALP1       13 GROUP        1 Y    ALP  0     ROOT ALP Y 8
     6 SEP2        3 GROUP        1 Y    SEP  0     **** SEP Y 9
     7 ZIP7        8 GROUP        1 Y    ZIP  0     **** ZIP Y 12
     8 GLP5       23 GROUP        1 Y    GLP  0     **** GLP Y 13
     9 ALL1       12 GROUP        1 Z    ALL  0     ROOT ALL Z 15
    10 SEL2        2 GROUP        1 Z    SEL  0     **** SEL Z 16
    11 ZIL7        7 GROUP        1 Z    ZIL  0     **** ZIL Z 19
    12 GLL5       22 GROUP        1 Z    GLL  0     **** GLL Z 20
@<TRIPOS>SET

