#    Name: 3nx7_NHK_1_ligand
#    Modification time : Tue Mar 25 02:53:31 2014

@<TRIPOS>MOLECULE
3nx7_NHK_1_ligand
   36    36     1     0     0
SMALL
NO_CHARGES


@<TRIPOS>ATOM
      1 O4         -0.2430   -5.7120   -5.3860 O.2       1 NHK0        0.0000 
      2 S1         -1.4900   -6.1600   -4.8000 S.o2      1 NHK0        0.0000 
      3 O3         -1.4100   -7.5380   -4.3830 O.2       1 NHK0        0.0000 
      4 N2         -1.8370   -5.2410   -3.5980 N.pl3     1 NHK0        0.0000 
      5 C10        -1.2680   -3.8930   -3.4700 C.3       1 NHK0        0.0000 
      6 C9         -2.2030   -2.9050   -4.1410 C.2       1 NHK0        0.0000 
      7 O1         -3.3770   -2.8350   -3.8030 O.2       1 NHK0        0.0000 
      8 N1         -1.6850   -2.1590   -5.1280 N.am      1 NHK0        0.0000 
      9 O2         -2.4920   -1.2610   -5.8170 O.3       1 NHK0        0.0000 
     10 C8         -2.8340   -5.7010   -2.6370 C.3       1 NHK0        0.0000 
     11 C6         -2.4700   -5.2410   -1.2260 C.3       1 NHK0        0.0000 
     12 O6         -1.2690   -5.8930   -0.7980 O.3       1 NHK0        0.0000 
     13 C3         -2.6440   -6.0560   -5.9100 C.ar      1 NHK0        0.0000 
     14 C5         -2.4930   -5.1620   -6.9740 C.ar      1 NHK0        0.0000 
     15 C7         -3.4650   -5.0800   -7.9640 C.ar      1 NHK0        0.0000 
     16 C4         -4.6030   -5.8860   -7.9030 C.ar      1 NHK0        0.0000 
     17 C2         -4.7570   -6.7880   -6.8420 C.ar      1 NHK0        0.0000 
     18 C1         -3.7760   -6.8890   -5.8520 C.ar      1 NHK0        0.0000 
     19 O5         -5.5270   -5.7660   -8.9160 O.3       1 NHK0        0.0000 
     20 C11        -6.5950   -6.6760   -9.1820 C.3       1 NHK0        0.0000 
     21 H          -0.2950   -3.8383   -3.9533 H         1 NHK0        0.0000 
     22 H          -1.1607   -3.6182   -2.4229 H         1 NHK0        0.0000 
     23 H          -0.6858   -2.2359   -5.3935 H         1 NHK0        0.0000 
     24 H          -2.8995   -6.7944   -2.6337 H         1 NHK0        0.0000 
     25 H          -3.8253   -5.3039   -2.8808 H         1 NHK0        0.0000 
     26 H          -3.3146   -5.4760   -0.5685 H         1 NHK0        0.0000 
     27 H          -2.3533   -4.1516   -1.2483 H         1 NHK0        0.0000 
     28 H          -1.6571   -4.5634   -7.0212 H         1 NHK0        0.0000 
     29 H          -3.3475   -4.4222   -8.7476 H         1 NHK0        0.0000 
     30 H          -5.5973   -7.3784   -6.7930 H         1 NHK0        0.0000 
     31 H          -3.8763   -7.5615   -5.0901 H         1 NHK0        0.0000 
     32 H          -6.2578   -7.5955   -9.3839 H         1 NHK0        0.0000 
     33 H          -7.2171   -6.7564   -8.4032 H         1 NHK0        0.0000 
     34 H          -7.1433   -6.3861   -9.9664 H         1 NHK0        0.0000 
     35 H          -2.3787   -1.4989   -6.7817 H         1 NHK0        0.0000 
     36 H          -0.6597   -5.1526   -0.5142 H         1 NHK0        0.0000 
@<TRIPOS>BOND
     1    2    1 2    
     2    3    2 2    
     3    4    2 1    
     4   13    2 1    
     5    5    4 1    
     6   10    4 1    
     7    6    5 1    
     8   21    5 1    
     9   22    5 1    
    10    7    6 2    
    11    8    6 am   
    12    9    8 1    
    13   23    8 1    
    14   35    9 1    
    15   11   10 1    
    16   24   10 1    
    17   25   10 1    
    18   12   11 1    
    19   26   11 1    
    20   27   11 1    
    21   36   12 1    
    22   14   13 ar   
    23   18   13 ar   
    24   15   14 ar   
    25   28   14 1    
    26   16   15 ar   
    27   29   15 1    
    28   17   16 ar   
    29   19   16 1    
    30   18   17 ar   
    31   30   17 1    
    32   31   18 1    
    33   20   19 1    
    34   32   20 1    
    35   33   20 1    
    36   34   20 1    
@<TRIPOS>SUBSTRUCTURE
     1 NHK0        1 GROUP   
@<TRIPOS>SET

