#    Name: 2bfo_NDP_2_INTS_M
#    Modification time : Mon Mar 24 20:52:37 2014

@<TRIPOS>MOLECULE
2bfo_NDP_2_INTS_M
  105     0    12     0     0
SMALL
NO_CHARGES


@<TRIPOS>ATOM
      1 N          30.0340   28.6045   80.3550 N.am      2 SEC2        0.0000 
      2 N          28.9180   27.5770   80.2920 N.am     10 SEL2        0.0000 
      3 N          31.1500   29.6320   80.4180 N.am      6 SEP2        0.0000 
      4 CA         24.6320   24.7275   82.8835 C.3       4 GLC5        0.0000 
      5 CA         25.6270   25.1040   81.2810 C.3      12 GLL5        0.0000 
      6 CA         23.6370   24.3510   84.4860 C.3       8 GLP5        0.0000 
      7 N          23.5045   25.2390   79.6745 N.am      2 SEC2        0.0000 
      8 N          24.5610   24.6480   80.4890 N.am     10 SEL2        0.0000 
      9 N          22.4480   25.8300   78.8600 N.am      6 SEP2        0.0000 
     10 CA         24.1015   23.7825   82.5395 C.3       4 GLC5        0.0000 
     11 CA         24.5660   23.2140   80.5930 C.3      12 GLL5        0.0000 
     12 CA         22.7910   23.7560   81.0210 C.3       4 GLC5        0.0000 
     13 CA         21.0160   24.2980   81.4490 C.3       8 GLP5        0.0000 
     14 CA         22.9780   18.5545   79.2445 C.3       4 GLC5        0.0000 
     15 CA         21.8840   20.0630   78.0070 C.3      12 GLL5        0.0000 
     16 CA         24.0720   17.0460   80.4820 C.3       8 GLP5        0.0000 
     17 CA         19.8525   20.0675   78.9035 C.3       4 GLC5        0.0000 
     18 CA         17.8210   20.0720   79.8000 C.3       8 GLP5        0.0000 
     19 N          20.0415   18.6825   79.3060 N.am      2 SEC2        0.0000 
     20 N          21.2540   19.5150   79.0970 N.am     10 SEL2        0.0000 
     21 N          18.8290   17.8500   79.5150 N.am      6 SEP2        0.0000 
     22 CA         22.9100   19.0405   80.9435 C.3       4 GLC5        0.0000 
     23 CA         21.5240   19.9730   80.3630 C.3      12 GLL5        0.0000 
     24 CA         24.2960   18.1080   81.5240 C.3       8 GLP5        0.0000 
     25 CA         20.7895   17.9320   80.2860 C.3       4 GLC5        0.0000 
     26 CA         20.0550   15.8910   80.2090 C.3       8 GLP5        0.0000 
     27 CA         19.7400   20.0495   80.8420 C.3       4 GLC5        0.0000 
     28 CA         17.9560   20.1260   81.3210 C.3       8 GLP5        0.0000 
     29 CA         21.2700   22.1355   80.9060 C.3       4 GLC5        0.0000 
     30 CA         23.6805   19.8170   80.5105 C.3       4 GLC5        0.0000 
     31 CA         23.0650   21.5260   79.4970 C.3      12 GLL5        0.0000 
     32 CA         22.0405   22.9120   80.4730 C.3       4 GLC5        0.0000 
     33 NZ         29.7745   30.2970   79.8575 N.4       3 LYC4        0.0000 
     34 NZ         28.3990   30.9620   79.2970 N.4      11 LYL4        0.0000 
     35 NZ         31.8030   30.6360   79.8630 N.4       7 LYP4        0.0000 
     36 N          29.7745   30.2970   79.8575 N.am      2 SEC2        0.0000 
     37 N          28.3990   30.9620   79.2970 N.am     10 SEL2        0.0000 
     38 N          29.7825   31.2330   79.1965 N.am      2 SEC2        0.0000 
     39 N          31.1660   31.5040   79.0960 N.am      6 SEP2        0.0000 
     40 N          28.2445   30.8480   83.1310 N.am      2 SEC2        0.0000 
     41 N          27.8640   30.4360   81.6980 N.am     10 SEL2        0.0000 
     42 N          28.6250   31.2600   84.5640 N.am      6 SEP2        0.0000 
     43 CA         25.7925   31.8150   82.3550 C.3       4 GLC5        0.0000 
     44 CA         24.9160   31.0310   80.9230 C.3      12 GLL5        0.0000 
     45 CA         26.6690   32.5990   83.7870 C.3       8 GLP5        0.0000 
     46 CA         25.0800   32.8890   81.0310 C.3       4 GLC5        0.0000 
     47 CA         23.6780   31.5010   80.1800 C.3      12 GLL5        0.0000 
     48 CA         26.4820   34.2770   81.8820 C.3       8 GLP5        0.0000 
     49 N          20.9495   30.6505   77.7070 N.am      2 SEC2        0.0000 
     50 N          21.9360   30.3220   78.9620 N.am     10 SEL2        0.0000 
     51 N          19.9630   30.9790   76.4520 N.am      6 SEP2        0.0000 
     52 O          21.9205   29.3560   79.9315 O.2       1 ALC1        0.0000 
     53 O          21.9360   30.3220   78.9620 O.2       9 ALL1        0.0000 
     54 O          21.9050   28.3900   80.9010 O.2       5 ALP1        0.0000 
     55 N          21.5040   31.0010   76.5645 N.am      2 SEC2        0.0000 
     56 N          23.0450   31.0230   76.6770 N.am     10 SEL2        0.0000 
     57 O          22.8810   29.5560   76.3290 O.2       1 ALC1        0.0000 
     58 O          23.0450   31.0230   76.6770 O.2       9 ALL1        0.0000 
     59 O          22.7170   28.0890   75.9810 O.2       5 ALP1        0.0000 
     60 CA         21.9160   32.7255   79.6105 C.3       4 GLC5        0.0000 
     61 CA         23.6440   32.7930   78.2270 C.3      12 GLL5        0.0000 
     62 CA         20.1880   32.6580   80.9940 C.3       8 GLP5        0.0000 
     63 CA         23.2140   34.8835   78.6620 C.3       4 GLC5        0.0000 
     64 CA         22.7840   36.9740   79.0970 C.3       8 GLP5        0.0000 
     65 CA         26.1930   33.9820   79.8710 C.3       4 GLC5        0.0000 
     66 CA         25.9040   33.6870   77.8600 C.3      12 GLL5        0.0000 
     67 CA         24.9715   35.2550   78.8580 C.3       4 GLC5        0.0000 
     68 CA         24.0390   36.8230   79.8560 C.3       8 GLP5        0.0000 
     69 N          29.6375   36.4510   77.4745 N.am      2 SEC2        0.0000 
     70 N          29.0690   35.4200   76.8690 N.am     10 SEL2        0.0000 
     71 N          30.2060   37.4820   78.0800 N.am      6 SEP2        0.0000 
     72 O          29.9970   34.3730   78.7445 O.2       1 ALC1        0.0000 
     73 O          28.6710   33.7660   78.5000 O.2       9 ALL1        0.0000 
     74 O          31.3230   34.9800   78.9890 O.2       5 ALP1        0.0000 
     75 CA         23.0655   35.5395   74.7020 C.3       4 GLC5        0.0000 
     76 CA         24.8750   35.3370   75.8320 C.3      12 GLL5        0.0000 
     77 CA         21.2560   35.7420   73.5720 C.3       8 GLP5        0.0000 
     78 CA         22.4915   35.5715   75.6420 C.3       4 GLC5        0.0000 
     79 CA         24.0620   34.4770   76.5270 C.3      12 GLL5        0.0000 
     80 CA         20.9210   36.6660   74.7570 C.3       8 GLP5        0.0000 
     81 CA         23.4230   35.7255   77.8120 C.3       4 GLC5        0.0000 
     82 N          25.7275   19.4225   83.7505 N.am      2 SEC2        0.0000 
     83 N          26.8320   20.2110   83.5950 N.am     10 SEL2        0.0000 
     84 N          24.6230   18.6340   83.9060 N.am      6 SEP2        0.0000 
     85 N          26.8455   18.7295   83.0475 N.am      2 SEC2        0.0000 
     86 N          26.8590   17.2480   82.5000 N.am      6 SEP2        0.0000 
     87 N          27.9050   19.1705   83.8620 N.am      2 SEC2        0.0000 
     88 N          28.9780   18.1300   84.1290 N.am      6 SEP2        0.0000 
     89 N          26.9300   18.5075   81.8285 N.am      2 SEC2        0.0000 
     90 N          27.0010   19.7670   81.1570 N.am     10 SEL2        0.0000 
     91 N          29.5325   20.9715   82.9835 N.am      2 SEC2        0.0000 
     92 N          28.5310   21.4650   82.2370 N.am     10 SEL2        0.0000 
     93 N          30.5340   20.4780   83.7300 N.am      6 SEP2        0.0000 
     94 CA         23.7050   25.7455   81.1333 C.3       4 GLC5        0.0000 
     95 CA         21.6010   25.6730   81.1520 C.3       8 GLP5        0.0000 
     96 CA         21.0455   21.7585   77.3105 C.3       4 GLC5        0.0000 
     97 CA         22.8100   21.0890   78.2130 C.3      12 GLL5        0.0000 
     98 CA         19.7440   22.9410   76.5110 C.3       8 GLP5        0.0000 
     99 CA         21.8453   31.8468   80.2988 C.3       4 GLC5        0.0000 
    100 CA         23.3270   30.5700   79.0270 C.3      12 GLL5        0.0000 
    101 CA         23.0088   29.3258   77.8662 C.3       4 GLC5        0.0000 
    102 CA         22.4510   27.6960   77.3170 C.3       8 GLP5        0.0000 
    103 CA         25.3835   36.3636   77.6884 C.3       4 GLC5        0.0000 
    104 CA         26.7830   34.5270   77.1960 C.3      12 GLL5        0.0000 
    105 CA         25.0550   37.5860   79.1170 C.3       8 GLP5        0.0000 
@<TRIPOS>BOND
@<TRIPOS>SUBSTRUCTURE
     1 ALC1       52 GROUP        1 X    ALC  0     ROOT ALC X 1
     2 SEC2        1 GROUP        1 X    SEC  0     **** SEC X 2
     3 LYC4       33 GROUP        1 X    LYC  0     **** LYC X 4
     4 GLC5        4 GROUP        1 X    GLC  0     **** GLC X 6
     5 ALP1       54 GROUP        1 Y    ALP  0     ROOT ALP Y 8
     6 SEP2        3 GROUP        1 Y    SEP  0     **** SEP Y 9
     7 LYP4       35 GROUP        1 Y    LYP  0     **** LYP Y 11
     8 GLP5        6 GROUP        1 Y    GLP  0     **** GLP Y 13
     9 ALL1       53 GROUP        1 Z    ALL  0     ROOT ALL Z 15
    10 SEL2        2 GROUP        1 Z    SEL  0     **** SEL Z 16
    11 LYL4       34 GROUP        1 Z    LYL  0     **** LYL Z 18
    12 GLL5        5 GROUP        1 Z    GLL  0     **** GLL Z 20
@<TRIPOS>SET

