#    Name: 2bfo_NDP_2_ligand
#    Modification time : Mon Mar 24 20:52:37 2014

@<TRIPOS>MOLECULE
2bfo_NDP_2_ligand
   74    78     1     0     0
SMALL
NO_CHARGES


@<TRIPOS>ATOM
      1 PA         27.6750   27.7820   79.4330 P.3       1 NDP1289     0.0000 
      2 O1A        27.9540   27.8510   77.9820 O.co2     1 NDP1289     0.0000 
      3 O2A        28.9180   27.5770   80.2920 O.co2     1 NDP1289     0.0000 
      4 O5B        26.6230   26.6190   79.7270 O.3       1 NDP1289     0.0000 
      5 C5B        25.9910   26.5320   80.9480 C.3       1 NDP1289     0.0000 
      6 C4B        25.6270   25.1040   81.2810 C.3       1 NDP1289     0.0000 
      7 O4B        24.5610   24.6480   80.4890 O.3       1 NDP1289     0.0000 
      8 C3B        26.7680   24.1110   81.0760 C.3       1 NDP1289     0.0000 
      9 O3B        27.6520   24.0820   82.1830 O.3       1 NDP1289     0.0000 
     10 C2B        26.0200   22.7940   80.8680 C.3       1 NDP1289     0.0000 
     11 O2B        26.0850   21.9820   82.0270 O.3       1 NDP1289     0.0000 
     12 C1B        24.5660   23.2140   80.5930 C.3       1 NDP1289     0.0000 
     13 N9A        24.0060   22.4990   79.4170 N.pl3     1 NDP1289     0.0000 
     14 C8A        24.3290   22.6450   78.0900 C.2       1 NDP1289     0.0000 
     15 N7A        23.5810   21.7930   77.3660 N.2       1 NDP1289     0.0000 
     16 C5A        22.8100   21.0890   78.2130 C.ar      1 NDP1289     0.0000 
     17 C6A        21.8840   20.0630   78.0070 C.ar      1 NDP1289     0.0000 
     18 N6A        21.6180   19.5690   76.8000 N.pl3     1 NDP1289     0.0000 
     19 N1A        21.2540   19.5150   79.0970 N.ar      1 NDP1289     0.0000 
     20 C2A        21.5240   19.9730   80.3630 C.ar      1 NDP1289     0.0000 
     21 N3A        22.4280   20.9710   80.5600 N.ar      1 NDP1289     0.0000 
     22 C4A        23.0650   21.5260   79.4970 C.ar      1 NDP1289     0.0000 
     23 O3         26.8380   29.0820   79.8300 O.3       1 NDP1289     0.0000 
     24 PN         27.4250   30.4980   80.2960 P.3       1 NDP1289     0.0000 
     25 O1N        28.3990   30.9620   79.2970 O.co2     1 NDP1289     0.0000 
     26 O2N        27.8640   30.4360   81.6980 O.co2     1 NDP1289     0.0000 
     27 O5D        26.0800   31.3830   80.1880 O.3       1 NDP1289     0.0000 
     28 C5D        24.9160   31.0310   80.9230 C.3       1 NDP1289     0.0000 
     29 C4D        23.6780   31.5010   80.1800 C.3       1 NDP1289     0.0000 
     30 O4D        23.9330   32.7800   79.6080 O.3       1 NDP1289     0.0000 
     31 C3D        23.3270   30.5700   79.0270 C.3       1 NDP1289     0.0000 
     32 O3D        21.9360   30.3220   78.9620 O.3       1 NDP1289     0.0000 
     33 C2D        23.8060   31.3410   77.8040 C.3       1 NDP1289     0.0000 
     34 O2D        23.0450   31.0230   76.6770 O.3       1 NDP1289     0.0000 
     35 C1D        23.6440   32.7930   78.2270 C.3       1 NDP1289     0.0000 
     36 N1N        24.5700   33.6820   77.5190 N.pl3     1 NDP1289     0.0000 
     37 C2N        25.9040   33.6870   77.8600 C.2       1 NDP1289     0.0000 
     38 C3N        26.7830   34.5270   77.1960 C.2       1 NDP1289     0.0000 
     39 C7N        28.2330   34.5580   77.5470 C.2       1 NDP1289     0.0000 
     40 O7N        29.0690   35.4200   76.8690 O.2       1 NDP1289     0.0000 
     41 N7N        28.6710   33.7660   78.5000 N.am      1 NDP1289     0.0000 
     42 C4N        26.3150   35.3640   76.1790 C.3       1 NDP1289     0.0000 
     43 C5N        24.8750   35.3370   75.8320 C.2       1 NDP1289     0.0000 
     44 C6N        24.0620   34.4770   76.5270 C.2       1 NDP1289     0.0000 
     45 P2B        27.1620   20.8100   82.2630 P.3       1 NDP1289     0.0000 
     46 O1X        26.8320   20.2110   83.5950 O.co2     1 NDP1289     0.0000 
     47 O2X        27.0010   19.7670   81.1570 O.co2     1 NDP1289     0.0000 
     48 O3X        28.5310   21.4650   82.2370 O.co2     1 NDP1289     0.0000 
     49 H          25.0526   27.1264   80.9844 H         1 NDP1289     0.0000 
     50 H          26.6209   26.9124   81.7810 H         1 NDP1289     0.0000 
     51 H          25.3504   25.0530   82.3416 H         1 NDP1289     0.0000 
     52 H          27.2412   24.3606   80.1466 H         1 NDP1289     0.0000 
     53 H          26.3968   22.3283   79.9930 H         1 NDP1289     0.0000 
     54 H          24.0008   22.9152   81.4960 H         1 NDP1289     0.0000 
     55 H          24.9869   23.2621   77.7494 H         1 NDP1289     0.0000 
     56 H          22.1298   19.9674   76.0389 H         1 NDP1289     0.0000 
     57 H          20.9303   18.8439   76.7631 H         1 NDP1289     0.0000 
     58 H          21.0305   19.5500   81.1750 H         1 NDP1289     0.0000 
     59 H          24.9071   31.4936   81.9188 H         1 NDP1289     0.0000 
     60 H          24.8339   29.9448   81.0611 H         1 NDP1289     0.0000 
     61 H          22.8495   31.5376   80.8546 H         1 NDP1289     0.0000 
     62 H          23.9224   29.6943   79.1167 H         1 NDP1289     0.0000 
     63 H          24.8539   31.1484   77.6968 H         1 NDP1289     0.0000 
     64 H          22.6257   33.0728   78.0532 H         1 NDP1289     0.0000 
     65 H          26.2517   33.0683   78.6074 H         1 NDP1289     0.0000 
     66 H          29.6507   33.8122   78.6949 H         1 NDP1289     0.0000 
     67 H          27.9845   33.1895   78.9432 H         1 NDP1289     0.0000 
     68 H          26.8980   35.1790   75.2115 H         1 NDP1289     0.0000 
     69 H          26.5870   36.4530   76.4032 H         1 NDP1289     0.0000 
     70 H          24.5537   35.9475   75.1044 H         1 NDP1289     0.0000 
     71 H          23.0490   34.4299   76.2963 H         1 NDP1289     0.0000 
     72 H          27.9634   23.1335   82.2406 H         1 NDP1289     0.0000 
     73 H          21.7719   29.5931   79.6266 H         1 NDP1289     0.0000 
     74 H          23.0416   30.0236   76.6406 H         1 NDP1289     0.0000 
@<TRIPOS>BOND
     1    2    1 ar   
     2    3    1 ar   
     3    4    1 1    
     4   23    1 1    
     5    5    4 1    
     6    6    5 1    
     7   49    5 1    
     8   50    5 1    
     9    7    6 1    
    10    8    6 1    
    11   51    6 1    
    12   12    7 1    
    13    9    8 1    
    14   10    8 1    
    15   52    8 1    
    16   72    9 1    
    17   11   10 1    
    18   12   10 1    
    19   53   10 1    
    20   45   11 1    
    21   13   12 1    
    22   54   12 1    
    23   14   13 1    
    24   22   13 1    
    25   15   14 2    
    26   55   14 1    
    27   16   15 1    
    28   17   16 ar   
    29   22   16 ar   
    30   18   17 1    
    31   19   17 ar   
    32   56   18 1    
    33   57   18 1    
    34   20   19 ar   
    35   21   20 ar   
    36   58   20 1    
    37   22   21 ar   
    38   24   23 1    
    39   25   24 ar   
    40   26   24 ar   
    41   27   24 1    
    42   28   27 1    
    43   29   28 1    
    44   59   28 1    
    45   60   28 1    
    46   30   29 1    
    47   31   29 1    
    48   61   29 1    
    49   35   30 1    
    50   32   31 1    
    51   33   31 1    
    52   62   31 1    
    53   73   32 1    
    54   34   33 1    
    55   35   33 1    
    56   63   33 1    
    57   74   34 1    
    58   36   35 1    
    59   64   35 1    
    60   37   36 1    
    61   44   36 1    
    62   38   37 2    
    63   65   37 1    
    64   39   38 1    
    65   42   38 1    
    66   40   39 2    
    67   41   39 am   
    68   66   41 1    
    69   67   41 1    
    70   43   42 1    
    71   68   42 1    
    72   69   42 1    
    73   44   43 2    
    74   70   43 1    
    75   71   44 1    
    76   46   45 ar   
    77   47   45 ar   
    78   48   45 ar   
@<TRIPOS>SUBSTRUCTURE
     1 NDP1289     1 GROUP   
@<TRIPOS>SET

