#    Name: 3DBJ_1_CAVITY_N1_6.mol2
#    Modification time : Tue Mar 11 15:49:58 2014

@<TRIPOS>MOLECULE
3DBJ_1_CAVITY_N1_6.mol2
   66     0     6     0     0
SMALL
NO_CHARGES


@<TRIPOS>ATOM
      1 DU         15.8452    6.6037   53.6482 H         6 CUB7        0.0000 
      2 OG         15.1584    6.2925   51.6654 O.2       1 SER1        0.0000 
      3 OG         13.6291    5.0164   52.3954 O.2       1 SER1        0.0000 
      4 NZ         19.7106    3.8638   53.8741 N.2       3 LYS4        0.0000 
      5 CZ         19.2894    3.3813   55.2305 C.ar      4 PHE5        0.0000 
      6 CZ         18.8681    2.8988   56.5869 C.ar      4 PHE5        0.0000 
      7 CA         19.0239    3.5526   51.8913 C.3       5 GLY6        0.0000 
      8 CZ         20.6298    2.6859   53.7406 C.ar      4 PHE5        0.0000 
      9 CZ         20.2085    2.2035   55.0970 C.ar      4 PHE5        0.0000 
     10 CZ         19.7873    1.7210   56.4534 C.ar      4 PHE5        0.0000 
     11 CZ         19.3660    1.2385   57.8098 C.ar      4 PHE5        0.0000 
     12 CA         19.5218    1.8923   53.1142 C.3       5 GLY6        0.0000 
     13 DU         19.1005    1.4098   54.4706 H         6 CUB7        0.0000 
     14 DU         18.6792    0.9273   55.8270 H         6 CUB7        0.0000 
     15 CZ         18.2580    0.4449   57.1833 C.ar      4 PHE5        0.0000 
     16 CA         18.4137    1.0986   52.4878 C.3       5 GLY6        0.0000 
     17 N          17.9925    0.6162   53.8441 N.2       2 ALA2        0.0000 
     18 N          17.5712    0.1337   55.2005 N.2       2 ALA2        0.0000 
     19 N          17.1500   -0.3488   56.5569 N.2       2 ALA2        0.0000 
     20 N          16.4632   -0.6600   54.5741 N.2       2 ALA2        0.0000 
     21 CA         21.1277    1.0256   54.9635 C.3       5 GLY6        0.0000 
     22 CZ         20.7064    0.5431   56.3199 C.ar      4 PHE5        0.0000 
     23 CZ         20.2852    0.0606   57.6763 C.ar      4 PHE5        0.0000 
     24 CZ         19.8639   -0.4218   59.0326 C.ar      4 PHE5        0.0000 
     25 CZ         20.4409    0.7144   52.9807 C.ar      4 PHE5        0.0000 
     26 CA         20.0197    0.2320   54.3371 C.3       5 GLY6        0.0000 
     27 N          19.5984   -0.2505   55.6935 N.2       2 ALA2        0.0000 
     28 N          19.1771   -0.7330   57.0498 N.2       2 ALA2        0.0000 
     29 OG         18.7559   -1.2155   58.4062 O.2       1 SER1        0.0000 
     30 CA         18.9116   -0.5617   53.7106 C.3       5 GLY6        0.0000 
     31 N          18.4904   -1.0442   55.0670 N.2       2 ALA2        0.0000 
     32 N          17.6479   -2.0091   57.7798 N.2       2 ALA2        0.0000 
     33 CA         22.0468   -0.1522   54.8300 C.3       5 GLY6        0.0000 
     34 CA         20.9388   -0.9459   54.2036 C.3       5 GLY6        0.0000 
     35 CA         20.5175   -1.4284   55.5599 C.3       5 GLY6        0.0000 
     36 NZ         17.8723    6.2195   54.1412 N.2       3 LYS4        0.0000 
     37 NZ         17.4511    5.7370   55.4975 N.2       3 LYS4        0.0000 
     38 CZ         16.7643    5.4258   53.5147 C.ar      4 PHE5        0.0000 
     39 DU         16.3430    4.9434   54.8711 H         6 CUB7        0.0000 
     40 CA         18.6026    3.0701   53.2477 C.3       5 GLY6        0.0000 
     41 DU         18.1813    2.5877   54.6041 H         6 CUB7        0.0000 
     42 DU         17.7601    2.1052   55.9605 H         6 CUB7        0.0000 
     43 CZ         17.3388    1.6227   57.3168 C.ar      4 PHE5        0.0000 
     44 CA         17.4946    2.2765   52.6213 C.3       5 GLY6        0.0000 
     45 DU         17.0733    1.7940   53.9777 H         6 CUB7        0.0000 
     46 DU         16.6521    1.3115   55.3340 H         6 CUB7        0.0000 
     47 CA         16.3866    1.4828   51.9948 C.3       5 GLY6        0.0000 
     48 N          15.9653    1.0004   53.3512 N.2       2 ALA2        0.0000 
     49 DU         15.5441    0.5179   54.7076 H         6 CUB7        0.0000 
     50 N          14.8573    0.2067   52.7248 N.2       2 ALA2        0.0000 
     51 CZ         16.0775    5.1147   51.5319 C.ar      4 PHE5        0.0000 
     52 OG         15.6563    4.6322   52.8883 O.2       1 SER1        0.0000 
     53 DU         15.2350    4.1497   54.2447 H         6 CUB7        0.0000 
     54 OG         14.5483    3.8385   52.2619 O.2       1 SER1        0.0000 
     55 NZ         18.7915    5.0416   54.0077 N.2       3 LYS4        0.0000 
     56 NZ         18.3702    4.5592   55.3640 N.2       3 LYS4        0.0000 
     57 CZ         17.9490    4.0767   56.7204 C.ar      4 PHE5        0.0000 
     58 OG         18.1047    4.7305   52.0248 O.2       1 SER1        0.0000 
     59 CA         17.6835    4.2480   53.3812 C.3       5 GLY6        0.0000 
     60 DU         17.2622    3.7655   54.7376 H         6 CUB7        0.0000 
     61 DU         16.8409    3.2830   56.0940 H         6 CUB7        0.0000 
     62 CA         16.5754    3.4543   52.7548 C.3       5 GLY6        0.0000 
     63 DU         16.1542    2.9719   54.1112 H         6 CUB7        0.0000 
     64 CA         15.4674    2.6607   52.1284 C.3       5 GLY6        0.0000 
     65 DU         15.0462    2.1782   53.4847 H         6 CUB7        0.0000 
     66 DU         13.9381    1.3846   52.8583 H         6 CUB7        0.0000 
@<TRIPOS>BOND
@<TRIPOS>SUBSTRUCTURE
     1 SER1        2 GROUP   
     2 ALA2       17 GROUP   
     3 LYS4        4 GROUP   
     4 PHE5        5 GROUP   
     5 GLY6        7 GROUP   
     6 CUB7        1 GROUP   
@<TRIPOS>SET

