#    Name: 3dbj_CYC_1_INTS_M
#    Modification time : Mon Mar 24 23:02:48 2014

@<TRIPOS>MOLECULE
3dbj_CYC_1_INTS_M
   88     0    12     0     0
SMALL
NO_CHARGES


@<TRIPOS>ATOM
      1 CA         15.1110   10.0080   52.7235 C.3       4 GLC5        0.0000 
      2 CA         16.8480    9.6930   53.7810 C.3      12 GLL5        0.0000 
      3 CA         13.3740   10.3230   51.6660 C.3       8 GLP5        0.0000 
      4 CA         17.9980    5.8430   51.9635 C.3       4 GLC5        0.0000 
      5 CA         18.0160    4.9170   53.8570 C.3      12 GLL5        0.0000 
      6 CA         17.9800    6.7690   50.0700 C.3       8 GLP5        0.0000 
      7 CA         21.2925    2.2175   52.6730 C.3       4 GLC5        0.0000 
      8 CA         19.8190    2.3800   53.5570 C.3      12 GLL5        0.0000 
      9 CA         22.7660    2.0550   51.7890 C.3       8 GLP5        0.0000 
     10 CA         19.5305    1.9210   51.6100 C.3       4 GLC5        0.0000 
     11 CA         19.2420    1.4620   49.6630 C.3       8 GLP5        0.0000 
     12 CA         20.6390    1.5725   57.0535 C.3       4 GLC5        0.0000 
     13 CA         19.3170    0.5760   56.2780 C.3      12 GLL5        0.0000 
     14 CA         21.9610    2.5690   57.8290 C.3       8 GLP5        0.0000 
     15 CA         18.4335   -1.7480   54.6285 C.3       4 GLC5        0.0000 
     16 CA         18.2450   -0.5340   56.3490 C.3      12 GLL5        0.0000 
     17 CA         18.6220   -2.9620   52.9080 C.3       8 GLP5        0.0000 
     18 CA         26.1160   11.9150   49.7870 C.3       4 GLC5        0.0000 
     19 CA         24.0190   11.8080   49.3950 C.3      12 GLL5        0.0000 
     20 CA         28.2130   12.0220   50.1790 C.3       8 GLP5        0.0000 
     21 CA         25.1645   13.6185   49.7815 C.3       4 GLC5        0.0000 
     22 CA         26.3100   15.4290   50.1680 C.3       8 GLP5        0.0000 
     23 CA         26.3555   12.0520   47.8265 C.3       4 GLC5        0.0000 
     24 CA         24.3000   11.5290   47.9200 C.3      12 GLL5        0.0000 
     25 CA         28.4110   12.5750   47.7330 C.3       8 GLP5        0.0000 
     26 CA         25.1975   13.3365   47.1130 C.3       4 GLC5        0.0000 
     27 CA         26.0950   15.1440   46.3060 C.3       8 GLP5        0.0000 
     28 CA         24.9935   11.6895   46.3015 C.3       4 GLC5        0.0000 
     29 CA         25.6870   11.8500   44.6830 C.3       8 GLP5        0.0000 
     30 CA         26.6930    8.0285   51.3725 C.3       4 GLC5        0.0000 
     31 CA         25.4320    9.2200   50.6570 C.3      12 GLL5        0.0000 
     32 CA         27.9540    6.8370   52.0880 C.3       8 GLP5        0.0000 
     33 CA         27.2015    8.8625   49.8210 C.3       4 GLC5        0.0000 
     34 CA         28.9710    8.5050   48.9850 C.3       8 GLP5        0.0000 
     35 O          19.8075    8.7070   52.9580 O.2       1 ALC1        0.0000 
     36 O          19.1330    9.9610   52.6650 O.2       9 ALL1        0.0000 
     37 O          20.4820    7.4530   53.2510 O.2       5 ALP1        0.0000 
     38 CA         21.7390   11.1035   53.3705 C.3       4 GLC5        0.0000 
     39 CA         19.9270   11.0290   52.2250 C.3      12 GLL5        0.0000 
     40 CA         23.5510   11.1780   54.5160 C.3       8 GLP5        0.0000 
     41 CA         18.8795   15.3050   52.5905 C.3       4 GLC5        0.0000 
     42 CA         19.7280   13.6480   52.2100 C.3      12 GLL5        0.0000 
     43 CA         18.0310   16.9620   52.9710 C.3       8 GLP5        0.0000 
     44 CA         18.2885   12.6740   55.1250 C.3       4 GLC5        0.0000 
     45 CA         16.8630   12.8490   53.6360 C.3      12 GLL5        0.0000 
     46 CA         19.7140   12.4990   56.6140 C.3       8 GLP5        0.0000 
     47 CA         14.5790   11.7750   52.2165 C.3       4 GLC5        0.0000 
     48 CA         15.7840   13.2270   52.7670 C.3      12 GLL5        0.0000 
     49 CA         16.6055   13.8230   51.0440 C.3       4 GLC5        0.0000 
     50 CA         17.4270   14.4190   49.3210 C.3       8 GLP5        0.0000 
     51 NZ         15.8330   16.4370   52.9610 N.4       3 LYC4        0.0000 
     52 NZ         14.9280   15.3870   53.4210 N.4      11 LYL4        0.0000 
     53 NZ         16.5870   18.5870   51.7600 N.4       7 LYP4        0.0000 
     54 N          15.8330   16.4370   52.9610 N.am      2 SEC2        0.0000 
     55 N          14.9280   15.3870   53.4210 N.am     10 SEL2        0.0000 
     56 N          16.7380   17.4870   52.5010 N.am      6 SEP2        0.0000 
     57 CA         14.1053    9.1885   53.1778 C.3       4 GLC5        0.0000 
     58 CA         14.1950    8.3920   54.9000 C.3      12 GLL5        0.0000 
     59 CA         19.9255    3.1586   56.4719 C.3       4 GLC5        0.0000 
     60 CA         18.7310    1.8980   55.8390 C.3      12 GLL5        0.0000 
     61 CA         21.2210    3.7310   57.6620 C.3       8 GLP5        0.0000 
     62 CA         20.3645   -1.1060   57.2762 C.3       4 GLC5        0.0000 
     63 CA         21.9480   -2.2330   58.2390 C.3       8 GLP5        0.0000 
     64 CA         24.5160   11.4170   51.1145 C.3       4 GLC5        0.0000 
     65 CA         23.4310   10.7180   50.1950 C.3      12 GLL5        0.0000 
     66 CA         25.3070   11.5710   52.4340 C.3       8 GLP5        0.0000 
     67 CA         23.0673   12.3018   47.1662 C.3       4 GLC5        0.0000 
     68 CA         21.9750   12.9350   45.6750 C.3       8 GLP5        0.0000 
     69 CA         22.8890   11.5988   52.3503 C.3       4 GLC5        0.0000 
     70 CA         22.1560   11.3280   50.7740 C.3      12 GLL5        0.0000 
     71 CA         24.0800   12.1990   53.5200 C.3       8 GLP5        0.0000 
     72 CA         23.4307    9.9260   47.9518 C.3       4 GLC5        0.0000 
     73 CA         22.8490    8.4560   47.0460 C.3       8 GLP5        0.0000 
     74 CA         26.5482   10.8175   50.5505 C.3       4 GLC5        0.0000 
     75 CA         24.3350   10.0060   51.1870 C.3      12 GLL5        0.0000 
     76 CA         25.0953   10.5920   51.6780 C.3       4 GLC5        0.0000 
     77 CA         24.4207    8.6020   49.2500 C.3       4 GLC5        0.0000 
     78 CA         23.9580    7.5910   47.5780 C.3       8 GLP5        0.0000 
     79 CA         20.7994   10.4480   49.7489 C.3       4 GLC5        0.0000 
     80 CA         19.5820   10.0500   48.4620 C.3       8 GLP5        0.0000 
     81 CA         18.4582   13.6858   50.8388 C.3       4 GLC5        0.0000 
     82 CA         19.2510   12.2570   52.5030 C.3      12 GLL5        0.0000 
     83 CA         18.9959   11.8840   54.8166 C.3       4 GLC5        0.0000 
     84 CA         17.9550   10.4530   53.2140 C.3      12 GLL5        0.0000 
     85 CA         17.1773   15.0000   53.0862 C.3       4 GLC5        0.0000 
     86 CA         18.0714   11.0625   51.0755 C.3       4 GLC5        0.0000 
     87 CA         17.9500   11.9130   53.1460 C.3      12 GLL5        0.0000 
     88 CA         17.3720   10.7120   49.3790 C.3       8 GLP5        0.0000 
@<TRIPOS>BOND
@<TRIPOS>SUBSTRUCTURE
     1 ALC1       35 GROUP        1 X    ALC  0     ROOT ALC X 1
     2 SEC2       54 GROUP        1 X    SEC  0     **** SEC X 2
     3 LYC4       51 GROUP        1 X    LYC  0     **** LYC X 4
     4 GLC5        1 GROUP        1 X    GLC  0     **** GLC X 6
     5 ALP1       37 GROUP        1 Y    ALP  0     ROOT ALP Y 8
     6 SEP2       56 GROUP        1 Y    SEP  0     **** SEP Y 9
     7 LYP4       53 GROUP        1 Y    LYP  0     **** LYP Y 11
     8 GLP5        3 GROUP        1 Y    GLP  0     **** GLP Y 13
     9 ALL1       36 GROUP        1 Z    ALL  0     ROOT ALL Z 15
    10 SEL2       55 GROUP        1 Z    SEL  0     **** SEL Z 16
    11 LYL4       52 GROUP        1 Z    LYL  0     **** LYL Z 18
    12 GLL5        2 GROUP        1 Z    GLL  0     **** GLL Z 20
@<TRIPOS>SET

