#    Name: 3dbj_CYC_1_ligand
#    Modification time : Mon Mar 24 23:02:48 2014

@<TRIPOS>MOLECULE
3dbj_CYC_1_ligand
   81    84     1     0     0
SMALL
NO_CHARGES


@<TRIPOS>ATOM
      1 CHA        16.8480    9.6930   53.7810 C.2       1 CYC202      0.0000 
      2 NA         17.6440    7.3770   53.7100 N.2       1 CYC202      0.0000 
      3 C1A        16.7140    8.3450   53.9520 C.2       1 CYC202      0.0000 
      4 C2A        15.4780    7.7160   54.4790 C.2       1 CYC202      0.0000 
      5 C3A        15.8140    6.3060   54.4980 C.2       1 CYC202      0.0000 
      6 C4A        17.1790    6.1320   54.0150 C.2       1 CYC202      0.0000 
      7 CMA        14.8710    5.2260   54.9620 C.3       1 CYC202      0.0000 
      8 CAA        14.1950    8.3920   54.9000 C.3       1 CYC202      0.0000 
      9 CBA        13.8020    8.2210   56.2970 C.3       1 CYC202      0.0000 
     10 CGA        14.8050    8.9650   57.1350 C.2       1 CYC202      0.0000 
     11 O1A        15.5660    8.2280   57.7990 O.co2     1 CYC202      0.0000 
     12 O2A        14.8410   10.2310   57.1300 O.co2     1 CYC202      0.0000 
     13 CHB        18.0160    4.9170   53.8570 C.2       1 CYC202      0.0000 
     14 NB         17.4330    3.8480   55.9200 N.am      1 CYC202      0.0000 
     15 C1B        18.1200    3.8640   54.7780 C.2       1 CYC202      0.0000 
     16 C2B        18.9380    2.6850   54.6710 C.2       1 CYC202      0.0000 
     17 C3B        18.7310    1.8980   55.8390 C.2       1 CYC202      0.0000 
     18 C4B        17.7860    2.7150   56.5160 C.2       1 CYC202      0.0000 
     19 CMB        19.8190    2.3800   53.5570 C.3       1 CYC202      0.0000 
     20 CAB        19.3170    0.5760   56.2780 C.3       1 CYC202      0.0000 
     21 CBB        18.2450   -0.5340   56.3490 C.3       1 CYC202      0.0000 
     22 OB         17.2950    2.3060   57.7290 O.2       1 CYC202      0.0000 
     23 NC         21.9850   12.6050   50.3780 N.am      1 CYC202      0.0000 
     24 C1C        22.9960   12.9070   49.6210 C.2       1 CYC202      0.0000 
     25 C2C        24.0190   11.8080   49.3950 C.3       1 CYC202      0.0000 
     26 C3C        23.4310   10.7180   50.1950 C.3       1 CYC202      0.0000 
     27 C4C        22.1560   11.3280   50.7740 C.2       1 CYC202      0.0000 
     28 CMC        24.3000   11.5290   47.9200 C.3       1 CYC202      0.0000 
     29 CAC        24.3350   10.0060   51.1870 C.3       1 CYC202      0.0000 
     30 CBC        25.4320    9.2200   50.6570 C.3       1 CYC202      0.0000 
     31 OC         23.2150   14.0520   49.0290 O.2       1 CYC202      0.0000 
     32 CHD        21.2400   10.6690   51.5870 C.2       1 CYC202      0.0000 
     33 ND         19.1330    9.9610   52.6650 N.pl3     1 CYC202      0.0000 
     34 C1D        19.9270   11.0290   52.2250 C.2       1 CYC202      0.0000 
     35 C2D        19.2510   12.2570   52.5030 C.2       1 CYC202      0.0000 
     36 C3D        17.9500   11.9130   53.1460 C.2       1 CYC202      0.0000 
     37 C4D        17.9550   10.4530   53.2140 C.2       1 CYC202      0.0000 
     38 CMD        19.7280   13.6480   52.2100 C.3       1 CYC202      0.0000 
     39 CAD        16.8630   12.8490   53.6360 C.3       1 CYC202      0.0000 
     40 CBD        15.7840   13.2270   52.7670 C.3       1 CYC202      0.0000 
     41 CGD        14.8250   14.1770   53.4940 C.2       1 CYC202      0.0000 
     42 O1D        14.9280   15.3870   53.4210 O.co2     1 CYC202      0.0000 
     43 O2D        13.8350   13.7290   54.2470 O.co2     1 CYC202      0.0000 
     44 H          16.0187   10.3241   54.1079 H         1 CYC202      0.0000 
     45 H          13.3752    8.0275   54.2263 H         1 CYC202      0.0000 
     46 H          14.2854    9.4844   54.6607 H         1 CYC202      0.0000 
     47 H          13.8137    7.1735   56.5758 H         1 CYC202      0.0000 
     48 H          12.8155    8.6341   56.4738 H         1 CYC202      0.0000 
     49 H          18.5711    4.8698   52.9612 H         1 CYC202      0.0000 
     50 H          16.8233    4.5063   56.2365 H         1 CYC202      0.0000 
     51 H          19.7720    0.6822   57.2665 H         1 CYC202      0.0000 
     52 H          20.0938    0.2632   55.5751 H         1 CYC202      0.0000 
     53 H          21.2379   13.1669   50.6276 H         1 CYC202      0.0000 
     54 H          24.9334   12.1428   49.8954 H         1 CYC202      0.0000 
     55 H          23.0583    9.9495   49.4504 H         1 CYC202      0.0000 
     56 H          23.6766    9.3607   51.8389 H         1 CYC202      0.0000 
     57 H          24.7284   10.7854   51.9030 H         1 CYC202      0.0000 
     58 H          21.5181    9.6106   51.8488 H         1 CYC202      0.0000 
     59 H          19.3711    9.0387   52.5951 H         1 CYC202      0.0000 
     60 H          17.3872   13.7844   54.0327 H         1 CYC202      0.0000 
     61 H          16.4449   12.3942   54.5979 H         1 CYC202      0.0000 
     62 H          15.2051   12.3552   52.4391 H         1 CYC202      0.0000 
     63 H          16.1490   13.7430   51.8708 H         1 CYC202      0.0000 
     64 H          15.2873    4.3187   54.9024 H         1 CYC202      0.0000 
     65 H          14.5931    5.3591   55.9134 H         1 CYC202      0.0000 
     66 H          14.0354    5.2017   54.4133 H         1 CYC202      0.0000 
     67 H          20.5198    3.0827   53.4345 H         1 CYC202      0.0000 
     68 H          20.2954    1.5105   53.6875 H         1 CYC202      0.0000 
     69 H          19.3175    2.3128   52.6945 H         1 CYC202      0.0000 
     70 H          18.6335   -1.4072   56.6433 H         1 CYC202      0.0000 
     71 H          17.5158   -0.3054   56.9940 H         1 CYC202      0.0000 
     72 H          17.8126   -0.6900   55.4609 H         1 CYC202      0.0000 
     73 H          24.6554   12.3371   47.4503 H         1 CYC202      0.0000 
     74 H          24.9750   10.8007   47.8018 H         1 CYC202      0.0000 
     75 H          23.4746   11.2456   47.4318 H         1 CYC202      0.0000 
     76 H          26.0608    9.7778   50.1153 H         1 CYC202      0.0000 
     77 H          25.9700    8.7950   51.3849 H         1 CYC202      0.0000 
     78 H          25.1082    8.4832   50.0635 H         1 CYC202      0.0000 
     79 H          20.5916   13.8496   52.6722 H         1 CYC202      0.0000 
     80 H          19.8789   13.7905   51.2318 H         1 CYC202      0.0000 
     81 H          19.0680   14.3375   52.5083 H         1 CYC202      0.0000 
@<TRIPOS>BOND
     1    3    1 2    
     2   37    1 1    
     3   44    1 1    
     4    3    2 1    
     5    6    2 2    
     6    4    3 1    
     7    5    4 2    
     8    8    4 1    
     9    6    5 1    
    10    7    5 1    
    11   13    6 1    
    12   64    7 1    
    13   65    7 1    
    14   66    7 1    
    15    9    8 1    
    16   45    8 1    
    17   46    8 1    
    18   10    9 1    
    19   47    9 1    
    20   48    9 1    
    21   11   10 ar   
    22   12   10 ar   
    23   15   13 2    
    24   49   13 1    
    25   15   14 1    
    26   18   14 am   
    27   50   14 1    
    28   16   15 1    
    29   17   16 2    
    30   19   16 1    
    31   18   17 1    
    32   20   17 1    
    33   22   18 2    
    34   67   19 1    
    35   68   19 1    
    36   69   19 1    
    37   21   20 1    
    38   51   20 1    
    39   52   20 1    
    40   70   21 1    
    41   71   21 1    
    42   72   21 1    
    43   24   23 am   
    44   27   23 1    
    45   53   23 1    
    46   25   24 1    
    47   31   24 2    
    48   26   25 1    
    49   28   25 1    
    50   54   25 1    
    51   27   26 1    
    52   29   26 1    
    53   55   26 1    
    54   32   27 2    
    55   73   28 1    
    56   74   28 1    
    57   75   28 1    
    58   30   29 1    
    59   56   29 1    
    60   57   29 1    
    61   76   30 1    
    62   77   30 1    
    63   78   30 1    
    64   34   32 1    
    65   58   32 1    
    66   34   33 1    
    67   37   33 1    
    68   59   33 1    
    69   35   34 2    
    70   36   35 1    
    71   38   35 1    
    72   37   36 2    
    73   39   36 1    
    74   79   38 1    
    75   80   38 1    
    76   81   38 1    
    77   40   39 1    
    78   60   39 1    
    79   61   39 1    
    80   41   40 1    
    81   62   40 1    
    82   63   40 1    
    83   42   41 ar   
    84   43   41 ar   
@<TRIPOS>SUBSTRUCTURE
     1 CYC202      1 GROUP   
@<TRIPOS>SET

