#    Name: 4a7c_E46_1_INTS_M
#    Modification time : Tue Mar 25 05:14:05 2014

@<TRIPOS>MOLECULE
4a7c_E46_1_INTS_M
   75     0     9     0     0
SMALL
NO_CHARGES


@<TRIPOS>ATOM
      1 CA        -45.5365   -4.0890    2.0135 C.3       3 GLC5        0.0000 
      2 CA        -45.7690   -2.1330    2.1850 C.3       9 GLL5        0.0000 
      3 CA        -45.3040   -6.0450    1.8420 C.3       6 GLP5        0.0000 
      4 CA        -47.4685    0.8525    0.2010 C.3       3 GLC5        0.0000 
      5 CA        -46.6310   -0.3020    1.4530 C.3       9 GLL5        0.0000 
      6 CA        -48.3060    2.0070   -1.0510 C.3       6 GLP5        0.0000 
      7 CA        -47.9325   -2.7400   -1.4000 C.3       3 GLC5        0.0000 
      8 CA        -46.6500   -2.0170    0.1560 C.3       9 GLL5        0.0000 
      9 CA        -49.2150   -3.4630   -2.9560 C.3       6 GLP5        0.0000 
     10 CA        -41.8985   -0.2145   -0.1045 C.3       3 GLC5        0.0000 
     11 CA        -42.8300   -1.9780   -0.4390 C.3       9 GLL5        0.0000 
     12 CA        -40.9670    1.5490    0.2300 C.3       6 GLP5        0.0000 
     13 CA        -42.2205   -4.0650    0.1055 C.3       3 GLC5        0.0000 
     14 CA        -41.6110   -6.1520    0.6500 C.3       6 GLP5        0.0000 
     15 CA        -46.5415   -0.5085   -2.4460 C.3       3 GLC5        0.0000 
     16 CA        -44.8400   -1.6370   -1.6970 C.3       9 GLL5        0.0000 
     17 CA        -48.2430    0.6200   -3.1950 C.3       6 GLP5        0.0000 
     18 N         -37.3760   -3.2080   -2.3480 N.am      1 SEC2        0.0000 
     19 N         -38.9420   -3.6920   -2.0310 N.am      7 SEL2        0.0000 
     20 N         -35.8100   -2.7240   -2.6650 N.am      4 SEP2        0.0000 
     21 CA        -40.4825   -4.3460    1.2665 C.3       3 GLC5        0.0000 
     22 CA        -39.3540   -2.5400    1.8830 C.3       9 GLL5        0.0000 
     23 CA        -40.1120    0.1630    4.9025 C.3       3 GLC5        0.0000 
     24 CA        -40.7280   -1.6640    3.7530 C.3       9 GLL5        0.0000 
     25 CA        -39.4960    1.9900    6.0520 C.3       6 GLP5        0.0000 
     26 CA        -38.6000   -1.3805    4.1120 C.3       3 GLC5        0.0000 
     27 CA        -36.4720   -1.0970    4.4710 C.3       6 GLP5        0.0000 
     28 CA        -43.2280   -6.3060    5.1770 C.3       3 GLC5        0.0000 
     29 CA        -41.5990   -5.2410    4.9270 C.3       9 GLL5        0.0000 
     30 CA        -44.8570   -7.3710    5.4270 C.3       6 GLP5        0.0000 
     31 OD1       -43.2485   -5.5755    6.0255 O.co2     2 ASC3        0.0000 
     32 OD1       -42.9960   -4.8470    4.9880 O.co2     8 ASL3        0.0000 
     33 OD1       -43.5010   -6.3040    7.0630 O.co2     5 ASP3        0.0000 
     34 CA        -44.1150   -5.5075    5.5750 C.3       3 GLC5        0.0000 
     35 CA        -43.3730   -3.6440    5.7230 C.3       9 GLL5        0.0000 
     36 CA        -47.5117   -0.5020   -0.5493 C.3       3 GLC5        0.0000 
     37 CA        -45.9770   -1.3950    1.1070 C.3       9 GLL5        0.0000 
     38 CA        -48.7100    0.7020   -1.7300 C.3       6 GLP5        0.0000 
     39 CA        -46.0433   -3.4500    0.0597 C.3       3 GLC5        0.0000 
     40 CA        -45.7730   -5.1940   -0.5120 C.3       6 GLP5        0.0000 
     41 CA        -45.6970    0.6405    1.7698 C.3       3 GLC5        0.0000 
     42 CA        -45.1420    2.3140    1.9900 C.3       6 GLP5        0.0000 
     43 CA        -48.0965   -1.9955    1.6059 C.3       3 GLC5        0.0000 
     44 CA        -49.7420   -2.4660    2.3590 C.3       6 GLP5        0.0000 
     45 CA        -43.6605   -0.2020   -1.6793 C.3       3 GLC5        0.0000 
     46 CA        -44.1440   -1.5640   -0.5060 C.3       9 GLL5        0.0000 
     47 CA        -43.8340    1.3670   -2.8860 C.3       6 GLP5        0.0000 
     48 CA        -44.6300   -3.4825   -0.4923 C.3       3 GLC5        0.0000 
     49 CA        -44.1733   -0.2628   -2.5682 C.3       3 GLC5        0.0000 
     50 CA        -43.9475   -3.6320   -4.0747 C.3       3 GLC5        0.0000 
     51 CA        -44.1850   -2.1480   -2.8040 C.3       9 GLL5        0.0000 
     52 CA        -44.3720   -4.9090   -5.3930 C.3       6 GLP5        0.0000 
     53 CA        -43.0435   -1.5770   -4.5563 C.3       3 GLC5        0.0000 
     54 CA        -42.5640   -0.7990   -6.3560 C.3       6 GLP5        0.0000 
     55 CA        -43.1672   -0.5807   -2.5005 C.3       3 GLC5        0.0000 
     56 CA        -42.8610   -2.5620   -2.7090 C.3       9 GLL5        0.0000 
     57 CA        -44.7299   -3.7106   -1.4959 C.3       3 GLC5        0.0000 
     58 CA        -42.6718   -4.5608   -2.1455 C.3       3 GLC5        0.0000 
     59 CA        -42.8430   -6.5930   -2.1760 C.3       6 GLP5        0.0000 
     60 CA        -36.9550   -2.3262   -1.4285 C.3       3 GLC5        0.0000 
     61 CA        -37.8960   -3.4630    0.2130 C.3       9 GLL5        0.0000 
     62 CA        -35.5070   -1.2380   -2.6060 C.3       6 GLP5        0.0000 
     63 CA        -40.5680   -4.6298    0.0653 C.3       3 GLC5        0.0000 
     64 CA        -38.9100   -3.3660   -0.7150 C.3       9 GLL5        0.0000 
     65 CA        -37.7015   -5.1333   -0.6145 C.3       3 GLC5        0.0000 
     66 CA        -37.0000   -6.8520   -0.9780 C.3       6 GLP5        0.0000 
     67 CA        -36.1108   -2.8518    0.9633 C.3       3 GLC5        0.0000 
     68 CA        -34.2120   -2.4470    1.0640 C.3       6 GLP5        0.0000 
     69 CA        -38.6743   -0.9575    1.1692 C.3       3 GLC5        0.0000 
     70 CA        -38.1230   -3.0500    1.5120 C.3       9 GLL5        0.0000 
     71 CA        -38.6100    0.8800    0.6410 C.3       6 GLP5        0.0000 
     72 CA        -38.9408   -1.1259    0.1768 C.3       3 GLC5        0.0000 
     73 CA        -40.1400   -2.8490   -0.3240 C.3       9 GLL5        0.0000 
     74 CA        -41.3895   -5.4002    2.6798 C.3       3 GLC5        0.0000 
     75 CA        -40.7370   -4.0560    4.4920 C.3       9 GLL5        0.0000 
@<TRIPOS>BOND
@<TRIPOS>SUBSTRUCTURE
     1 SEC2       18 GROUP        1 X    SEC  0     ROOT SEC X 2
     2 ASC3       31 GROUP        1 X    ASC  0     **** ASC X 3
     3 GLC5        1 GROUP        1 X    GLC  0     **** GLC X 6
     4 SEP2       20 GROUP        1 Y    SEP  0     ROOT SEP Y 9
     5 ASP3       33 GROUP        1 Y    ASP  0     **** ASP Y 10
     6 GLP5        3 GROUP        1 Y    GLP  0     **** GLP Y 13
     7 SEL2       19 GROUP        1 Z    SEL  0     ROOT SEL Z 16
     8 ASL3       32 GROUP        1 Z    ASL  0     **** ASL Z 17
     9 GLL5        2 GROUP        1 Z    GLL  0     **** GLL Z 20
@<TRIPOS>SET

