#    Name: 4a7c_E46_1_ligand
#    Modification time : Tue Mar 25 05:14:05 2014

@<TRIPOS>MOLECULE
4a7c_E46_1_ligand
   46    49     1     0     0
SMALL
NO_CHARGES


@<TRIPOS>ATOM
      1 FAA       -45.7690   -2.1330    2.1850 F         1 E461306     0.0000 
      2 CBB       -45.9770   -1.3950    1.1070 C.3       1 E461306     0.0000 
      3 FAB       -46.6310   -0.3020    1.4530 F         1 E461306     0.0000 
      4 FAC       -46.6500   -2.0170    0.1560 F         1 E461306     0.0000 
      5 OAT       -44.6990   -1.0480    0.6290 O.3       1 E461306     0.0000 
      6 CAU       -44.1440   -1.5640   -0.5060 C.ar      1 E461306     0.0000 
      7 CAI       -42.8300   -1.9780   -0.4390 C.ar      1 E461306     0.0000 
      8 CAE       -44.8400   -1.6370   -1.6970 C.ar      1 E461306     0.0000 
      9 CAD       -44.1850   -2.1480   -2.8040 C.ar      1 E461306     0.0000 
     10 CAF       -42.8610   -2.5620   -2.7090 C.ar      1 E461306     0.0000 
     11 CAW       -42.1400   -2.4950   -1.5210 C.ar      1 E461306     0.0000 
     12 NBA       -40.8720   -2.8880   -1.4370 N.pl3     1 E461306     0.0000 
     13 NAP       -40.2180   -3.4010   -2.5500 N.2       1 E461306     0.0000 
     14 NAO       -38.9420   -3.6920   -2.0310 N.2       1 E461306     0.0000 
     15 CAX       -38.9100   -3.3660   -0.7150 C.ar      1 E461306     0.0000 
     16 CAH       -37.8960   -3.4630    0.2130 C.ar      1 E461306     0.0000 
     17 CAG       -38.1230   -3.0500    1.5120 C.ar      1 E461306     0.0000 
     18 CAY       -40.1400   -2.8490   -0.3240 C.ar      1 E461306     0.0000 
     19 NAQ       -40.3490   -2.4470    0.9570 N.ar      1 E461306     0.0000 
     20 CAV       -39.3540   -2.5400    1.8830 C.ar      1 E461306     0.0000 
     21 NAS       -39.4880   -2.1430    3.1760 N.pl3     1 E461306     0.0000 
     22 CAN       -40.7280   -1.6640    3.7530 C.3       1 E461306     0.0000 
     23 CAZ       -41.6080   -2.8530    4.1150 C.3       1 E461306     0.0000 
     24 CAL       -42.5280   -2.4540    5.2740 C.3       1 E461306     0.0000 
     25 CAM       -40.7370   -4.0560    4.4920 C.3       1 E461306     0.0000 
     26 CAK       -41.5990   -5.2410    4.9270 C.3       1 E461306     0.0000 
     27 NAR       -42.9960   -4.8470    4.9880 N.4       1 E461306     0.0000 
     28 CAJ       -43.3730   -3.6440    5.7230 C.3       1 E461306     0.0000 
     29 H         -42.3242   -1.8971    0.4828 H         1 E461306     0.0000 
     30 H         -45.8063   -1.3245   -1.7599 H         1 E461306     0.0000 
     31 H         -44.6798   -2.2234   -3.7067 H         1 E461306     0.0000 
     32 H         -42.3888   -2.9382   -3.5630 H         1 E461306     0.0000 
     33 H         -36.9783   -3.8390   -0.0569 H         1 E461306     0.0000 
     34 H         -37.3658   -3.1227    2.2138 H         1 E461306     0.0000 
     35 H         -38.6611   -2.1717    3.8278 H         1 E461306     0.0000 
     36 H         -41.2757   -1.0351    3.0476 H         1 E461306     0.0000 
     37 H         -40.5443   -1.0852    4.6609 H         1 E461306     0.0000 
     38 H         -42.2128   -3.1083    3.2647 H         1 E461306     0.0000 
     39 H         -43.1825   -1.6488    4.9491 H         1 E461306     0.0000 
     40 H         -41.9220   -2.1068    6.1074 H         1 E461306     0.0000 
     41 H         -40.0735   -3.7748    5.3082 H         1 E461306     0.0000 
     42 H         -40.1355   -4.3451    3.6317 H         1 E461306     0.0000 
     43 H         -41.2416   -5.5811    5.9040 H         1 E461306     0.0000 
     44 H         -41.4487   -6.0528    4.2085 H         1 E461306     0.0000 
     45 H         -44.4274   -3.3976    5.5556 H         1 E461306     0.0000 
     46 H         -43.2258   -3.7814    6.8001 H         1 E461306     0.0000 
@<TRIPOS>BOND
     1    2    1 1    
     2    3    2 1    
     3    4    2 1    
     4    5    2 1    
     5    6    5 1    
     6    7    6 ar   
     7    8    6 ar   
     8   11    7 ar   
     9   29    7 1    
    10    9    8 ar   
    11   30    8 1    
    12   10    9 ar   
    13   31    9 1    
    14   11   10 ar   
    15   32   10 1    
    16   12   11 1    
    17   13   12 1    
    18   18   12 1    
    19   14   13 2    
    20   15   14 1    
    21   16   15 ar   
    22   18   15 ar   
    23   17   16 ar   
    24   33   16 1    
    25   20   17 ar   
    26   34   17 1    
    27   19   18 ar   
    28   20   19 ar   
    29   21   20 1    
    30   22   21 1    
    31   35   21 1    
    32   23   22 1    
    33   36   22 1    
    34   37   22 1    
    35   24   23 1    
    36   25   23 1    
    37   38   23 1    
    38   28   24 1    
    39   39   24 1    
    40   40   24 1    
    41   26   25 1    
    42   41   25 1    
    43   42   25 1    
    44   27   26 1    
    45   43   26 1    
    46   44   26 1    
    47   28   27 1    
    48   45   28 1    
    49   46   28 1    
@<TRIPOS>SUBSTRUCTURE
     1 E461306     1 GROUP   
@<TRIPOS>SET

