#    Name: 2b69_NAD_1_INTS_M
#    Modification time : Mon Mar 24 20:19:20 2014

@<TRIPOS>MOLECULE
2b69_NAD_1_INTS_M
  112     0    12     0     0
SMALL
NO_CHARGES


@<TRIPOS>ATOM
      1 N          45.6100   36.0920   23.2090 N.am      2 SEC2        0.0000 
      2 N          44.8630   34.9880   22.8420 N.am     10 SEL2        0.0000 
      3 N          46.3570   37.1960   23.5760 N.am      6 SEP2        0.0000 
      4 N          42.7070   35.2105   19.5590 N.am      2 SEC2        0.0000 
      5 N          43.6760   34.9650   20.6440 N.am     10 SEL2        0.0000 
      6 N          41.7380   35.4560   18.4740 N.am      6 SEP2        0.0000 
      7 CA         40.6150   38.9005   23.8010 C.3       4 GLC5        0.0000 
      8 CA         42.2310   37.9470   23.6430 C.3      12 GLL5        0.0000 
      9 CA         38.9990   39.8540   23.9590 C.3       8 GLP5        0.0000 
     10 O          43.0145   40.9585   22.2860 O.2       1 ALC1        0.0000 
     11 O          42.9400   39.3900   21.8120 O.2       9 ALL1        0.0000 
     12 O          43.0890   42.5270   22.7600 O.2       5 ALP1        0.0000 
     13 O          42.0830   40.4290   21.9875 O.2       1 ALC1        0.0000 
     14 O          41.2260   41.4680   22.1630 O.2       5 ALP1        0.0000 
     15 CA         46.0490   38.9810   23.1470 C.3       4 GLC5        0.0000 
     16 CA         44.1030   39.4410   23.9710 C.3      12 GLL5        0.0000 
     17 CA         47.9950   38.5210   22.3230 C.3       8 GLP5        0.0000 
     18 N          46.3285   40.1350   23.3670 N.am      2 SEC2        0.0000 
     19 N          44.8240   40.5860   23.5040 N.am     10 SEL2        0.0000 
     20 N          47.8330   39.6840   23.2300 N.am      6 SEP2        0.0000 
     21 N          45.4945   40.0535   22.2465 N.am      2 SEC2        0.0000 
     22 N          46.1650   39.5210   20.9890 N.am      6 SEP2        0.0000 
     23 O          43.9565   41.5565   23.1320 O.2       1 ALC1        0.0000 
     24 O          44.8240   40.5860   23.5040 O.2       9 ALL1        0.0000 
     25 CA         40.9615   39.8140   24.4245 C.3       4 GLC5        0.0000 
     26 CA         42.9240   39.7740   24.8900 C.3      12 GLL5        0.0000 
     27 CA         41.2795   39.0920   26.2470 C.3       4 GLC5        0.0000 
     28 CA         39.6350   38.4100   27.6040 C.3       8 GLP5        0.0000 
     29 CA         42.8460   44.3265   29.3885 C.3       4 GLC5        0.0000 
     30 CA         43.1680   42.1360   29.1330 C.3      12 GLL5        0.0000 
     31 CA         42.5240   46.5170   29.6440 C.3       8 GLP5        0.0000 
     32 CA         41.6120   42.1775   30.2980 C.3       4 GLC5        0.0000 
     33 CA         40.0560   42.2190   31.4630 C.3       8 GLP5        0.0000 
     34 O          43.6825   43.4855   31.0345 O.2       1 ALC1        0.0000 
     35 O          43.6690   42.1690   30.3690 O.2       9 ALL1        0.0000 
     36 O          43.6960   44.8020   31.7000 O.2       5 ALP1        0.0000 
     37 O          44.2110   41.1020   31.3625 O.2       1 ALC1        0.0000 
     38 O          44.7530   40.0350   32.3560 O.2       5 ALP1        0.0000 
     39 N          41.5430   44.1030   29.6995 N.am      2 SEC2        0.0000 
     40 N          42.2910   43.1370   28.7570 N.am     10 SEL2        0.0000 
     41 N          40.7950   45.0690   30.6420 N.am      6 SEP2        0.0000 
     42 CA         41.3435   43.8150   25.6495 C.3       4 GLC5        0.0000 
     43 CA         41.7250   43.1500   27.4930 C.3      12 GLL5        0.0000 
     44 CA         40.9620   44.4800   23.8060 C.3       8 GLP5        0.0000 
     45 CA         43.3315   44.2610   27.0160 C.3       4 GLC5        0.0000 
     46 CA         44.9380   45.3720   26.5390 C.3       8 GLP5        0.0000 
     47 CA         42.1245   44.8335   28.5685 C.3       4 GLC5        0.0000 
     48 CA         40.0565   43.2095   28.6785 C.3       4 GLC5        0.0000 
     49 CA         38.3880   43.2690   29.8640 C.3       8 GLP5        0.0000 
     50 CA         40.6115   41.4915   27.8135 C.3       4 GLC5        0.0000 
     51 CA         39.4980   39.8330   28.1340 C.3       8 GLP5        0.0000 
     52 N          42.6175   43.4860   25.6760 N.am      2 SEC2        0.0000 
     53 N          42.0100   42.1730   26.5680 N.am     10 SEL2        0.0000 
     54 N          43.2250   44.7990   24.7840 N.am      6 SEP2        0.0000 
     55 NZ         43.0745   30.1310   21.9510 N.4       3 LYC4        0.0000 
     56 NZ         42.0330   31.2070   21.7050 N.4      11 LYL4        0.0000 
     57 NZ         45.1990   29.5260   21.5980 N.4       7 LYP4        0.0000 
     58 N          43.0745   30.1310   21.9510 N.am      2 SEC2        0.0000 
     59 N          42.0330   31.2070   21.7050 N.am     10 SEL2        0.0000 
     60 N          44.1160   29.0550   22.1970 N.am      6 SEP2        0.0000 
     61 N          43.6005   30.9720   21.3835 N.am      2 SEC2        0.0000 
     62 N          45.1680   30.7370   21.0620 N.am      6 SEP2        0.0000 
     63 N          40.0725   33.4735   19.8730 N.am      2 SEC2        0.0000 
     64 N          40.8350   33.4060   21.0910 N.am     10 SEL2        0.0000 
     65 N          39.3100   33.5410   18.6550 N.am      6 SEP2        0.0000 
     66 CA         38.6090   32.8440   21.8425 C.3       4 GLC5        0.0000 
     67 CA         39.6850   33.2980   23.6930 C.3      12 GLL5        0.0000 
     68 CA         37.5330   32.3900   19.9920 C.3       8 GLP5        0.0000 
     69 CA         37.2460   32.6690   26.0960 C.3       4 GLC5        0.0000 
     70 CA         39.0890   32.9190   25.0590 C.3      12 GLL5        0.0000 
     71 CA         35.4030   32.4190   27.1330 C.3       8 GLP5        0.0000 
     72 CA         41.0865   33.9860   27.8705 C.3       4 GLC5        0.0000 
     73 CA         40.1110   32.9880   26.1970 C.3      12 GLL5        0.0000 
     74 CA         42.0620   34.9840   29.5440 C.3       8 GLP5        0.0000 
     75 N          39.3425   33.0145   28.7390 N.am      2 SEC2        0.0000 
     76 N          39.4910   33.4910   27.3740 N.am     10 SEL2        0.0000 
     77 N          39.1940   32.5380   30.1040 N.am      6 SEP2        0.0000 
     78 CA         40.3370   31.6135   28.6330 C.3       4 GLC5        0.0000 
     79 CA         40.5220   31.5540   26.4090 C.3      12 GLL5        0.0000 
     80 CA         40.1520   31.6730   30.8570 C.3       8 GLP5        0.0000 
     81 N          41.6010   30.1690   28.2235 N.am      2 SEC2        0.0000 
     82 N          40.9880   31.3290   27.7340 N.am     10 SEL2        0.0000 
     83 N          42.2140   29.0090   28.7130 N.am      6 SEP2        0.0000 
     84 N          40.0910   31.9335   28.9190 N.am      2 SEC2        0.0000 
     85 CA         37.3145   31.6175   26.5870 C.3       4 GLC5        0.0000 
     86 CA         39.2260   30.8160   26.0410 C.3      12 GLL5        0.0000 
     87 CA         37.2360   30.0080   25.5685 C.3       4 GLC5        0.0000 
     88 CA         35.2460   29.2000   25.0960 C.3       8 GLP5        0.0000 
     89 N          40.7395   25.3705   21.3990 N.am      2 SEC2        0.0000 
     90 N          41.1560   26.3010   22.3790 N.am     10 SEL2        0.0000 
     91 N          40.3230   24.4400   20.4190 N.am      6 SEP2        0.0000 
     92 CA         42.2878   37.9698   21.3468 C.3       4 GLC5        0.0000 
     93 CA         41.7590   37.6630   19.4220 C.3       8 GLP5        0.0000 
     94 CA         44.5598   39.3993   21.6103 C.3       4 GLC5        0.0000 
     95 CA         43.4020   38.6060   22.9000 C.3      12 GLL5        0.0000 
     96 CA         45.3670   39.7750   19.7850 C.3       8 GLP5        0.0000 
     97 CA         43.0072   40.3055   30.1408 C.3       4 GLC5        0.0000 
     98 CA         43.4470   41.1120   28.2260 C.3      12 GLL5        0.0000 
     99 CA         42.7070   38.9870   31.6020 C.3       8 GLP5        0.0000 
    100 CA         41.2919   40.6162   27.9744 C.3       4 GLC5        0.0000 
    101 CA         37.9455   34.5892   24.5865 C.3       4 GLC5        0.0000 
    102 CA         36.5040   36.0700   24.7970 C.3       8 GLP5        0.0000 
    103 CA         42.2067   31.8025   25.6405 C.3       4 GLC5        0.0000 
    104 CA         44.0970   31.3340   24.9780 C.3       8 GLP5        0.0000 
    105 CA         38.4039   27.1420   24.2488 C.3       4 GLC5        0.0000 
    106 CA         40.2800   26.8340   24.9560 C.3      12 GLL5        0.0000 
    107 CA         36.5760   26.6020   23.9240 C.3       8 GLP5        0.0000 
    108 CA         39.6115   27.1917   28.1840 C.3       4 GLC5        0.0000 
    109 CA         39.8240   27.1210   26.2570 C.3      12 GLL5        0.0000 
    110 CA         39.5740   26.6100   29.9530 C.3       8 GLP5        0.0000 
    111 CA         37.8540   27.2602   25.8820 C.3       4 GLC5        0.0000 
    112 CA         36.0590   26.7470   25.3490 C.3       8 GLP5        0.0000 
@<TRIPOS>BOND
@<TRIPOS>SUBSTRUCTURE
     1 ALC1       10 GROUP        1 X    ALC  0     ROOT ALC X 1
     2 SEC2        1 GROUP        1 X    SEC  0     **** SEC X 2
     3 LYC4       55 GROUP        1 X    LYC  0     **** LYC X 4
     4 GLC5        7 GROUP        1 X    GLC  0     **** GLC X 6
     5 ALP1       12 GROUP        1 Y    ALP  0     ROOT ALP Y 8
     6 SEP2        3 GROUP        1 Y    SEP  0     **** SEP Y 9
     7 LYP4       57 GROUP        1 Y    LYP  0     **** LYP Y 11
     8 GLP5        9 GROUP        1 Y    GLP  0     **** GLP Y 13
     9 ALL1       11 GROUP        1 Z    ALL  0     ROOT ALL Z 15
    10 SEL2        2 GROUP        1 Z    SEL  0     **** SEL Z 16
    11 LYL4       56 GROUP        1 Z    LYL  0     **** LYL Z 18
    12 GLL5        8 GROUP        1 Z    GLL  0     **** GLL Z 20
@<TRIPOS>SET

