#    Name: 2b69_NAD_1_ligand
#    Modification time : Mon Mar 24 20:19:20 2014

@<TRIPOS>MOLECULE
2b69_NAD_1_ligand
   70    74     1     0     0
SMALL
NO_CHARGES


@<TRIPOS>ATOM
      1 PA         43.5870   34.8200   22.0960 P.3       1 NAD800      0.0000 
      2 O1A        44.8630   34.9880   22.8420 O.co2     1 NAD800      0.0000 
      3 O2A        43.6760   34.9650   20.6440 O.co2     1 NAD800      0.0000 
      4 O5B        42.4260   35.8130   22.5760 O.3       1 NAD800      0.0000 
      5 C5B        42.4470   36.4490   23.8530 C.3       1 NAD800      0.0000 
      6 C4B        42.2310   37.9470   23.6430 C.3       1 NAD800      0.0000 
      7 O4B        42.1090   38.5870   24.9060 O.3       1 NAD800      0.0000 
      8 C3B        43.4020   38.6060   22.9000 C.3       1 NAD800      0.0000 
      9 O3B        42.9400   39.3900   21.8120 O.3       1 NAD800      0.0000 
     10 C2B        44.1030   39.4410   23.9710 C.3       1 NAD800      0.0000 
     11 O2B        44.8240   40.5860   23.5040 O.3       1 NAD800      0.0000 
     12 C1B        42.9240   39.7740   24.8900 C.3       1 NAD800      0.0000 
     13 N9A        43.3250   40.0930   26.2650 N.pl3     1 NAD800      0.0000 
     14 C8A        44.1770   39.3920   27.0920 C.2       1 NAD800      0.0000 
     15 N7A        44.2520   40.0050   28.2990 N.2       1 NAD800      0.0000 
     16 C5A        43.4470   41.1120   28.2260 C.ar      1 NAD800      0.0000 
     17 C6A        43.1680   42.1360   29.1330 C.ar      1 NAD800      0.0000 
     18 N6A        43.6690   42.1690   30.3690 N.pl3     1 NAD800      0.0000 
     19 N1A        42.2910   43.1370   28.7570 N.ar      1 NAD800      0.0000 
     20 C2A        41.7250   43.1500   27.4930 C.ar      1 NAD800      0.0000 
     21 N3A        42.0100   42.1730   26.5680 N.ar      1 NAD800      0.0000 
     22 C4A        42.8640   41.1750   26.9500 C.ar      1 NAD800      0.0000 
     23 O3         43.0300   33.3500   22.4590 O.3       1 NAD800      0.0000 
     24 PN         41.6340   32.5810   22.0470 P.3       1 NAD800      0.0000 
     25 O1N        42.0330   31.2070   21.7050 O.co2     1 NAD800      0.0000 
     26 O2N        40.8350   33.4060   21.0910 O.co2     1 NAD800      0.0000 
     27 O5D        40.8220   32.4900   23.4270 O.3       1 NAD800      0.0000 
     28 C5D        39.6850   33.2980   23.6930 C.3       1 NAD800      0.0000 
     29 C4D        39.0890   32.9190   25.0590 C.3       1 NAD800      0.0000 
     30 O4D        38.6020   31.5830   25.0220 O.3       1 NAD800      0.0000 
     31 C3D        40.1110   32.9880   26.1970 C.3       1 NAD800      0.0000 
     32 O3D        39.4910   33.4910   27.3740 O.3       1 NAD800      0.0000 
     33 C2D        40.5220   31.5540   26.4090 C.3       1 NAD800      0.0000 
     34 O2D        40.9880   31.3290   27.7340 O.3       1 NAD800      0.0000 
     35 C1D        39.2260   30.8160   26.0410 C.3       1 NAD800      0.0000 
     36 N1N        39.5570   29.4340   25.6340 N.pl3     1 NAD800      0.0000 
     37 C2N        40.0010   29.1730   24.3650 C.ar      1 NAD800      0.0000 
     38 C3N        40.3660   27.8870   24.0170 C.ar      1 NAD800      0.0000 
     39 C7N        40.8110   27.6010   22.6240 C.2       1 NAD800      0.0000 
     40 O7N        41.1560   26.3010   22.3790 O.2       1 NAD800      0.0000 
     41 N7N        40.8610   28.5070   21.6490 N.am      1 NAD800      0.0000 
     42 C4N        40.2800   26.8340   24.9560 C.ar      1 NAD800      0.0000 
     43 C5N        39.8240   27.1210   26.2570 C.ar      1 NAD800      0.0000 
     44 C6N        39.4740   28.4260   26.5730 C.ar      1 NAD800      0.0000 
     45 H          43.4031   36.3165   24.3592 H         1 NAD800      0.0000 
     46 H          41.6523   36.0843   24.5036 H         1 NAD800      0.0000 
     47 H          41.3394   38.0888   23.0532 H         1 NAD800      0.0000 
     48 H          44.0723   37.8210   22.6066 H         1 NAD800      0.0000 
     49 H          44.7275   38.7437   24.5374 H         1 NAD800      0.0000 
     50 H          42.3760   40.5838   24.4482 H         1 NAD800      0.0000 
     51 H          44.6452   38.5847   26.8369 H         1 NAD800      0.0000 
     52 H          43.8147   41.2827   30.8086 H         1 NAD800      0.0000 
     53 H          43.8539   43.0771   30.7447 H         1 NAD800      0.0000 
     54 H          41.0687   43.9195   27.2411 H         1 NAD800      0.0000 
     55 H          38.8974   33.1625   22.9431 H         1 NAD800      0.0000 
     56 H          39.9354   34.3643   23.7294 H         1 NAD800      0.0000 
     57 H          38.2881   33.6084   25.2881 H         1 NAD800      0.0000 
     58 H          40.9389   33.5462   25.8736 H         1 NAD800      0.0000 
     59 H          41.2451   31.3175   25.6472 H         1 NAD800      0.0000 
     60 H          38.6216   30.8000   26.9421 H         1 NAD800      0.0000 
     61 H          40.0646   29.9306   23.6675 H         1 NAD800      0.0000 
     62 H          41.2200   28.1895   20.7713 H         1 NAD800      0.0000 
     63 H          40.5350   29.4231   21.8825 H         1 NAD800      0.0000 
     64 H          40.5422   25.8909   24.6954 H         1 NAD800      0.0000 
     65 H          39.7555   26.3762   26.9481 H         1 NAD800      0.0000 
     66 H          39.1444   28.6445   27.5331 H         1 NAD800      0.0000 
     67 H          42.3528   40.0858   22.2255 H         1 NAD800      0.0000 
     68 H          44.2265   41.3643   23.6969 H         1 NAD800      0.0000 
     69 H          38.5662   33.7452   27.0909 H         1 NAD800      0.0000 
     70 H          40.4032   31.8964   28.3138 H         1 NAD800      0.0000 
@<TRIPOS>BOND
     1    2    1 ar   
     2    3    1 ar   
     3    4    1 1    
     4   23    1 1    
     5    5    4 1    
     6    6    5 1    
     7   45    5 1    
     8   46    5 1    
     9    7    6 1    
    10    8    6 1    
    11   47    6 1    
    12   12    7 1    
    13    9    8 1    
    14   10    8 1    
    15   48    8 1    
    16   67    9 1    
    17   11   10 1    
    18   12   10 1    
    19   49   10 1    
    20   68   11 1    
    21   13   12 1    
    22   50   12 1    
    23   14   13 1    
    24   22   13 1    
    25   15   14 2    
    26   51   14 1    
    27   16   15 1    
    28   17   16 ar   
    29   22   16 ar   
    30   18   17 1    
    31   19   17 ar   
    32   52   18 1    
    33   53   18 1    
    34   20   19 ar   
    35   21   20 ar   
    36   54   20 1    
    37   22   21 ar   
    38   24   23 1    
    39   25   24 ar   
    40   26   24 ar   
    41   27   24 1    
    42   28   27 1    
    43   29   28 1    
    44   55   28 1    
    45   56   28 1    
    46   30   29 1    
    47   31   29 1    
    48   57   29 1    
    49   35   30 1    
    50   32   31 1    
    51   33   31 1    
    52   58   31 1    
    53   69   32 1    
    54   34   33 1    
    55   35   33 1    
    56   59   33 1    
    57   70   34 1    
    58   36   35 1    
    59   60   35 1    
    60   37   36 ar   
    61   44   36 ar   
    62   38   37 ar   
    63   61   37 1    
    64   39   38 1    
    65   42   38 ar   
    66   40   39 2    
    67   41   39 am   
    68   62   41 1    
    69   63   41 1    
    70   43   42 ar   
    71   64   42 1    
    72   44   43 ar   
    73   65   43 1    
    74   66   44 1    
@<TRIPOS>SUBSTRUCTURE
     1 NAD800      1 GROUP   
@<TRIPOS>SET

