#    Name: 1qbu_846_1_INTS_M
#    Modification time : Mon Mar 24 23:21:19 2014

@<TRIPOS>MOLECULE
1qbu_846_1_INTS_M
  101     0     9     0     0
SMALL
NO_CHARGES


@<TRIPOS>ATOM
      1 CA         -6.9800   13.7345   30.2800 C.3       3 GLC5        0.0000 
      2 CA         -9.1410   14.2310   30.1170 C.3       9 GLL5        0.0000 
      3 CA         -4.8190   13.2380   30.4430 C.3       6 GLP5        0.0000 
      4 CA        -10.5630   18.2350   30.6630 C.3       3 GLC5        0.0000 
      5 CA        -10.3490   17.4280   28.6090 C.3       9 GLL5        0.0000 
      6 CA        -10.7770   19.0420   32.7170 C.3       6 GLP5        0.0000 
      7 CA        -10.4555   18.3110   25.0650 C.3       3 GLC5        0.0000 
      8 CA        -10.0200   17.6840   27.1590 C.3       9 GLL5        0.0000 
      9 CA        -10.8910   18.9380   22.9710 C.3       6 GLP5        0.0000 
     10 CA         -6.3340   14.2805   25.6230 C.3       3 GLC5        0.0000 
     11 CA         -7.9940   15.1790   25.4800 C.3       9 GLL5        0.0000 
     12 CA         -4.6740   13.3820   25.7660 C.3       6 GLP5        0.0000 
     13 CA         -9.9180   10.2930   37.0770 C.3       3 GLC5        0.0000 
     14 CA        -12.0960   10.4150   37.3810 C.3       9 GLL5        0.0000 
     15 CA         -7.7400   10.1710   36.7730 C.3       6 GLP5        0.0000 
     16 CA        -14.7155   15.5015   29.3255 C.3       3 GLC5        0.0000 
     17 CA        -13.0500   14.5510   30.1050 C.3       9 GLL5        0.0000 
     18 CA        -16.3810   16.4520   28.5460 C.3       6 GLP5        0.0000 
     19 CA         -5.8425   20.5395   26.4915 C.3       3 GLC5        0.0000 
     20 CA         -5.8060   18.5480   25.9500 C.3       9 GLL5        0.0000 
     21 CA         -5.8790   22.5310   27.0330 C.3       6 GLP5        0.0000 
     22 CA         -2.0040   15.8075   27.3825 C.3       3 GLC5        0.0000 
     23 CA         -3.9840   16.5900   26.8310 C.3       9 GLL5        0.0000 
     24 CA         -0.0240   15.0250   27.9340 C.3       6 GLP5        0.0000 
     25 CA         -5.0760   16.1805   29.3950 C.3       3 GLC5        0.0000 
     26 CA         -5.2240   16.7320   27.4940 C.3       9 GLL5        0.0000 
     27 CA         -4.9280   15.6290   31.2960 C.3       6 GLP5        0.0000 
     28 CA         -8.5675   13.5560   21.5665 C.3       3 GLC5        0.0000 
     29 CA         -8.4800   15.2400   22.9400 C.3       9 GLL5        0.0000 
     30 CA         -8.6550   11.8720   20.1930 C.3       6 GLP5        0.0000 
     31 CA        -10.1805   13.1840   23.8250 C.3       3 GLC5        0.0000 
     32 CA         -9.8120   15.0370   23.6850 C.3       9 GLL5        0.0000 
     33 CA        -10.5490   11.3310   23.9650 C.3       6 GLP5        0.0000 
     34 CA        -11.1980   14.0760   22.3750 C.3       3 GLC5        0.0000 
     35 CA        -12.5840   13.1150   21.0650 C.3       6 GLP5        0.0000 
     36 CA        -11.6715   14.7265   24.3685 C.3       3 GLC5        0.0000 
     37 CA        -13.5310   14.4160   25.0520 C.3       6 GLP5        0.0000 
     38 O         -10.3780   12.1445   33.8605 O.2       1 ALC1        0.0000 
     39 O         -10.9260   13.0660   35.0450 O.2       7 ALL1        0.0000 
     40 O          -9.8300   11.2230   32.6760 O.2       4 ALP1        0.0000 
     41 N         -10.2470   10.3155   35.5145 N.am      2 SEC2        0.0000 
     42 N         -11.5000   10.9190   36.2370 N.am      8 SEL2        0.0000 
     43 N          -8.9940    9.7120   34.7920 N.am      5 SEP2        0.0000 
     44 N          -6.0810   13.6085   28.0115 N.am      2 SEC2        0.0000 
     45 N          -7.6190   14.0300   27.9240 N.am      8 SEL2        0.0000 
     46 N          -4.5430   13.1870   28.0990 N.am      5 SEP2        0.0000 
     47 N         -12.1720   18.8295   27.9470 N.am      2 SEC2        0.0000 
     48 N         -11.5760   18.0250   28.9640 N.am      8 SEL2        0.0000 
     49 N         -12.7680   19.6340   26.9300 N.am      5 SEP2        0.0000 
     50 O         -11.4770   19.4920   28.9780 O.2       1 ALC1        0.0000 
     51 O         -11.5760   18.0250   28.9640 O.2       7 ALL1        0.0000 
     52 O         -11.3780   20.9590   28.9920 O.2       4 ALP1        0.0000 
     53 O         -10.5420   19.0410   29.2940 O.2       1 ALC1        0.0000 
     54 O          -9.5080   20.0570   29.6240 O.2       4 ALP1        0.0000 
     55 N         -11.3875   19.3485   26.8960 N.am      2 SEC2        0.0000 
     56 N         -10.0070   19.0630   26.8620 N.am      8 SEL2        0.0000 
     57 O         -10.6925   20.0110   27.9270 O.2       1 ALC1        0.0000 
     58 O         -10.0070   19.0630   26.8620 O.2       7 ALL1        0.0000 
     59 O          -9.7575   19.5600   28.2430 O.2       1 ALC1        0.0000 
     60 N         -12.0160   16.5165   35.3495 N.am      2 SEC2        0.0000 
     61 N         -11.1540   15.1220   35.9060 N.am      8 SEL2        0.0000 
     62 N         -12.8780   17.9110   34.7930 N.am      5 SEP2        0.0000 
     63 N         -11.3010   16.6645   36.5045 N.am      2 SEC2        0.0000 
     64 N         -11.4480   18.2070   37.1030 N.am      5 SEP2        0.0000 
     65 CA        -13.1970   14.8640   37.1355 C.3       3 GLC5        0.0000 
     66 CA        -12.2660   12.8630   37.5590 C.3       9 GLL5        0.0000 
     67 CA        -14.1280   16.8650   36.7120 C.3       6 GLP5        0.0000 
     68 CA        -10.1325   12.6435   37.7120 C.3       3 GLC5        0.0000 
     69 CA         -7.9990   12.4240   37.8650 C.3       6 GLP5        0.0000 
     70 CA         -8.8695   12.6420   30.5015 C.3       3 GLC5        0.0000 
     71 CA         -9.1650   14.8710   31.5030 C.3       9 GLL5        0.0000 
     72 CA         -8.5860   10.7330   30.1930 C.3       6 GLP5        0.0000 
     73 CA        -10.1595   17.2653   33.3335 C.3       3 GLC5        0.0000 
     74 CA         -9.1170   16.0360   34.0690 C.3       9 GLL5        0.0000 
     75 CA         -7.8790   14.5903   34.9085 C.3       3 GLC5        0.0000 
     76 CA         -6.2160   13.6920   35.8670 C.3       6 GLP5        0.0000 
     77 CA         -6.9035   16.8145   34.1765 C.3       3 GLC5        0.0000 
     78 CA         -5.1030   17.3360   34.7910 C.3       6 GLP5        0.0000 
     79 CA         -9.5407   17.6493   32.5670 C.3       3 GLC5        0.0000 
     80 CA         -8.2910   16.5500   33.0550 C.3       9 GLL5        0.0000 
     81 CA         -6.9718   17.8903   32.0920 C.3       3 GLC5        0.0000 
     82 CA         -5.6390   19.5240   31.7670 C.3       6 GLP5        0.0000 
     83 CA         -6.7221   15.8063   31.8220 C.3       3 GLC5        0.0000 
     84 CA        -10.5412   11.5180   29.6178 C.3       3 GLC5        0.0000 
     85 CA        -12.1790   12.7890   28.6390 C.3       9 GLL5        0.0000 
     86 CA        -14.4278   11.7325   28.8498 C.3       3 GLC5        0.0000 
     87 CA        -16.3590   11.1620   28.6570 C.3       6 GLP5        0.0000 
     88 CA        -12.7993   14.0749   26.8246 C.3       3 GLC5        0.0000 
     89 CA        -14.9898   12.0305   29.6988 C.3       3 GLC5        0.0000 
     90 CA        -13.6810   13.5810   30.9060 C.3       9 GLL5        0.0000 
     91 CA         -4.3592   18.8855   27.3972 C.3       3 GLC5        0.0000 
     92 CA         -6.1330   17.7080   27.0430 C.3       9 GLL5        0.0000 
     93 CA         -2.7490   19.6430   28.2980 C.3       6 GLP5        0.0000 
     94 CA         -3.4325   18.7780   26.9062 C.3       3 GLC5        0.0000 
     95 CA         -4.5720   18.4030   25.2950 C.3       9 GLL5        0.0000 
     96 CA         -3.6765   18.1520   27.7302 C.3       3 GLC5        0.0000 
     97 CA         -5.9168   18.5968   28.8735 C.3       3 GLC5        0.0000 
     98 CA         -5.8150   19.9420   30.3170 C.3       6 GLP5        0.0000 
     99 CA         -4.5985   15.1256   26.3271 C.3       3 GLC5        0.0000 
    100 CA        -10.0470   17.1196   23.3133 C.3       3 GLC5        0.0000 
    101 CA         -8.7080   15.8910   24.3120 C.3       9 GLL5        0.0000 
@<TRIPOS>BOND
@<TRIPOS>SUBSTRUCTURE
     1 ALC1       38 GROUP        1 X    ALC  0     ROOT ALC X 1
     2 SEC2       41 GROUP        1 X    SEC  0     **** SEC X 2
     3 GLC5        1 GROUP        1 X    GLC  0     **** GLC X 6
     4 ALP1       40 GROUP        1 Y    ALP  0     ROOT ALP Y 8
     5 SEP2       43 GROUP        1 Y    SEP  0     **** SEP Y 9
     6 GLP5        3 GROUP        1 Y    GLP  0     **** GLP Y 13
     7 ALL1       39 GROUP        1 Z    ALL  0     ROOT ALL Z 15
     8 SEL2       42 GROUP        1 Z    SEL  0     **** SEL Z 16
     9 GLL5        2 GROUP        1 Z    GLL  0     **** GLL Z 20
@<TRIPOS>SET

