#    Name: 1qbu_846_1_ligand
#    Modification time : Mon Mar 24 23:21:19 2014

@<TRIPOS>MOLECULE
1qbu_846_1_ligand
   79    84     1     0     0
SMALL
NO_CHARGES


@<TRIPOS>ATOM
      1 C1         -8.4310   14.9430   27.8830 C.2       1 846300      0.0000 
      2 C2         -9.1410   14.2310   30.1170 C.3       1 846300      0.0000 
      3 C3        -10.5030   15.9410   28.9030 C.3       1 846300      0.0000 
      4 C4        -10.3490   17.4280   28.6090 C.3       1 846300      0.0000 
      5 C5        -10.0200   17.6840   27.1590 C.3       1 846300      0.0000 
      6 C6         -8.6250   17.2010   26.8480 C.3       1 846300      0.0000 
      7 C7         -7.9940   15.1790   25.4800 C.3       1 846300      0.0000 
      8 C20        -9.1650   14.8710   31.5030 C.ar      1 846300      0.0000 
      9 C21       -10.0010   14.3590   32.5370 C.ar      1 846300      0.0000 
     10 C22        -9.9670   14.9410   33.8310 C.ar      1 846300      0.0000 
     11 C23        -9.1170   16.0360   34.0690 C.ar      1 846300      0.0000 
     12 C24        -8.2910   16.5500   33.0550 C.ar      1 846300      0.0000 
     13 C25        -8.3180   15.9630   31.7790 C.ar      1 846300      0.0000 
     14 C26       -10.7490   14.4020   35.0090 C.2       1 846300      0.0000 
     15 C27       -11.5060   12.2730   36.1660 C.2       1 846300      0.0000 
     16 C28       -12.0960   10.4150   37.3810 C.2       1 846300      0.0000 
     17 C29       -12.6050   11.3770   38.2760 C.2       1 846300      0.0000 
     18 C31       -11.6160   15.2050   28.1360 C.3       1 846300      0.0000 
     19 C32       -12.2960   14.1520   28.9750 C.ar      1 846300      0.0000 
     20 C33       -12.1790   12.7890   28.6390 C.ar      1 846300      0.0000 
     21 C34       -12.8140   11.8170   29.4460 C.ar      1 846300      0.0000 
     22 C35       -13.5600   12.2170   30.5750 C.ar      1 846300      0.0000 
     23 C36       -13.6810   13.5810   30.9060 C.ar      1 846300      0.0000 
     24 C37       -13.0500   14.5510   30.1050 C.ar      1 846300      0.0000 
     25 C61        -7.4930   17.8340   27.6890 C.3       1 846300      0.0000 
     26 C62        -6.1330   17.7080   27.0430 C.ar      1 846300      0.0000 
     27 C63        -5.8060   18.5480   25.9500 C.ar      1 846300      0.0000 
     28 C64        -4.5720   18.4030   25.2950 C.ar      1 846300      0.0000 
     29 C65        -3.6600   17.4230   25.7340 C.ar      1 846300      0.0000 
     30 C66        -3.9840   16.5900   26.8310 C.ar      1 846300      0.0000 
     31 C67        -5.2240   16.7320   27.4940 C.ar      1 846300      0.0000 
     32 C70        -8.7080   15.8910   24.3120 C.3       1 846300      0.0000 
     33 C71        -8.4800   15.2400   22.9400 C.3       1 846300      0.0000 
     34 C72        -9.8120   15.0370   23.6850 C.3       1 846300      0.0000 
     35 N2         -9.2970   15.0920   28.9270 N.am      1 846300      0.0000 
     36 N7         -8.4300   15.7430   26.7810 N.am      1 846300      0.0000 
     37 N26       -10.9260   13.0660   35.0450 N.am      1 846300      0.0000 
     38 N27       -11.5000   10.9190   36.2370 N.2       1 846300      0.0000 
     39 O1         -7.6190   14.0300   27.9240 O.2       1 846300      0.0000 
     40 O4        -11.5760   18.0250   28.9640 O.3       1 846300      0.0000 
     41 O5        -10.0070   19.0630   26.8620 O.3       1 846300      0.0000 
     42 O26       -11.1540   15.1220   35.9060 O.2       1 846300      0.0000 
     43 S29       -12.2660   12.8630   37.5590 S.3       1 846300      0.0000 
     44 H          -9.9343   13.4247   30.1025 H         1 846300      0.0000 
     45 H          -8.1774   13.6447   30.0313 H         1 846300      0.0000 
     46 H         -10.9043   15.8976   30.0139 H         1 846300      0.0000 
     47 H          -9.5455   17.8007   29.2288 H         1 846300      0.0000 
     48 H         -10.7041   17.1506   26.5319 H         1 846300      0.0000 
     49 H          -8.3944   17.5840   25.7734 H         1 846300      0.0000 
     50 H          -6.9177   15.3042   25.3488 H         1 846300      0.0000 
     51 H          -8.2289   14.1146   25.4251 H         1 846300      0.0000 
     52 H         -10.6219   13.5756   32.3451 H         1 846300      0.0000 
     53 H          -9.1000   16.4693   35.0051 H         1 846300      0.0000 
     54 H          -7.6776   17.3420   33.2439 H         1 846300      0.0000 
     55 H          -7.7120   16.3339   31.0346 H         1 846300      0.0000 
     56 H         -12.1661    9.4401   37.5694 H         1 846300      0.0000 
     57 H         -13.0177   11.3729   39.0463 H         1 846300      0.0000 
     58 H         -11.1764   14.7411   27.2445 H         1 846300      0.0000 
     59 H         -12.3538   15.9435   27.7993 H         1 846300      0.0000 
     60 H         -11.6425   12.5039   27.8228 H         1 846300      0.0000 
     61 H         -12.7321   10.8272   29.2111 H         1 846300      0.0000 
     62 H         -14.0173   11.5085   31.1585 H         1 846300      0.0000 
     63 H         -14.2235   13.8636   31.7224 H         1 846300      0.0000 
     64 H         -13.1336   15.5419   30.3353 H         1 846300      0.0000 
     65 H          -7.4815   17.3481   28.6742 H         1 846300      0.0000 
     66 H          -7.7314   18.8948   27.8464 H         1 846300      0.0000 
     67 H          -6.4727   19.2589   25.6417 H         1 846300      0.0000 
     68 H          -4.3353   19.0038   24.5046 H         1 846300      0.0000 
     69 H          -2.7607   17.3112   25.2604 H         1 846300      0.0000 
     70 H          -3.3165   15.8813   27.1453 H         1 846300      0.0000 
     71 H          -5.4537   16.1375   28.2840 H         1 846300      0.0000 
     72 H          -8.9078   16.7709   24.2039 H         1 846300      0.0000 
     73 H          -7.9623   14.4649   23.0801 H         1 846300      0.0000 
     74 H          -8.6252   15.9041   22.2871 H         1 846300      0.0000 
     75 H         -10.4403   15.6248   23.2973 H         1 846300      0.0000 
     76 H          -9.7774   14.1855   24.0904 H         1 846300      0.0000 
     77 H         -10.6374   12.4651   34.2086 H         1 846300      0.0000 
     78 H         -11.3312   18.9259   29.3224 H         1 846300      0.0000 
     79 H          -9.9201   19.5177   27.7484 H         1 846300      0.0000 
@<TRIPOS>BOND
     1   35    1 am   
     2   36    1 am   
     3   39    1 2    
     4    8    2 1    
     5   35    2 1    
     6   44    2 1    
     7   45    2 1    
     8    4    3 1    
     9   18    3 1    
    10   35    3 1    
    11   46    3 1    
    12    5    4 1    
    13   40    4 1    
    14   47    4 1    
    15    6    5 1    
    16   41    5 1    
    17   48    5 1    
    18   25    6 1    
    19   36    6 1    
    20   49    6 1    
    21   32    7 1    
    22   36    7 1    
    23   50    7 1    
    24   51    7 1    
    25    9    8 ar   
    26   13    8 ar   
    27   10    9 ar   
    28   52    9 1    
    29   11   10 ar   
    30   14   10 1    
    31   12   11 ar   
    32   53   11 1    
    33   13   12 ar   
    34   54   12 1    
    35   55   13 1    
    36   37   14 am   
    37   42   14 2    
    38   37   15 1    
    39   38   15 2    
    40   43   15 1    
    41   17   16 2    
    42   38   16 1    
    43   56   16 1    
    44   43   17 1    
    45   57   17 1    
    46   19   18 1    
    47   58   18 1    
    48   59   18 1    
    49   20   19 ar   
    50   24   19 ar   
    51   21   20 ar   
    52   60   20 1    
    53   22   21 ar   
    54   61   21 1    
    55   23   22 ar   
    56   62   22 1    
    57   24   23 ar   
    58   63   23 1    
    59   64   24 1    
    60   26   25 1    
    61   65   25 1    
    62   66   25 1    
    63   27   26 ar   
    64   31   26 ar   
    65   28   27 ar   
    66   67   27 1    
    67   29   28 ar   
    68   68   28 1    
    69   30   29 ar   
    70   69   29 1    
    71   31   30 ar   
    72   70   30 1    
    73   71   31 1    
    74   33   32 1    
    75   34   32 1    
    76   72   32 1    
    77   34   33 1    
    78   73   33 1    
    79   74   33 1    
    80   75   34 1    
    81   76   34 1    
    82   77   37 1    
    83   78   40 1    
    84   79   41 1    
@<TRIPOS>SUBSTRUCTURE
     1 846300      1 GROUP   
@<TRIPOS>SET

