#    Name: 3lu6_IMX_1_INTS_M
#    Modification time : Mon Mar 24 22:18:14 2014

@<TRIPOS>MOLECULE
3lu6_IMX_1_INTS_M
   58     0     9     0     0
SMALL
NO_CHARGES


@<TRIPOS>ATOM
      1 CA         15.4690    9.4460   22.4960 C.3       3 GLC5        0.0000 
      2 CA         13.6980    8.8380   21.5730 C.3       9 GLL5        0.0000 
      3 CA         17.2400   10.0540   23.4190 C.3       6 GLP5        0.0000 
      4 CA          9.5255   13.5355   18.4410 C.3       3 GLC5        0.0000 
      5 CA         10.7210   12.7550   18.6230 C.3       9 GLL5        0.0000 
      6 CA          8.3300   14.3160   18.2590 C.3       6 GLP5        0.0000 
      7 CA         12.2785   13.5720   18.5585 C.3       3 GLC5        0.0000 
      8 CA         13.8360   14.3890   18.4940 C.3       6 GLP5        0.0000 
      9 CA         16.8870    8.1525   23.7055 C.3       3 GLC5        0.0000 
     10 CA         16.5340    6.2510   23.9920 C.3       9 GLL5        0.0000 
     11 CA         19.3605    6.0720   26.1990 C.3       3 GLC5        0.0000 
     12 CA         18.3110    4.7290   25.0450 C.3       9 GLL5        0.0000 
     13 CA         20.4100    7.4150   27.3530 C.3       6 GLP5        0.0000 
     14 CA         13.9680    2.7655   24.6470 C.3       3 GLC5        0.0000 
     15 CA         14.2930    3.5080   22.7810 C.3       9 GLL5        0.0000 
     16 CA         13.6430    2.0230   26.5130 C.3       6 GLP5        0.0000 
     17 NZ         11.4760    4.4840   21.5320 N.4       2 LYC4        0.0000 
     18 NZ         12.2620    3.0410   21.7390 N.4       8 LYL4        0.0000 
     19 NZ         10.6900    5.9270   21.3250 N.4       5 LYP4        0.0000 
     20 N          11.4760    4.4840   21.5320 N.am      1 SEC2        0.0000 
     21 N          12.2620    3.0410   21.7390 N.am      7 SEL2        0.0000 
     22 N          10.6900    5.9270   21.3250 N.am      4 SEP2        0.0000 
     23 N          11.7360    3.3610   20.3475 N.am      1 SEC2        0.0000 
     24 N          11.2100    3.6810   18.9560 N.am      4 SEP2        0.0000 
     25 NZ         12.0910    5.2375   20.9950 N.4       2 LYC4        0.0000 
     26 NZ         13.4920    4.5480   20.6650 N.4       8 LYL4        0.0000 
     27 N          12.0910    5.2375   20.9950 N.am      1 SEC2        0.0000 
     28 N          13.4920    4.5480   20.6650 N.am      7 SEL2        0.0000 
     29 N          12.3510    4.1145   19.8105 N.am      1 SEC2        0.0000 
     30 CA         14.1695   11.2010   18.1167 C.3       3 GLC5        0.0000 
     31 CA         13.1740    9.6940   19.6370 C.3       9 GLL5        0.0000 
     32 CA         15.2250   12.5460   17.2670 C.3       6 GLP5        0.0000 
     33 CA         10.1435   12.7248   20.1665 C.3       3 GLC5        0.0000 
     34 CA         11.5120   11.7580   18.9540 C.3       9 GLL5        0.0000 
     35 CA          8.7150   13.8530   20.7090 C.3       6 GLP5        0.0000 
     36 CA         10.5440    9.9473   19.1015 C.3       3 GLC5        0.0000 
     37 CA         11.6320   11.4350   20.2940 C.3       9 GLL5        0.0000 
     38 CA          9.5160    8.2980   18.5790 C.3       6 GLP5        0.0000 
     39 CA         11.0732    9.4210   18.3502 C.3       3 GLC5        0.0000 
     40 CA         12.2070   11.0700   17.9470 C.3       9 GLL5        0.0000 
     41 CA         13.5423   11.9800   17.8588 C.3       3 GLC5        0.0000 
     42 CA         15.2660    3.1630   21.0085 C.3       3 GLC5        0.0000 
     43 CA         15.5270    4.4180   22.6590 C.3       9 GLL5        0.0000 
     44 CA         15.6220    2.3630   19.2970 C.3       6 GLP5        0.0000 
     45 CA         18.8860    4.6553   23.3565 C.3       3 GLC5        0.0000 
     46 CA         19.1950    5.2230   21.6270 C.3       6 GLP5        0.0000 
     47 CA         18.4005    1.0410   25.5140 C.3       3 GLC5        0.0000 
     48 CA         18.8430    3.4460   25.1270 C.3       9 GLL5        0.0000 
     49 CA         18.2330   -0.8470   26.2720 C.3       6 GLP5        0.0000 
     50 CA         18.4722    3.8782   22.7980 C.3       3 GLC5        0.0000 
     51 CA         18.2930    2.4120   24.3850 C.3       9 GLL5        0.0000 
     52 CA         11.7795    8.4585   20.7512 C.3       3 GLC5        0.0000 
     53 CA         12.8010    9.8470   21.7850 C.3       9 GLL5        0.0000 
     54 CA         10.5220    7.2230   20.6060 C.3       6 GLP5        0.0000 
     55 CA         17.7639    5.0289   22.5638 C.3       3 GLC5        0.0000 
     56 CA         16.4551    2.6976   25.5843 C.3       3 GLC5        0.0000 
     57 CA         17.2060    2.6550   23.5530 C.3       9 GLL5        0.0000 
     58 CA         15.0850    2.1550   26.9400 C.3       6 GLP5        0.0000 
@<TRIPOS>BOND
@<TRIPOS>SUBSTRUCTURE
     1 SEC2       20 GROUP        1 X    SEC  0     ROOT SEC X 2
     2 LYC4       17 GROUP        1 X    LYC  0     **** LYC X 4
     3 GLC5        1 GROUP        1 X    GLC  0     **** GLC X 6
     4 SEP2       22 GROUP        1 Y    SEP  0     ROOT SEP Y 9
     5 LYP4       19 GROUP        1 Y    LYP  0     **** LYP Y 11
     6 GLP5        3 GROUP        1 Y    GLP  0     **** GLP Y 13
     7 SEL2       21 GROUP        1 Z    SEL  0     ROOT SEL Z 16
     8 LYL4       18 GROUP        1 Z    LYL  0     **** LYL Z 18
     9 GLL5        2 GROUP        1 Z    GLL  0     **** GLL Z 20
@<TRIPOS>SET

