#    Name: 3lu6_IMX_1_ligand
#    Modification time : Mon Mar 24 22:18:15 2014

@<TRIPOS>MOLECULE
3lu6_IMX_1_ligand
   42    45     1     0     0
SMALL
NO_CHARGES


@<TRIPOS>ATOM
      1 C1         15.2390    5.8010   23.2970 C.3       1 IMX586      0.0000 
      2 C2         12.4750   10.3970   20.5910 C.ar      1 IMX586      0.0000 
      3 C3         13.1740    9.6940   19.6370 C.ar      1 IMX586      0.0000 
      4 C4         11.6320   11.4350   20.2940 C.ar      1 IMX586      0.0000 
      5 C5         13.0540   10.0180   18.2960 C.ar      1 IMX586      0.0000 
      6 C6         11.5120   11.7580   18.9540 C.ar      1 IMX586      0.0000 
      7 C7         12.2070   11.0700   17.9470 C.ar      1 IMX586      0.0000 
      8 N8         13.9060    8.7430   20.2480 N.pl3     1 IMX586      0.0000 
      9 C9         13.6980    8.8380   21.5730 C.2       1 IMX586      0.0000 
     10 C10        12.8010    9.8470   21.7850 C.2       1 IMX586      0.0000 
     11 F11        10.7210   12.7550   18.6230 F         1 IMX586      0.0000 
     12 C12        14.2350    7.9930   22.6200 C.2       1 IMX586      0.0000 
     13 O13        14.1730    8.4030   23.7550 O.2       1 IMX586      0.0000 
     14 N14        14.7290    6.7400   22.3010 N.am      1 IMX586      0.0000 
     15 C15        16.5340    6.2510   23.9920 C.3       1 IMX586      0.0000 
     16 C16        17.2290    4.9570   24.2190 C.ar      1 IMX586      0.0000 
     17 C17        16.6890    3.9380   23.4800 C.ar      1 IMX586      0.0000 
     18 C18        15.5270    4.4180   22.6590 C.3       1 IMX586      0.0000 
     19 C19        18.3110    4.7290   25.0450 C.ar      1 IMX586      0.0000 
     20 C20        18.8430    3.4460   25.1270 C.ar      1 IMX586      0.0000 
     21 C21        18.2930    2.4120   24.3850 C.ar      1 IMX586      0.0000 
     22 C22        17.2060    2.6550   23.5530 C.ar      1 IMX586      0.0000 
     23 C23        14.2930    3.5080   22.7810 C.3       1 IMX586      0.0000 
     24 C24        13.2770    3.6910   21.6930 C.2       1 IMX586      0.0000 
     25 O26        12.2620    3.0410   21.7390 O.co2     1 IMX586      0.0000 
     26 O25        13.4920    4.5480   20.6650 O.co2     1 IMX586      0.0000 
     27 H          14.4954    5.6227   24.0801 H         1 IMX586      0.0000 
     28 H          11.1264   11.9377   21.0041 H         1 IMX586      0.0000 
     29 H          13.5660    9.5072   17.5833 H         1 IMX586      0.0000 
     30 H          12.0909   11.3401   16.9692 H         1 IMX586      0.0000 
     31 H          14.4813    8.1031   19.8088 H         1 IMX586      0.0000 
     32 H          12.4609   10.1171   22.6449 H         1 IMX586      0.0000 
     33 H          14.7516    6.4212   21.3090 H         1 IMX586      0.0000 
     34 H          16.2891    6.7179   24.9086 H         1 IMX586      0.0000 
     35 H          17.0833    6.8678   23.3317 H         1 IMX586      0.0000 
     36 H          15.8110    4.5647   21.6650 H         1 IMX586      0.0000 
     37 H          18.7207    5.4912   25.5927 H         1 IMX586      0.0000 
     38 H          19.6498    3.2656   25.7429 H         1 IMX586      0.0000 
     39 H          18.6881    1.4640   24.4489 H         1 IMX586      0.0000 
     40 H          16.7959    1.8962   23.0040 H         1 IMX586      0.0000 
     41 H          13.8227    3.6945   23.7651 H         1 IMX586      0.0000 
     42 H          14.6392    2.4571   22.7944 H         1 IMX586      0.0000 
@<TRIPOS>BOND
     1   14    1 1    
     2   15    1 1    
     3   18    1 1    
     4   27    1 1    
     5    3    2 ar   
     6    4    2 ar   
     7   10    2 1    
     8    5    3 ar   
     9    8    3 1    
    10    6    4 ar   
    11   28    4 1    
    12    7    5 ar   
    13   29    5 1    
    14    7    6 ar   
    15   11    6 1    
    16   30    7 1    
    17    9    8 1    
    18   31    8 1    
    19   10    9 2    
    20   12    9 1    
    21   32   10 1    
    22   13   12 2    
    23   14   12 am   
    24   33   14 1    
    25   16   15 1    
    26   34   15 1    
    27   35   15 1    
    28   17   16 ar   
    29   19   16 ar   
    30   18   17 1    
    31   22   17 ar   
    32   23   18 1    
    33   36   18 1    
    34   20   19 ar   
    35   37   19 1    
    36   21   20 ar   
    37   38   20 1    
    38   22   21 ar   
    39   39   21 1    
    40   40   22 1    
    41   24   23 1    
    42   41   23 1    
    43   42   23 1    
    44   25   24 ar   
    45   26   24 ar   
@<TRIPOS>SUBSTRUCTURE
     1 IMX586      1 GROUP   
@<TRIPOS>SET

