#    Name: 1in5_ADP_1_INTS_M
#    Modification time : Tue Mar 25 07:15:48 2014

@<TRIPOS>MOLECULE
1in5_ADP_1_INTS_M
   62     0    12     0     0
SMALL
NO_CHARGES


@<TRIPOS>ATOM
      1 NZ         66.0705  -18.1185  -23.5055 N.4       3 LYC4        0.0000 
      2 NZ         65.4660  -19.1620  -24.3510 N.4      11 LYL4        0.0000 
      3 NZ         66.6750  -17.0750  -22.6600 N.4       7 LYP4        0.0000 
      4 N          65.6150  -20.5455  -23.5160 N.am      2 SEC2        0.0000 
      5 N          65.4660  -19.1620  -24.3510 N.am     10 SEL2        0.0000 
      6 N          65.7640  -21.9290  -22.6810 N.am      6 SEP2        0.0000 
      7 N          64.3840  -20.2810  -24.1140 N.am      2 SEC2        0.0000 
      8 N          63.3020  -21.4000  -23.8770 N.am      6 SEP2        0.0000 
      9 N          64.0070  -18.9565  -24.5305 N.am      2 SEC2        0.0000 
     10 N          62.5480  -18.7510  -24.7100 N.am      6 SEP2        0.0000 
     11 N          66.0705  -18.1185  -23.5055 N.am      2 SEC2        0.0000 
     12 N          66.6750  -17.0750  -22.6600 N.am      6 SEP2        0.0000 
     13 N          64.0450  -17.9590  -27.0190 N.am      2 SEC2        0.0000 
     14 N          65.4720  -18.3330  -26.7530 N.am     10 SEL2        0.0000 
     15 N          62.6180  -17.5850  -27.2850 N.am      6 SEP2        0.0000 
     16 N          65.0720  -17.8405  -28.0635 N.am      2 SEC2        0.0000 
     17 N          64.6720  -17.3480  -29.3740 N.am      6 SEP2        0.0000 
     18 N          67.7935  -20.4770  -24.8805 N.am      2 SEC2        0.0000 
     19 N          67.4440  -19.5920  -25.8300 N.am     10 SEL2        0.0000 
     20 N          68.1430  -21.3620  -23.9310 N.am      6 SEP2        0.0000 
     21 N          61.9855  -20.0545  -27.9905 N.am      2 SEC2        0.0000 
     22 N          63.1200  -20.8090  -27.4680 N.am     10 SEL2        0.0000 
     23 N          60.8510  -19.3000  -28.5130 N.am      6 SEP2        0.0000 
     24 N          61.9765  -21.4765  -27.8785 N.am      2 SEC2        0.0000 
     25 N          60.8330  -22.1440  -28.2890 N.am      6 SEP2        0.0000 
     26 N          64.3455  -21.0935  -25.0255 N.am      2 SEC2        0.0000 
     27 N          65.3890  -20.7870  -26.1740 N.am     10 SEL2        0.0000 
     28 CA         66.4555  -23.3605  -25.7150 C.3       4 GLC5        0.0000 
     29 CA         65.3150  -24.0200  -27.3580 C.3      12 GLL5        0.0000 
     30 CA         67.5960  -22.7010  -24.0720 C.3       8 GLP5        0.0000 
     31 CA         60.9370  -24.7255  -29.7605 C.3       4 GLC5        0.0000 
     32 CA         62.4420  -25.5010  -28.3600 C.3      12 GLL5        0.0000 
     33 CA         59.4320  -23.9500  -31.1610 C.3       8 GLP5        0.0000 
     34 CA         60.2335  -25.7420  -28.4160 C.3       4 GLC5        0.0000 
     35 CA         58.0250  -25.9830  -28.4720 C.3       8 GLP5        0.0000 
     36 CA         63.2555  -26.5475  -24.9190 C.3       4 GLC5        0.0000 
     37 CA         62.9230  -26.0250  -26.9250 C.3      12 GLL5        0.0000 
     38 CA         63.5880  -27.0700  -22.9130 C.3       8 GLP5        0.0000 
     39 CA         58.1255  -26.1400  -25.6205 C.3       4 GLC5        0.0000 
     40 CA         59.2940  -26.0990  -23.8260 C.3      12 GLL5        0.0000 
     41 CA         56.9570  -26.1810  -27.4150 C.3       8 GLP5        0.0000 
     42 CA         59.8350  -27.5930  -22.5480 C.3       4 GLC5        0.0000 
     43 CA         60.3760  -29.0870  -21.2700 C.3       8 GLP5        0.0000 
     44 O          57.9845  -25.8800  -21.6200 O.2       1 ALC1        0.0000 
     45 O          58.7060  -25.4630  -22.7830 O.2       9 ALL1        0.0000 
     46 O          57.2630  -26.2970  -20.4570 O.2       5 ALP1        0.0000 
     47 O          59.5360  -24.5425  -21.8390 O.2       1 ALC1        0.0000 
     48 O          60.3660  -23.6220  -20.8950 O.2       5 ALP1        0.0000 
     49 CA         58.1460  -27.0730  -26.4040 C.3       4 GLC5        0.0000 
     50 CA         59.3350  -27.9650  -25.3930 C.3      12 GLL5        0.0000 
     51 CA         60.2735  -29.4160  -24.5625 C.3       4 GLC5        0.0000 
     52 CA         61.2120  -30.8670  -23.7320 C.3       8 GLP5        0.0000 
     53 CA         59.5170  -26.1455  -26.9975 C.3       4 GLC5        0.0000 
     54 CA         61.0090  -26.3080  -25.5230 C.3      12 GLL5        0.0000 
     55 CA         62.3105  -27.9180  -26.3250 C.3       4 GLC5        0.0000 
     56 CA         63.6120  -29.5280  -27.1270 C.3       8 GLP5        0.0000 
     57 CA         66.5710  -25.2510  -26.6665 C.3       4 GLC5        0.0000 
     58 CA         64.8610  -25.1800  -27.9200 C.3      12 GLL5        0.0000 
     59 CA         68.0540  -25.9020  -25.6940 C.3       8 GLP5        0.0000 
     60 CA         63.1472  -27.6455  -27.3847 C.3       4 GLC5        0.0000 
     61 CA         62.0219  -26.5694  -23.8708 C.3       4 GLC5        0.0000 
     62 CA         60.5110  -25.5600  -24.4420 C.3      12 GLL5        0.0000 
@<TRIPOS>BOND
@<TRIPOS>SUBSTRUCTURE
     1 ALC1       44 GROUP        1 X    ALC  0     ROOT ALC X 1
     2 SEC2        4 GROUP        1 X    SEC  0     **** SEC X 2
     3 LYC4        1 GROUP        1 X    LYC  0     **** LYC X 4
     4 GLC5       28 GROUP        1 X    GLC  0     **** GLC X 6
     5 ALP1       46 GROUP        1 Y    ALP  0     ROOT ALP Y 8
     6 SEP2        6 GROUP        1 Y    SEP  0     **** SEP Y 9
     7 LYP4        3 GROUP        1 Y    LYP  0     **** LYP Y 11
     8 GLP5       30 GROUP        1 Y    GLP  0     **** GLP Y 13
     9 ALL1       45 GROUP        1 Z    ALL  0     ROOT ALL Z 15
    10 SEL2        5 GROUP        1 Z    SEL  0     **** SEL Z 16
    11 LYL4        2 GROUP        1 Z    LYL  0     **** LYL Z 18
    12 GLL5       29 GROUP        1 Z    GLL  0     **** GLL Z 20
@<TRIPOS>SET

