#    Name: 1in5_ADP_1_ligand
#    Modification time : Tue Mar 25 07:15:48 2014

@<TRIPOS>MOLECULE
1in5_ADP_1_ligand
   39    41     1     0     0
SMALL
NO_CHARGES


@<TRIPOS>ATOM
      1 PB         65.9050  -19.4100  -25.7360 P.3       1 ADP600      0.0000 
      2 O1B        65.4660  -19.1620  -24.3510 O.co2     1 ADP600      0.0000 
      3 O2B        65.4720  -18.3330  -26.7530 O.co2     1 ADP600      0.0000 
      4 O3B        67.4440  -19.5920  -25.8300 O.co2     1 ADP600      0.0000 
      5 PA         64.5030  -21.3590  -27.4350 P.3       1 ADP600      0.0000 
      6 O1A        63.1200  -20.8090  -27.4680 O.co2     1 ADP600      0.0000 
      7 O2A        65.2710  -21.0810  -28.6470 O.co2     1 ADP600      0.0000 
      8 O3A        65.3890  -20.7870  -26.1740 O.3       1 ADP600      0.0000 
      9 O5'        64.4950  -22.9140  -27.1690 O.3       1 ADP600      0.0000 
     10 C5'        65.3150  -24.0200  -27.3580 C.3       1 ADP600      0.0000 
     11 C4'        64.8610  -25.1800  -27.9200 C.3       1 ADP600      0.0000 
     12 O4'        64.2120  -25.7770  -26.8720 O.3       1 ADP600      0.0000 
     13 C3'        63.6700  -25.0440  -28.8990 C.3       1 ADP600      0.0000 
     14 O3'        64.0600  -26.0460  -29.7850 O.3       1 ADP600      0.0000 
     15 C2'        62.4420  -25.5010  -28.3600 C.3       1 ADP600      0.0000 
     16 O2'        61.6030  -25.9350  -29.4610 O.3       1 ADP600      0.0000 
     17 C1'        62.9230  -26.0250  -26.9250 C.3       1 ADP600      0.0000 
     18 N9         62.1080  -25.6180  -25.8850 N.pl3     1 ADP600      0.0000 
     19 C8         62.1840  -24.5250  -25.0700 C.2       1 ADP600      0.0000 
     20 N7         61.2750  -24.4480  -24.2130 N.2       1 ADP600      0.0000 
     21 C5         60.5110  -25.5600  -24.4420 C.ar      1 ADP600      0.0000 
     22 C6         59.2940  -26.0990  -23.8260 C.ar      1 ADP600      0.0000 
     23 N6         58.7060  -25.4630  -22.7830 N.pl3     1 ADP600      0.0000 
     24 N1         58.7340  -27.3060  -24.3180 N.ar      1 ADP600      0.0000 
     25 C2         59.3350  -27.9650  -25.3930 C.ar      1 ADP600      0.0000 
     26 N3         60.4810  -27.5240  -26.0280 N.ar      1 ADP600      0.0000 
     27 C4         61.0090  -26.3080  -25.5230 C.ar      1 ADP600      0.0000 
     28 H          65.8262  -24.2706  -26.3329 H         1 ADP600      0.0000 
     29 H          66.2707  -23.6667  -27.9384 H         1 ADP600      0.0000 
     30 H          65.5713  -25.8082  -28.3372 H         1 ADP600      0.0000 
     31 H          63.6754  -24.1202  -29.3207 H         1 ADP600      0.0000 
     32 H          61.9941  -24.3989  -28.0333 H         1 ADP600      0.0000 
     33 H          62.7787  -27.1680  -27.0776 H         1 ADP600      0.0000 
     34 H          62.9465  -23.8558  -25.1971 H         1 ADP600      0.0000 
     35 H          59.1447  -24.6172  -22.4794 H         1 ADP600      0.0000 
     36 H          57.8856  -25.8960  -22.4095 H         1 ADP600      0.0000 
     37 H          58.8811  -28.8553  -25.7379 H         1 ADP600      0.0000 
     38 H          63.2388  -26.5984  -29.9285 H         1 ADP600      0.0000 
     39 H          60.8451  -26.4255  -29.0309 H         1 ADP600      0.0000 
@<TRIPOS>BOND
     1    2    1 ar   
     2    3    1 ar   
     3    4    1 ar   
     4    8    1 1    
     5    6    5 ar   
     6    7    5 ar   
     7    8    5 1    
     8    9    5 1    
     9   10    9 1    
    10   11   10 1    
    11   28   10 1    
    12   29   10 1    
    13   12   11 1    
    14   13   11 1    
    15   30   11 1    
    16   17   12 1    
    17   14   13 1    
    18   15   13 1    
    19   31   13 1    
    20   38   14 1    
    21   16   15 1    
    22   17   15 1    
    23   32   15 1    
    24   39   16 1    
    25   18   17 1    
    26   33   17 1    
    27   19   18 1    
    28   27   18 1    
    29   20   19 2    
    30   34   19 1    
    31   21   20 1    
    32   22   21 ar   
    33   27   21 ar   
    34   23   22 1    
    35   24   22 ar   
    36   35   23 1    
    37   36   23 1    
    38   25   24 ar   
    39   26   25 ar   
    40   37   25 1    
    41   27   26 ar   
@<TRIPOS>SUBSTRUCTURE
     1 ADP600      1 GROUP   
@<TRIPOS>SET

