#    Name: 4iw6_1GU_1_INTS_M
#    Modification time : Tue Mar 25 04:45:35 2014

@<TRIPOS>MOLECULE
4iw6_1GU_1_INTS_M
   98     0     9     0     0
SMALL
NO_CHARGES


@<TRIPOS>ATOM
      1 CA         26.6205    0.2995    6.2620 C.3       3 GLC5        0.0000 
      2 CA         24.6280    0.5640    6.2430 C.3       9 GLL5        0.0000 
      3 CA         28.6130    0.0350    6.2810 C.3       6 GLP5        0.0000 
      4 CA         24.6260   -1.5165    4.7115 C.3       3 GLC5        0.0000 
      5 CA         22.6900   -0.8050    5.2320 C.3       9 GLL5        0.0000 
      6 CA         26.5620   -2.2280    4.1910 C.3       6 GLP5        0.0000 
      7 CA         21.7605    0.3105    3.4820 C.3       3 GLC5        0.0000 
      8 CA         21.1350   -0.5410    5.2100 C.3       9 GLL5        0.0000 
      9 CA         22.3860    1.1620    1.7540 C.3       6 GLP5        0.0000 
     10 CA         21.2115    1.6055    5.6395 C.3       3 GLC5        0.0000 
     11 CA         21.2880    3.7520    6.0690 C.3       6 GLP5        0.0000 
     12 CA         19.7200    0.3355    6.1675 C.3       3 GLC5        0.0000 
     13 CA         18.3050    1.2120    7.1250 C.3       6 GLP5        0.0000 
     14 CA         20.1415    1.1400    4.2090 C.3       3 GLC5        0.0000 
     15 CA         19.1480    2.8210    3.2080 C.3       6 GLP5        0.0000 
     16 CA         22.9335   -4.9745    7.7195 C.3       3 GLC5        0.0000 
     17 CA         21.6230   -4.5680    8.8660 C.3       9 GLL5        0.0000 
     18 CA         24.2440   -5.3810    6.5730 C.3       6 GLP5        0.0000 
     19 CA         19.8110   -6.8365    9.4485 C.3       3 GLC5        0.0000 
     20 CA         19.9210   -5.2670   10.2110 C.3       9 GLL5        0.0000 
     21 CA         19.7010   -8.4060    8.6860 C.3       6 GLP5        0.0000 
     22 CA         20.9960   -3.9110   11.5785 C.3       3 GLC5        0.0000 
     23 CA         20.2360   -3.0770    9.7840 C.3       9 GLL5        0.0000 
     24 CA         21.7560   -4.7450   13.3730 C.3       6 GLP5        0.0000 
     25 CA         21.6845   -2.1180    9.9050 C.3       3 GLC5        0.0000 
     26 CA         23.1330   -1.1590   10.0260 C.3       6 GLP5        0.0000 
     27 CA         15.9640   -4.4385    4.3070 C.3       3 GLC5        0.0000 
     28 CA         17.6180   -4.4150    5.6750 C.3       9 GLL5        0.0000 
     29 CA         14.3100   -4.4620    2.9390 C.3       6 GLP5        0.0000 
     30 CA         20.1250   -4.1820    4.4805 C.3       3 GLC5        0.0000 
     31 CA         19.2170   -2.2930    4.9880 C.3       9 GLL5        0.0000 
     32 CA         21.0330   -6.0710    3.9730 C.3       6 GLP5        0.0000 
     33 CA         18.7610   -0.5405    6.0565 C.3       3 GLC5        0.0000 
     34 CA         18.5405   -3.8185    3.5730 C.3       3 GLC5        0.0000 
     35 CA         17.8640   -5.3440    2.1580 C.3       6 GLP5        0.0000 
     36 CA         15.9110   -1.0365    5.2080 C.3       3 GLC5        0.0000 
     37 CA         17.2710   -1.5540    3.6000 C.3       9 GLL5        0.0000 
     38 CA         14.5510   -0.5190    6.8160 C.3       6 GLP5        0.0000 
     39 CA         15.7905   -3.0080    3.2695 C.3       3 GLC5        0.0000 
     40 CA         14.9860   -0.4625    3.5530 C.3       3 GLC5        0.0000 
     41 CA         16.7300   -1.1120    2.3350 C.3       9 GLL5        0.0000 
     42 CA         13.2420    0.1870    4.7710 C.3       6 GLP5        0.0000 
     43 CA         14.9650   -1.9085    1.9600 C.3       3 GLC5        0.0000 
     44 CA         13.2000   -2.7050    1.5850 C.3       6 GLP5        0.0000 
     45 N          16.0690   -1.1280   -0.9535 N.am      2 SEC2        0.0000 
     46 N          17.0830   -0.5350   -0.0530 N.am      8 SEL2        0.0000 
     47 N          15.0550   -1.7210   -1.8540 N.am      5 SEP2        0.0000 
     48 N          15.9815    0.4735   -0.3040 N.am      2 SEC2        0.0000 
     49 N          14.8800    1.4820   -0.5550 N.am      5 SEP2        0.0000 
     50 O          17.9365    0.0535   -0.7220 O.2       1 ALC1        0.0000 
     51 O          17.0830   -0.5350   -0.0530 O.2       7 ALL1        0.0000 
     52 O          18.7900    0.6420   -1.3910 O.2       4 ALP1        0.0000 
     53 CA         19.3325   -2.0510   -0.6705 C.3       3 GLC5        0.0000 
     54 CA         19.0630   -1.2760    1.3010 C.3       9 GLL5        0.0000 
     55 CA         19.6020   -2.8260   -2.6420 C.3       6 GLP5        0.0000 
     56 CA         20.4865   -3.6825    2.5605 C.3       3 GLC5        0.0000 
     57 CA         19.5880   -1.7290    2.5810 C.3       9 GLL5        0.0000 
     58 CA         21.3850   -5.6360    2.5400 C.3       6 GLP5        0.0000 
     59 O          22.0220   -2.0010    1.9625 O.2       1 ALC1        0.0000 
     60 O          20.9940   -2.0380    2.7500 O.2       7 ALL1        0.0000 
     61 O          23.0500   -1.9640    1.1750 O.2       4 ALP1        0.0000 
     62 CA         25.3317   -0.8540    4.9765 C.3       3 GLC5        0.0000 
     63 CA         23.5750    0.4760    5.2810 C.3       9 GLL5        0.0000 
     64 CA         23.0528    2.0620    6.5125 C.3       3 GLC5        0.0000 
     65 CA         22.0040    3.6040    7.2630 C.3       6 GLP5        0.0000 
     66 CA         23.3368    0.2525    7.4795 C.3       3 GLC5        0.0000 
     67 CA         22.5720   -0.0150    9.1970 C.3       6 GLP5        0.0000 
     68 CA         25.2223    1.3915    4.6295 C.3       3 GLC5        0.0000 
     69 CA         26.3430    2.2630    3.4970 C.3       6 GLP5        0.0000 
     70 CA         22.7593    0.4987    3.5053 C.3       3 GLC5        0.0000 
     71 CA         22.2422   -0.3440    7.2090 C.3       3 GLC5        0.0000 
     72 CA         17.4087   -3.3470    8.4025 C.3       3 GLC5        0.0000 
     73 CA         19.3620   -4.4530    8.0230 C.3       9 GLL5        0.0000 
     74 CA         15.9930   -1.7520    8.8390 C.3       6 GLP5        0.0000 
     75 CA         21.2207   -6.2852    8.8963 C.3       3 GLC5        0.0000 
     76 CA         20.3160   -4.3550    9.2510 C.3       9 GLL5        0.0000 
     77 CA         21.4720   -8.1090    8.7340 C.3       6 GLP5        0.0000 
     78 CA         22.3897   -3.3257    9.0892 C.3       3 GLC5        0.0000 
     79 CA         23.8100   -2.1900    9.1200 C.3       6 GLP5        0.0000 
     80 CA         21.6936   -5.4896   10.5754 C.3       3 GLC5        0.0000 
     81 CA         22.9420   -6.1150   11.5160 C.3       6 GLP5        0.0000 
     82 CA         19.0231   -4.8560   11.0907 C.3       3 GLC5        0.0000 
     83 CA         17.8690   -5.7680   12.4240 C.3       6 GLP5        0.0000 
     84 CA         19.3651   -2.9555   11.0398 C.3       3 GLC5        0.0000 
     85 CA         18.5530   -1.9670   12.3220 C.3       6 GLP5        0.0000 
     86 CA         16.7345   -5.5207    8.8480 C.3       3 GLC5        0.0000 
     87 CA         18.2870   -5.4310    7.9090 C.3       9 GLL5        0.0000 
     88 CA         15.6170   -5.6170   10.3790 C.3       6 GLP5        0.0000 
     89 CA         18.9109   -6.7930    8.0158 C.3       3 GLC5        0.0000 
     90 CA         17.4170   -5.4180    6.7250 C.3       9 GLL5        0.0000 
     91 CA         15.7272   -5.2852    6.4085 C.3       3 GLC5        0.0000 
     92 CA         13.9370   -5.6540    6.6170 C.3       6 GLP5        0.0000 
     93 CA         19.5998   -4.9935    4.8598 C.3       3 GLC5        0.0000 
     94 CA         17.0546   -2.9594    7.4240 C.3       3 GLC5        0.0000 
     95 CA         18.7150   -3.4170    5.8180 C.3       9 GLL5        0.0000 
     96 CA         17.0161    0.5917    2.6444 C.3       3 GLC5        0.0000 
     97 CA         16.7150    2.3340    3.2080 C.3       6 GLP5        0.0000 
     98 CA         20.8558   -0.1703    1.8475 C.3       3 GLC5        0.0000 
@<TRIPOS>BOND
@<TRIPOS>SUBSTRUCTURE
     1 ALC1       50 GROUP        1 X    ALC  0     ROOT ALC X 1
     2 SEC2       45 GROUP        1 X    SEC  0     **** SEC X 2
     3 GLC5        1 GROUP        1 X    GLC  0     **** GLC X 6
     4 ALP1       52 GROUP        1 Y    ALP  0     ROOT ALP Y 8
     5 SEP2       47 GROUP        1 Y    SEP  0     **** SEP Y 9
     6 GLP5        3 GROUP        1 Y    GLP  0     **** GLP Y 13
     7 ALL1       51 GROUP        1 Z    ALL  0     ROOT ALL Z 15
     8 SEL2       46 GROUP        1 Z    SEL  0     **** SEL Z 16
     9 GLL5        2 GROUP        1 Z    GLL  0     **** GLL Z 20
@<TRIPOS>SET

