#    Name: 4iw6_1GU_1_ligand
#    Modification time : Tue Mar 25 04:45:35 2014

@<TRIPOS>MOLECULE
4iw6_1GU_1_ligand
   38    40     1     0     0
SMALL
NO_CHARGES


@<TRIPOS>ATOM
      1 C01        24.6280    0.5640    6.2430 C.2       1 1GU601      0.0000 
      2 C02        23.5750    0.4760    5.2810 C.2       1 1GU601      0.0000 
      3 C03        22.6900   -0.8050    5.2320 C.3       1 1GU601      0.0000 
      4 C04        21.1350   -0.5410    5.2100 C.3       1 1GU601      0.0000 
      5 N05        20.2990   -1.6970    5.6650 N.pl3     1 1GU601      0.0000 
      6 N06        20.5190   -2.3890    6.8890 N.2       1 1GU601      0.0000 
      7 C07        19.5590   -3.4460    6.9770 C.ar      1 1GU601      0.0000 
      8 C08        19.3620   -4.4530    8.0230 C.ar      1 1GU601      0.0000 
      9 C09        20.3160   -4.3550    9.2510 C.3       1 1GU601      0.0000 
     10 F10        21.6230   -4.5680    8.8660 F         1 1GU601      0.0000 
     11 F11        19.9210   -5.2670   10.2110 F         1 1GU601      0.0000 
     12 F12        20.2360   -3.0770    9.7840 F         1 1GU601      0.0000 
     13 C13        18.2870   -5.4310    7.9090 C.ar      1 1GU601      0.0000 
     14 C14        17.4170   -5.4180    6.7250 C.ar      1 1GU601      0.0000 
     15 C15        17.6180   -4.4150    5.6750 C.ar      1 1GU601      0.0000 
     16 C16        18.7150   -3.4170    5.8180 C.ar      1 1GU601      0.0000 
     17 C17        19.2170   -2.2930    4.9880 C.2       1 1GU601      0.0000 
     18 C18        18.6890   -1.8550    3.7100 C.ar      1 1GU601      0.0000 
     19 C19        17.2710   -1.5540    3.6000 C.ar      1 1GU601      0.0000 
     20 C20        16.7300   -1.1120    2.3350 C.ar      1 1GU601      0.0000 
     21 C21        17.6340   -0.9680    1.1940 C.ar      1 1GU601      0.0000 
     22 O22        17.0830   -0.5350   -0.0530 O.3       1 1GU601      0.0000 
     23 C23        19.0630   -1.2760    1.3010 C.ar      1 1GU601      0.0000 
     24 C24        19.5880   -1.7290    2.5810 C.ar      1 1GU601      0.0000 
     25 O25        20.9940   -2.0380    2.7500 O.3       1 1GU601      0.0000 
     26 H          23.3645    1.1908    4.6278 H         1 1GU601      0.0000 
     27 H          22.9185   -1.4291    6.1068 H         1 1GU601      0.0000 
     28 H          22.9512   -1.3840    4.3356 H         1 1GU601      0.0000 
     29 H          20.8669   -0.2565    4.1778 H         1 1GU601      0.0000 
     30 H          20.9450    0.3427    5.8436 H         1 1GU601      0.0000 
     31 H          18.1383   -6.1092    8.6300 H         1 1GU601      0.0000 
     32 H          16.6841   -6.0978    6.6363 H         1 1GU601      0.0000 
     33 H          17.0334   -4.3920    4.8707 H         1 1GU601      0.0000 
     34 H          16.6726   -1.6541    4.4026 H         1 1GU601      0.0000 
     35 H          15.7583   -0.9067    2.2334 H         1 1GU601      0.0000 
     36 H          19.6599   -1.1758    0.5102 H         1 1GU601      0.0000 
     37 H          17.8465   -0.5668   -0.6980 H         1 1GU601      0.0000 
     38 H          21.4133   -1.8264    1.8672 H         1 1GU601      0.0000 
@<TRIPOS>BOND
     1    2    1 2    
     2    3    2 1    
     3   26    2 1    
     4    4    3 1    
     5   27    3 1    
     6   28    3 1    
     7    5    4 1    
     8   29    4 1    
     9   30    4 1    
    10    6    5 1    
    11   17    5 1    
    12    7    6 2    
    13    8    7 ar   
    14   16    7 ar   
    15    9    8 1    
    16   13    8 ar   
    17   10    9 1    
    18   11    9 1    
    19   12    9 1    
    20   14   13 ar   
    21   31   13 1    
    22   15   14 ar   
    23   32   14 1    
    24   16   15 ar   
    25   33   15 1    
    26   17   16 2    
    27   18   17 1    
    28   19   18 ar   
    29   24   18 ar   
    30   20   19 ar   
    31   34   19 1    
    32   21   20 ar   
    33   35   20 1    
    34   22   21 1    
    35   23   21 ar   
    36   37   22 1    
    37   24   23 ar   
    38   36   23 1    
    39   25   24 1    
    40   38   25 1    
@<TRIPOS>SUBSTRUCTURE
     1 1GU601      1 GROUP   
@<TRIPOS>SET

