#    Name: 4jlj_1NM_1_INTS_M
#    Modification time : Tue Mar 25 06:00:45 2014

@<TRIPOS>MOLECULE
4jlj_1NM_1_INTS_M
   58     0     9     0     0
SMALL
NO_CHARGES


@<TRIPOS>ATOM
      1 CA        -34.6310    7.8015   -1.5695 C.3       3 GLC5        0.0000 
      2 CA        -35.8030    9.0180   -0.5170 C.3       9 GLL5        0.0000 
      3 CA        -33.4590    6.5850   -2.6220 C.3       6 GLP5        0.0000 
      4 CA        -34.6010    9.9720    0.5940 C.3       3 GLC5        0.0000 
      5 CA        -33.3990   10.9260    1.7050 C.3       6 GLP5        0.0000 
      6 CA        -36.8320    8.5050   -3.9690 C.3       3 GLC5        0.0000 
      7 CA        -36.4710   10.0710   -2.5640 C.3       9 GLL5        0.0000 
      8 CA        -37.1930    6.9390   -5.3740 C.3       6 GLP5        0.0000 
      9 CA        -34.3220    8.5350   -2.7875 C.3       3 GLC5        0.0000 
     10 CA        -35.1850   10.4850   -2.9530 C.3       9 GLL5        0.0000 
     11 CA        -38.1155    8.9495   -4.0890 C.3       3 GLC5        0.0000 
     12 CA        -37.6160   10.6490   -3.1250 C.3       9 GLL5        0.0000 
     13 CA        -38.6150    7.2500   -5.0530 C.3       6 GLP5        0.0000 
     14 CA        -39.2545    9.0560   -4.2175 C.3       3 GLC5        0.0000 
     15 CA        -39.8940   10.8620   -3.3820 C.3       9 GLL5        0.0000 
     16 CA        -29.1790   12.3425   -2.1255 C.3       3 GLC5        0.0000 
     17 CA        -30.3100   12.5150   -3.8740 C.3       9 GLL5        0.0000 
     18 CA        -28.0480   12.1700   -0.3770 C.3       6 GLP5        0.0000 
     19 CA        -30.7165   10.0995   -5.4610 C.3       3 GLC5        0.0000 
     20 CA        -29.4760   10.9250   -4.2650 C.3       9 GLL5        0.0000 
     21 CA        -31.9570    9.2740   -6.6570 C.3       6 GLP5        0.0000 
     22 CA        -28.8870   10.6470   -5.9730 C.3       3 GLC5        0.0000 
     23 CA        -28.2980   10.3690   -7.6810 C.3       6 GLP5        0.0000 
     24 CA        -28.7770   10.8800   -2.5115 C.3       3 GLC5        0.0000 
     25 CA        -28.0780   10.8350   -0.7580 C.3       6 GLP5        0.0000 
     26 CA        -26.6780   12.2790   -5.7540 C.3       3 GLC5        0.0000 
     27 CA        -27.7830   11.2900   -4.1340 C.3       9 GLL5        0.0000 
     28 CA        -25.5730   13.2680   -7.3740 C.3       6 GLP5        0.0000 
     29 CA        -27.3635    9.9705   -2.7345 C.3       3 GLC5        0.0000 
     30 CA        -26.9440    8.6510   -1.3350 C.3       6 GLP5        0.0000 
     31 N         -27.4845    8.9870   -4.5850 N.am      2 SEC2        0.0000 
     32 N         -26.9000   10.2650   -4.2370 N.am      8 SEL2        0.0000 
     33 N         -28.0690    7.7090   -4.9330 N.am      5 SEP2        0.0000 
     34 O         -24.0455   14.2580   -3.6965 O.2       1 ALC1        0.0000 
     35 O         -25.6720   14.0660   -3.7360 O.2       7 ALL1        0.0000 
     36 O         -22.4190   14.4500   -3.6570 O.2       4 ALP1        0.0000 
     37 O         -25.4900    7.9685   -4.3745 O.2       1 ALC1        0.0000 
     38 O         -24.7310    9.4440   -4.2640 O.2       7 ALL1        0.0000 
     39 O         -26.2490    6.4930   -4.4850 O.2       4 ALP1        0.0000 
     40 O         -23.2570    9.5120   -4.2180 O.2       1 ALC1        0.0000 
     41 O         -21.7830    9.5800   -4.1720 O.2       4 ALP1        0.0000 
     42 CA        -36.3945    6.4100    1.7182 C.3       3 GLC5        0.0000 
     43 CA        -36.4120    8.0900    0.5490 C.3       9 GLL5        0.0000 
     44 CA        -36.6280    4.5530    2.1550 C.3       6 GLP5        0.0000 
     45 CA        -35.2870    9.7150    1.9627 C.3       3 GLC5        0.0000 
     46 CA        -34.4130   11.1630    2.6440 C.3       6 GLP5        0.0000 
     47 CA        -37.4513   12.1135   -6.2165 C.3       3 GLC5        0.0000 
     48 CA        -37.5220   11.6630   -4.0700 C.3       9 GLL5        0.0000 
     49 CA        -38.0170   12.3520   -8.1770 C.3       6 GLP5        0.0000 
     50 CA        -32.3835   14.1178   -7.1128 C.3       3 GLC5        0.0000 
     51 CA        -33.7910   12.9730   -5.6440 C.3       9 GLL5        0.0000 
     52 CA        -31.8020   15.1390   -8.6710 C.3       6 GLP5        0.0000 
     53 CA        -32.1623   11.0464   -5.8091 C.3       3 GLC5        0.0000 
     54 CA        -32.1390   13.2200   -5.4650 C.3       9 GLL5        0.0000 
     55 CA        -26.1505    9.8845   -2.6972 C.3       3 GLC5        0.0000 
     56 CA        -25.1240   11.7680   -3.9700 C.3       9 GLL5        0.0000 
     57 CA        -25.5820   12.3240   -5.7061 C.3       3 GLC5        0.0000 
     58 CA        -25.5900   10.4680   -4.1490 C.3       9 GLL5        0.0000 
@<TRIPOS>BOND
@<TRIPOS>SUBSTRUCTURE
     1 ALC1       34 GROUP        1 X    ALC  0     ROOT ALC X 1
     2 SEC2       31 GROUP        1 X    SEC  0     **** SEC X 2
     3 GLC5        1 GROUP        1 X    GLC  0     **** GLC X 6
     4 ALP1       36 GROUP        1 Y    ALP  0     ROOT ALP Y 8
     5 SEP2       33 GROUP        1 Y    SEP  0     **** SEP Y 9
     6 GLP5        3 GROUP        1 Y    GLP  0     **** GLP Y 13
     7 ALL1       35 GROUP        1 Z    ALL  0     ROOT ALL Z 15
     8 SEL2       32 GROUP        1 Z    SEL  0     **** SEL Z 16
     9 GLL5        2 GROUP        1 Z    GLL  0     **** GLL Z 20
@<TRIPOS>SET

