#    Name: 4jlj_1NM_1_ligand
#    Modification time : Tue Mar 25 06:00:45 2014

@<TRIPOS>MOLECULE
4jlj_1NM_1_ligand
   45    47     1     0     0
SMALL
NO_CHARGES


@<TRIPOS>ATOM
      1 FAD       -35.9100    8.4440    2.0140 F         1 1NM301      0.0000 
      2 CAJ       -36.4120    8.0900    0.5490 C.3       1 1NM301      0.0000 
      3 CAK       -35.8030    9.0180   -0.5170 C.3       1 1NM301      0.0000 
      4 OAQ       -36.7030    9.0820   -1.6540 O.3       1 1NM301      0.0000 
      5 CAZ       -36.4710   10.0710   -2.5640 C.ar      1 1NM301      0.0000 
      6 CAI       -35.1850   10.4850   -2.9530 C.ar      1 1NM301      0.0000 
      7 CAY       -37.6160   10.6490   -3.1250 C.ar      1 1NM301      0.0000 
      8 OAP       -38.8160   10.1820   -2.7070 O.3       1 1NM301      0.0000 
      9 CAA       -39.8940   10.8620   -3.3820 C.3       1 1NM301      0.0000 
     10 CAF       -37.5220   11.6630   -4.0700 C.ar      1 1NM301      0.0000 
     11 CAE       -36.2490   12.0870   -4.4420 C.ar      1 1NM301      0.0000 
     12 CAW       -35.0940   11.5060   -3.9010 C.ar      1 1NM301      0.0000 
     13 CBA       -33.9400   12.0090   -4.3180 C.2       1 1NM301      0.0000 
     14 NAO       -32.7530   11.8760   -3.7250 N.2       1 1NM301      0.0000 
     15 SAS       -33.7910   12.9730   -5.6440 S.3       1 1NM301      0.0000 
     16 CAG       -32.1390   13.2200   -5.4650 C.2       1 1NM301      0.0000 
     17 CAV       -31.7700   12.5410   -4.3680 C.2       1 1NM301      0.0000 
     18 CAL       -30.3100   12.5150   -3.8740 C.3       1 1NM301      0.0000 
     19 SAR       -29.4760   10.9250   -4.2650 S.3       1 1NM301      0.0000 
     20 C2        -27.7830   11.2900   -4.1340 C.ar      1 1NM301      0.0000 
     21 N3        -26.9000   10.2650   -4.2370 N.ar      1 1NM301      0.0000 
     22 N1        -27.3620   12.5660   -3.9650 N.ar      1 1NM301      0.0000 
     23 C6        -26.0600   12.8160   -3.8850 C.ar      1 1NM301      0.0000 
     24 NAB       -25.6720   14.0660   -3.7360 N.pl3     1 1NM301      0.0000 
     25 C5        -25.1240   11.7680   -3.9700 C.ar      1 1NM301      0.0000 
     26 C4        -25.5900   10.4680   -4.1490 C.ar      1 1NM301      0.0000 
     27 NAC       -24.7310    9.4440   -4.2640 N.pl3     1 1NM301      0.0000 
     28 H         -37.4959    8.1771    0.5378 H         1 1NM301      0.0000 
     29 H         -36.1353    7.0590    0.3418 H         1 1NM301      0.0000 
     30 H         -34.8326    8.6135   -0.7991 H         1 1NM301      0.0000 
     31 H         -35.6600    9.9984   -0.0661 H         1 1NM301      0.0000 
     32 H         -34.3617   10.0576   -2.5593 H         1 1NM301      0.0000 
     33 H         -38.3506   12.0807   -4.4755 H         1 1NM301      0.0000 
     34 H         -36.1488   12.8514   -5.1363 H         1 1NM301      0.0000 
     35 H         -31.7489   13.7419   -6.0901 H         1 1NM301      0.0000 
     36 H         -30.2176   12.5590   -2.8121 H         1 1NM301      0.0000 
     37 H         -29.6804   13.2226   -4.3649 H         1 1NM301      0.0000 
     38 H         -24.6864   14.2140   -3.6544 H         1 1NM301      0.0000 
     39 H         -26.3984   14.7530   -3.7181 H         1 1NM301      0.0000 
     40 H         -24.1294   11.9634   -3.9013 H         1 1NM301      0.0000 
     41 H         -25.1385    8.5409   -4.3994 H         1 1NM301      0.0000 
     42 H         -23.7600    9.6754   -4.2040 H         1 1NM301      0.0000 
     43 H         -39.8759   11.8473   -3.2119 H         1 1NM301      0.0000 
     44 H         -39.8507   10.7348   -4.3729 H         1 1NM301      0.0000 
     45 H         -40.7882   10.5293   -3.0826 H         1 1NM301      0.0000 
@<TRIPOS>BOND
     1    2    1 1    
     2    3    2 1    
     3   28    2 1    
     4   29    2 1    
     5    4    3 1    
     6   30    3 1    
     7   31    3 1    
     8    5    4 1    
     9    6    5 ar   
    10    7    5 ar   
    11   12    6 ar   
    12   32    6 1    
    13    8    7 1    
    14   10    7 ar   
    15    9    8 1    
    16   43    9 1    
    17   44    9 1    
    18   45    9 1    
    19   11   10 ar   
    20   33   10 1    
    21   12   11 ar   
    22   34   11 1    
    23   13   12 1    
    24   14   13 2    
    25   15   13 1    
    26   17   14 1    
    27   16   15 1    
    28   17   16 2    
    29   35   16 1    
    30   18   17 1    
    31   19   18 1    
    32   36   18 1    
    33   37   18 1    
    34   20   19 1    
    35   21   20 ar   
    36   22   20 ar   
    37   26   21 ar   
    38   23   22 ar   
    39   24   23 1    
    40   25   23 ar   
    41   38   24 1    
    42   39   24 1    
    43   26   25 ar   
    44   40   25 1    
    45   27   26 1    
    46   41   27 1    
    47   42   27 1    
@<TRIPOS>SUBSTRUCTURE
     1 1NM301      1 GROUP   
@<TRIPOS>SET

