#    Name: 3ec7_NAD_8_INTS_M
#    Modification time : Tue Mar 25 01:27:55 2014

@<TRIPOS>MOLECULE
3ec7_NAD_8_INTS_M
   79     0     9     0     0
SMALL
NO_CHARGES


@<TRIPOS>ATOM
      1 N          64.7245   97.7565   40.8120 N.am      2 SEC2        0.0000 
      2 N          65.0110   99.1010   40.3110 N.am      8 SEL2        0.0000 
      3 N          64.4380   96.4120   41.3130 N.am      5 SEP2        0.0000 
      4 CA         69.8150  101.0965   42.1130 C.3       3 GLC5        0.0000 
      5 CA         67.9170  100.1140   42.5470 C.3       9 GLL5        0.0000 
      6 CA         71.7130  102.0790   41.6790 C.3       6 GLP5        0.0000 
      7 CA         68.4875   98.9655   45.4740 C.3       3 GLC5        0.0000 
      8 CA         67.5360  100.0830   44.0140 C.3       9 GLL5        0.0000 
      9 CA         69.4390   97.8480   46.9340 C.3       6 GLP5        0.0000 
     10 N          70.0455  100.8575   43.8230 N.am      2 SEC2        0.0000 
     11 N          68.6430  100.4910   44.7940 N.am      8 SEL2        0.0000 
     12 N          71.4480  101.2240   42.8520 N.am      5 SEP2        0.0000 
     13 O          65.7135   99.8675   46.2420 O.2       1 ALC1        0.0000 
     14 O          65.4010  100.2680   44.9850 O.2       7 ALL1        0.0000 
     15 O          66.0260   99.4670   47.4990 O.2       4 ALP1        0.0000 
     16 O          65.8550  102.0415   47.2710 O.2       1 ALC1        0.0000 
     17 O          66.1540  102.6520   46.2030 O.2       7 ALL1        0.0000 
     18 O          65.5560  101.4310   48.3390 O.2       4 ALP1        0.0000 
     19 O          66.0900  101.0595   46.8510 O.2       1 ALC1        0.0000 
     20 CA         68.8080   99.5995   46.3770 C.3       3 GLC5        0.0000 
     21 CA         68.1770  101.3510   45.8200 C.3       9 GLL5        0.0000 
     22 CA         70.2010  100.6295   45.6195 C.3       3 GLC5        0.0000 
     23 CA         72.2250   99.9080   45.4190 C.3       6 GLP5        0.0000 
     24 CA         71.7385  100.0515   49.5750 C.3       3 GLC5        0.0000 
     25 CA         70.4080  101.3170   49.6920 C.3       9 GLL5        0.0000 
     26 CA         73.0690   98.7860   49.4580 C.3       6 GLP5        0.0000 
     27 CA         70.5685  100.3405   51.3335 C.3       3 GLC5        0.0000 
     28 CA         70.7290   99.3640   52.9750 C.3       6 GLP5        0.0000 
     29 CA         68.7805  100.6975   50.1465 C.3       3 GLC5        0.0000 
     30 CA         67.1530  100.0780   50.6010 C.3       6 GLP5        0.0000 
     31 CA         69.2520  103.0675   49.9125 C.3       3 GLC5        0.0000 
     32 CA         68.0960  104.8180   50.1330 C.3       6 GLP5        0.0000 
     33 N          68.4455  101.8630   49.4795 N.am      2 SEC2        0.0000 
     34 N          69.6590  101.2290   48.5300 N.am      8 SEL2        0.0000 
     35 N          67.2320  102.4970   50.4290 N.am      5 SEP2        0.0000 
     36 CA         69.6470   99.9760   47.2230 C.3       3 GLC5        0.0000 
     37 CA         69.8550  102.1040   47.5120 C.3       9 GLL5        0.0000 
     38 N          66.7280   95.5545   40.1565 N.am      2 SEC2        0.0000 
     39 N          67.3650   96.9000   40.1230 N.am      8 SEL2        0.0000 
     40 N          66.0910   94.2090   40.1900 N.am      5 SEP2        0.0000 
     41 CA         71.8775   96.4500   41.4055 C.3       3 GLC5        0.0000 
     42 CA         71.6210   97.3790   39.4150 C.3       9 GLL5        0.0000 
     43 CA         72.1340   95.5210   43.3960 C.3       6 GLP5        0.0000 
     44 CA         73.0410   95.9350   39.5460 C.3       3 GLC5        0.0000 
     45 CA         74.4610   94.4910   39.6770 C.3       6 GLP5        0.0000 
     46 CA         74.1600   98.5965   39.2655 C.3       3 GLC5        0.0000 
     47 CA         72.1120   98.4320   38.4310 C.3       9 GLL5        0.0000 
     48 CA         76.2080   98.7610   40.1000 C.3       6 GLP5        0.0000 
     49 O          73.9445   97.4415   36.2895 O.2       1 ALC1        0.0000 
     50 O          72.8070   98.1880   36.0700 O.2       7 ALL1        0.0000 
     51 O          75.0820   96.6950   36.5090 O.2       4 ALP1        0.0000 
     52 CA         70.6405   95.2175   38.6975 C.3       3 GLC5        0.0000 
     53 CA         72.0160   96.3020   37.4020 C.3       9 GLL5        0.0000 
     54 CA         69.2650   94.1330   39.9930 C.3       6 GLP5        0.0000 
     55 CA         73.2385   95.3965   38.5395 C.3       3 GLC5        0.0000 
     56 CA         72.6940   93.8060   37.8760 C.3       3 GLC5        0.0000 
     57 CA         71.9120   94.2930   36.0660 C.3       9 GLL5        0.0000 
     58 CA         73.4760   93.3190   39.6860 C.3       6 GLP5        0.0000 
     59 CA         68.7315   94.0350   37.3030 C.3       3 GLC5        0.0000 
     60 CA         69.2560   94.7880   35.3050 C.3       9 GLL5        0.0000 
     61 CA         68.2070   93.2820   39.3010 C.3       6 GLP5        0.0000 
     62 CA         69.6150   94.9005   38.0690 C.3       3 GLC5        0.0000 
     63 CA         69.9650   95.6680   36.1450 C.3       9 GLL5        0.0000 
     64 CA         69.6683   99.6572   43.7403 C.3       3 GLC5        0.0000 
     65 CA         71.6100   99.2160   44.2000 C.3       6 GLP5        0.0000 
     66 CA         65.9256   98.8854   43.6704 C.3       3 GLC5        0.0000 
     67 CA         64.8010   97.2020   43.5430 C.3       6 GLP5        0.0000 
     68 CA         71.2807  101.2540   46.4892 C.3       3 GLC5        0.0000 
     69 CA         70.8180  103.0960   47.6070 C.3       9 GLL5        0.0000 
     70 CA         72.9460  103.3000   46.9243 C.3       3 GLC5        0.0000 
     71 CA         74.6930  103.4510   45.6560 C.3       6 GLP5        0.0000 
     72 CA         69.3115  103.7223   48.9926 C.3       3 GLC5        0.0000 
     73 CA         70.0955   95.8455   39.8402 C.3       3 GLC5        0.0000 
     74 CA         70.2310   97.7370   39.9600 C.3       9 GLL5        0.0000 
     75 CA         72.8635   94.5970   34.3045 C.3       3 GLC5        0.0000 
     76 CA         74.1480   95.3440   32.9640 C.3       6 GLP5        0.0000 
     77 CA         69.6960   92.7622   36.8740 C.3       3 GLC5        0.0000 
     78 CA         71.2460   93.4070   35.2240 C.3       9 GLL5        0.0000 
     79 CA         68.8140   91.9960   38.7140 C.3       6 GLP5        0.0000 
@<TRIPOS>BOND
@<TRIPOS>SUBSTRUCTURE
     1 ALC1       13 GROUP        1 X    ALC  0     ROOT ALC X 1
     2 SEC2        1 GROUP        1 X    SEC  0     **** SEC X 2
     3 GLC5        4 GROUP        1 X    GLC  0     **** GLC X 6
     4 ALP1       15 GROUP        1 Y    ALP  0     ROOT ALP Y 8
     5 SEP2        3 GROUP        1 Y    SEP  0     **** SEP Y 9
     6 GLP5        6 GROUP        1 Y    GLP  0     **** GLP Y 13
     7 ALL1       14 GROUP        1 Z    ALL  0     ROOT ALL Z 15
     8 SEL2        2 GROUP        1 Z    SEL  0     **** SEL Z 16
     9 GLL5        5 GROUP        1 Z    GLL  0     **** GLL Z 20
@<TRIPOS>SET

