#    Name: 3ec7_NAD_8_ligand
#    Modification time : Tue Mar 25 01:27:55 2014

@<TRIPOS>MOLECULE
3ec7_NAD_8_ligand
   70    74     1     0     0
SMALL
NO_CHARGES


@<TRIPOS>ATOM
      1 PA         66.2650   99.8440   40.5470 P.3       1 NAD400      0.0000 
      2 O1A        66.1650  101.3050   40.5050 O.co2     1 NAD400      0.0000 
      3 O2A        65.0110   99.1010   40.3110 O.co2     1 NAD400      0.0000 
      4 O5B        66.9290   99.3510   41.9060 O.3       1 NAD400      0.0000 
      5 C5B        67.9170  100.1140   42.5470 C.3       1 NAD400      0.0000 
      6 C4B        67.5360  100.0830   44.0140 C.3       1 NAD400      0.0000 
      7 O4B        68.6430  100.4910   44.7940 O.3       1 NAD400      0.0000 
      8 C3B        66.3740  101.0390   44.3150 C.3       1 NAD400      0.0000 
      9 O3B        65.4010  100.2680   44.9850 O.3       1 NAD400      0.0000 
     10 C2B        67.0010  102.1050   45.2120 C.3       1 NAD400      0.0000 
     11 O2B        66.1540  102.6520   46.2030 O.3       1 NAD400      0.0000 
     12 C1B        68.1770  101.3510   45.8200 C.3       1 NAD400      0.0000 
     13 N9A        69.2560  102.2320   46.2880 N.pl3     1 NAD400      0.0000 
     14 C8A        69.8310  103.2810   45.6230 C.2       1 NAD400      0.0000 
     15 N7A        70.7770  103.7950   46.4470 N.2       1 NAD400      0.0000 
     16 C5A        70.8180  103.0960   47.6070 C.ar      1 NAD400      0.0000 
     17 C6A        71.5800  103.2020   48.7780 C.ar      1 NAD400      0.0000 
     18 N6A        72.4200  104.2080   48.9710 N.pl3     1 NAD400      0.0000 
     19 N1A        71.3700  102.3130   49.8130 N.ar      1 NAD400      0.0000 
     20 C2A        70.4080  101.3170   49.6920 C.ar      1 NAD400      0.0000 
     21 N3A        69.6590  101.2290   48.5300 N.ar      1 NAD400      0.0000 
     22 C4A        69.8550  102.1040   47.5120 C.ar      1 NAD400      0.0000 
     23 O3         67.3800   99.4090   39.4600 O.3       1 NAD400      0.0000 
     24 PN         67.7030   97.8710   39.0580 P.3       1 NAD400      0.0000 
     25 O1N        67.2210   97.7950   37.6580 O.co2     1 NAD400      0.0000 
     26 O2N        67.3650   96.9000   40.1230 O.co2     1 NAD400      0.0000 
     27 O5D        69.3200   97.8520   38.8770 O.3       1 NAD400      0.0000 
     28 C5D        70.2310   97.7370   39.9600 C.3       1 NAD400      0.0000 
     29 C4D        71.6210   97.3790   39.4150 C.3       1 NAD400      0.0000 
     30 O4D        71.5620   96.1420   38.7340 O.3       1 NAD400      0.0000 
     31 C3D        72.1120   98.4320   38.4310 C.3       1 NAD400      0.0000 
     32 O3D        73.4670   98.7590   38.6910 O.3       1 NAD400      0.0000 
     33 C2D        71.8900   97.7850   37.0710 C.3       1 NAD400      0.0000 
     34 O2D        72.8070   98.1880   36.0700 O.3       1 NAD400      0.0000 
     35 C1D        72.0160   96.3020   37.4020 C.3       1 NAD400      0.0000 
     36 N1N        71.2720   95.4070   36.5010 N.pl3     1 NAD400      0.0000 
     37 C2N        71.9120   94.2930   36.0660 C.ar      1 NAD400      0.0000 
     38 C3N        71.2460   93.4070   35.2240 C.ar      1 NAD400      0.0000 
     39 C7N        72.0250   92.3180   34.5700 C.2       1 NAD400      0.0000 
     40 O7N        73.2750   91.9500   35.0950 O.2       1 NAD400      0.0000 
     41 N7N        71.5140   91.7300   33.5010 N.am      1 NAD400      0.0000 
     42 C4N        69.9100   93.6500   34.8440 C.ar      1 NAD400      0.0000 
     43 C5N        69.2560   94.7880   35.3050 C.ar      1 NAD400      0.0000 
     44 C6N        69.9650   95.6680   36.1450 C.ar      1 NAD400      0.0000 
     45 H          67.9234  101.1451   42.2237 H         1 NAD400      0.0000 
     46 H          68.9044   99.6865   42.4477 H         1 NAD400      0.0000 
     47 H          67.2224   99.0867   44.2734 H         1 NAD400      0.0000 
     48 H          66.0608  101.4637   43.4164 H         1 NAD400      0.0000 
     49 H          67.4346  102.8533   44.5530 H         1 NAD400      0.0000 
     50 H          67.7879  100.7610   46.6448 H         1 NAD400      0.0000 
     51 H          69.6051  103.5846   44.7515 H         1 NAD400      0.0000 
     52 H          72.4554  104.8968   48.2469 H         1 NAD400      0.0000 
     53 H          72.9426  104.1875   49.8233 H         1 NAD400      0.0000 
     54 H          70.2554  100.6529   50.4589 H         1 NAD400      0.0000 
     55 H          69.9402   96.9496   40.6621 H         1 NAD400      0.0000 
     56 H          70.3279   98.6728   40.5190 H         1 NAD400      0.0000 
     57 H          72.3099   97.3410   40.2411 H         1 NAD400      0.0000 
     58 H          71.4476   99.2720   38.5096 H         1 NAD400      0.0000 
     59 H          70.8561   97.9524   36.8039 H         1 NAD400      0.0000 
     60 H          73.0860   96.0561   37.3577 H         1 NAD400      0.0000 
     61 H          72.8817   94.0900   36.3469 H         1 NAD400      0.0000 
     62 H          70.6326   92.0809   33.1849 H         1 NAD400      0.0000 
     63 H          72.0554   90.9879   33.1059 H         1 NAD400      0.0000 
     64 H          69.4302   92.9859   34.2304 H         1 NAD400      0.0000 
     65 H          68.2967   94.9851   35.0481 H         1 NAD400      0.0000 
     66 H          69.4892   96.5167   36.4927 H         1 NAD400      0.0000 
     67 H          65.7881  100.0929   45.8903 H         1 NAD400      0.0000 
     68 H          66.0762  101.9385   46.8994 H         1 NAD400      0.0000 
     69 H          73.8235   99.0960   37.8196 H         1 NAD400      0.0000 
     70 H          73.4556   97.4307   35.9934 H         1 NAD400      0.0000 
@<TRIPOS>BOND
     1    2    1 ar   
     2    3    1 ar   
     3    4    1 1    
     4   23    1 1    
     5    5    4 1    
     6    6    5 1    
     7   45    5 1    
     8   46    5 1    
     9    7    6 1    
    10    8    6 1    
    11   47    6 1    
    12   12    7 1    
    13    9    8 1    
    14   10    8 1    
    15   48    8 1    
    16   67    9 1    
    17   11   10 1    
    18   12   10 1    
    19   49   10 1    
    20   68   11 1    
    21   13   12 1    
    22   50   12 1    
    23   14   13 1    
    24   22   13 1    
    25   15   14 2    
    26   51   14 1    
    27   16   15 1    
    28   17   16 ar   
    29   22   16 ar   
    30   18   17 1    
    31   19   17 ar   
    32   52   18 1    
    33   53   18 1    
    34   20   19 ar   
    35   21   20 ar   
    36   54   20 1    
    37   22   21 ar   
    38   24   23 1    
    39   25   24 ar   
    40   26   24 ar   
    41   27   24 1    
    42   28   27 1    
    43   29   28 1    
    44   55   28 1    
    45   56   28 1    
    46   30   29 1    
    47   31   29 1    
    48   57   29 1    
    49   35   30 1    
    50   32   31 1    
    51   33   31 1    
    52   58   31 1    
    53   69   32 1    
    54   34   33 1    
    55   35   33 1    
    56   59   33 1    
    57   70   34 1    
    58   36   35 1    
    59   60   35 1    
    60   37   36 ar   
    61   44   36 ar   
    62   38   37 ar   
    63   61   37 1    
    64   39   38 1    
    65   42   38 ar   
    66   40   39 2    
    67   41   39 am   
    68   62   41 1    
    69   63   41 1    
    70   43   42 ar   
    71   64   42 1    
    72   44   43 ar   
    73   65   43 1    
    74   66   44 1    
@<TRIPOS>SUBSTRUCTURE
     1 NAD400      1 GROUP   
@<TRIPOS>SET

