#    Name: 1ie9_VDX_1_INTS_M
#    Modification time : Tue Mar 25 06:58:32 2014

@<TRIPOS>MOLECULE
1ie9_VDX_1_INTS_M
  115     0     9     0     0
SMALL
NO_CHARGES


@<TRIPOS>ATOM
      1 N          17.9080   16.5725   35.0845 N.am      2 SEC2        0.0000 
      2 N          16.9800   17.5100   34.6530 N.am      8 SEL2        0.0000 
      3 N          18.8360   15.6350   35.5160 N.am      5 SEP2        0.0000 
      4 O          17.8555   18.4045   33.9495 O.2       1 ALC1        0.0000 
      5 O          16.9800   17.5100   34.6530 O.2       7 ALL1        0.0000 
      6 O          18.7310   19.2990   33.2460 O.2       4 ALP1        0.0000 
      7 N           4.9035   26.4755   36.2030 N.am      2 SEC2        0.0000 
      8 N           4.6030   26.3090   34.8340 N.am      8 SEL2        0.0000 
      9 N           5.2040   26.6420   37.5720 N.am      5 SEP2        0.0000 
     10 O           5.0700   27.5590   34.4720 O.2       1 ALC1        0.0000 
     11 O           4.6030   26.3090   34.8340 O.2       7 ALL1        0.0000 
     12 O           5.5370   28.8090   34.1100 O.2       4 ALP1        0.0000 
     13 CA         14.3885   17.1870   37.4770 C.3       3 GLC5        0.0000 
     14 CA         14.1900   17.4070   35.5340 C.3       9 GLL5        0.0000 
     15 CA         14.5870   16.9670   39.4200 C.3       6 GLP5        0.0000 
     16 CA         15.6475   18.5915   36.4005 C.3       3 GLC5        0.0000 
     17 CA         17.1050   19.7760   37.2670 C.3       6 GLP5        0.0000 
     18 CA         14.8490   16.9150   31.4140 C.3       3 GLC5        0.0000 
     19 CA         15.3640   18.1640   33.0050 C.3       9 GLL5        0.0000 
     20 CA         14.3340   15.6660   29.8230 C.3       6 GLP5        0.0000 
     21 CA         13.4575   17.5860   32.3580 C.3       3 GLC5        0.0000 
     22 CA         11.5510   17.0080   31.7110 C.3       6 GLP5        0.0000 
     23 CA         15.5080   23.7525   33.9820 C.3       3 GLC5        0.0000 
     24 CA         13.8420   22.8600   33.6810 C.3       9 GLL5        0.0000 
     25 CA         17.1740   24.6450   34.2830 C.3       6 GLP5        0.0000 
     26 CA         15.7650   23.8770   32.5790 C.3       3 GLC5        0.0000 
     27 CA         14.1920   23.3060   32.2700 C.3       9 GLL5        0.0000 
     28 CA         17.3380   24.4480   32.8880 C.3       6 GLP5        0.0000 
     29 CA         12.5815   17.7915   33.2365 C.3       3 GLC5        0.0000 
     30 CA         13.6120   18.5750   34.7620 C.3       9 GLL5        0.0000 
     31 CA         12.3000   21.5535   31.3190 C.3       3 GLC5        0.0000 
     32 CA         12.8740   23.6780   31.5580 C.3       9 GLL5        0.0000 
     33 CA         11.7260   19.4290   31.0800 C.3       6 GLP5        0.0000 
     34 CA         12.1970   26.4490   31.6650 C.3       3 GLC5        0.0000 
     35 CA         12.0280   24.6670   32.4050 C.3       9 GLL5        0.0000 
     36 CA         12.3660   28.2310   30.9250 C.3       6 GLP5        0.0000 
     37 CA         14.5515   22.3120   36.3775 C.3       3 GLC5        0.0000 
     38 CA         12.9450   23.7500   35.9730 C.3       9 GLL5        0.0000 
     39 CA         16.1580   20.8740   36.7820 C.3       6 GLP5        0.0000 
     40 CA          9.2835   22.0605   34.1670 C.3       3 GLC5        0.0000 
     41 CA         10.8410   22.9170   33.8900 C.3       9 GLL5        0.0000 
     42 CA          7.7260   21.2040   34.4440 C.3       6 GLP5        0.0000 
     43 CA         11.5565   18.6410   33.2280 C.3       3 GLC5        0.0000 
     44 CA         12.2960   18.9620   34.8400 C.3       9 GLL5        0.0000 
     45 CA         10.8170   18.3200   31.6160 C.3       6 GLP5        0.0000 
     46 CA         11.0710   17.5555   35.7110 C.3       3 GLC5        0.0000 
     47 CA          9.8460   16.1490   36.5820 C.3       6 GLP5        0.0000 
     48 CA         11.7020   19.9805   36.4230 C.3       3 GLC5        0.0000 
     49 CA         11.1080   20.9990   38.0060 C.3       6 GLP5        0.0000 
     50 CA          8.7545   25.1635   37.5630 C.3       3 GLC5        0.0000 
     51 CA          9.4280   26.5180   36.1020 C.3       9 GLL5        0.0000 
     52 CA          8.0810   23.8090   39.0240 C.3       6 GLP5        0.0000 
     53 CA         10.1840   26.8125   38.0540 C.3       3 GLC5        0.0000 
     54 CA         10.9400   27.1070   40.0060 C.3       6 GLP5        0.0000 
     55 CA          9.1570   28.5335   36.4405 C.3       3 GLC5        0.0000 
     56 CA          8.8860   30.5490   36.7790 C.3       6 GLP5        0.0000 
     57 CA          7.7975   27.0420   37.0020 C.3       3 GLC5        0.0000 
     58 CA          6.1670   27.5660   37.9020 C.3       6 GLP5        0.0000 
     59 CA          9.7835   27.7730   32.7525 C.3       3 GLC5        0.0000 
     60 CA          9.0600   25.8970   33.6160 C.3       9 GLL5        0.0000 
     61 CA         10.5070   29.6490   31.8890 C.3       6 GLP5        0.0000 
     62 CA          7.1495   23.0830   34.3245 C.3       3 GLC5        0.0000 
     63 CA          6.5730   24.9620   34.2050 C.3       9 GLL5        0.0000 
     64 CA          3.8085   25.3670   31.1395 C.3       3 GLC5        0.0000 
     65 CA          4.6470   25.4180   32.6280 C.3       9 GLL5        0.0000 
     66 CA          2.9700   25.3160   29.6510 C.3       6 GLP5        0.0000 
     67 CA          3.1520   27.0010   32.2820 C.3       3 GLC5        0.0000 
     68 CA          1.6570   28.5840   31.9360 C.3       6 GLP5        0.0000 
     69 CA          5.1490   22.1595   35.3865 C.3       3 GLC5        0.0000 
     70 CA          4.2480   24.0530   34.6660 C.3       9 GLL5        0.0000 
     71 CA          6.0500   20.2660   36.1070 C.3       6 GLP5        0.0000 
     72 CA          2.5860   22.8080   34.9450 C.3       3 GLC5        0.0000 
     73 CA          0.9240   21.5630   35.2240 C.3       6 GLP5        0.0000 
     74 N          13.2065   15.5585   37.0930 N.am      2 SEC2        0.0000 
     75 N          13.2270   16.8630   36.4060 N.am      8 SEL2        0.0000 
     76 N          13.1860   14.2540   37.7800 N.am      5 SEP2        0.0000 
     77 O          11.9590   16.5055   35.9190 O.2       1 ALC1        0.0000 
     78 O          13.2270   16.8630   36.4060 O.2       7 ALL1        0.0000 
     79 O          10.6910   16.1480   35.4320 O.2       4 ALP1        0.0000 
     80 CA         16.8125   15.5440   33.3387 C.3       3 GLC5        0.0000 
     81 CA         14.8850   16.3260   34.6780 C.3       9 GLL5        0.0000 
     82 CA         18.1940   14.4240   32.4400 C.3       6 GLP5        0.0000 
     83 CA         14.7575   15.7270   32.5483 C.3       3 GLC5        0.0000 
     84 CA         15.9770   17.0020   33.7970 C.3       9 GLL5        0.0000 
     85 CA         14.0840   14.7900   30.8590 C.3       6 GLP5        0.0000 
     86 CA         16.2986   15.7896   35.7552 C.3       3 GLC5        0.0000 
     87 CA         17.3400   14.6450   37.0590 C.3       6 GLP5        0.0000 
     88 CA         17.6992   17.9875   33.1025 C.3       3 GLC5        0.0000 
     89 CA         19.7280   18.3920   32.8040 C.3       6 GLP5        0.0000 
     90 CA         16.5832   17.6980   31.7270 C.3       3 GLC5        0.0000 
     91 CA         17.4960   17.8130   30.0530 C.3       6 GLP5        0.0000 
     92 CA         16.1703   21.8115   33.9000 C.3       3 GLC5        0.0000 
     93 CA         14.7020   20.4720   33.4950 C.3       9 GLL5        0.0000 
     94 CA         17.9400   22.5680   33.9700 C.3       6 GLP5        0.0000 
     95 CA         13.0448   20.0781   32.4915 C.3       3 GLC5        0.0000 
     96 CA         14.0990   21.6380   34.1650 C.3       9 GLL5        0.0000 
     97 CA         15.0643   21.5615   35.3525 C.3       3 GLC5        0.0000 
     98 CA         14.4320   23.5055   30.1375 C.3       3 GLC5        0.0000 
     99 CA         15.3310   23.5190   28.3610 C.3       6 GLP5        0.0000 
    100 CA         15.1390   20.0349   35.4917 C.3       3 GLC5        0.0000 
    101 CA         14.5540   19.1610   33.7870 C.3       9 GLL5        0.0000 
    102 CA         11.3975   23.3873   30.3972 C.3       3 GLC5        0.0000 
    103 CA         10.3440   22.6020   28.8130 C.3       6 GLP5        0.0000 
    104 CA         14.8790   24.8403   35.0237 C.3       3 GLC5        0.0000 
    105 CA         13.1630   23.9190   34.4800 C.3       9 GLL5        0.0000 
    106 CA         16.7040   25.8460   34.8210 C.3       6 GLP5        0.0000 
    107 CA         11.7333   22.6210   37.0448 C.3       3 GLC5        0.0000 
    108 CA         12.5293   24.6035   38.1513 C.3       3 GLC5        0.0000 
    109 CA         12.7000   24.9640   40.2190 C.3       6 GLP5        0.0000 
    110 CA         12.6140   26.5915   35.9060 C.3       3 GLC5        0.0000 
    111 CA         11.7720   24.7360   36.1940 C.3       9 GLL5        0.0000 
    112 CA         13.7170   28.1740   36.2980 C.3       6 GLP5        0.0000 
    113 CA          7.3515   27.6360   33.4453 C.3       3 GLC5        0.0000 
    114 CA          6.4270   29.2760   33.1800 C.3       6 GLP5        0.0000 
    115 CA          5.8274   27.2646   33.2804 C.3       3 GLC5        0.0000 
@<TRIPOS>BOND
@<TRIPOS>SUBSTRUCTURE
     1 ALC1        4 GROUP        1 X    ALC  0     ROOT ALC X 1
     2 SEC2        1 GROUP        1 X    SEC  0     **** SEC X 2
     3 GLC5       13 GROUP        1 X    GLC  0     **** GLC X 6
     4 ALP1        6 GROUP        1 Y    ALP  0     ROOT ALP Y 8
     5 SEP2        3 GROUP        1 Y    SEP  0     **** SEP Y 9
     6 GLP5       15 GROUP        1 Y    GLP  0     **** GLP Y 13
     7 ALL1        5 GROUP        1 Z    ALL  0     ROOT ALL Z 15
     8 SEL2        2 GROUP        1 Z    SEL  0     **** SEL Z 16
     9 GLL5       14 GROUP        1 Z    GLL  0     **** GLL Z 20
@<TRIPOS>SET

