#    Name: 1ie9_VDX_1_ligand
#    Modification time : Tue Mar 25 06:58:32 2014

@<TRIPOS>MOLECULE
1ie9_VDX_1_ligand
   72    74     1     0     0
SMALL
NO_CHARGES


@<TRIPOS>ATOM
      1 O2         16.9800   17.5100   34.6530 O.3       1 VDX500      0.0000 
      2 O3          4.6030   26.3090   34.8340 O.3       1 VDX500      0.0000 
      3 C1         14.1900   17.4070   35.5340 C.3       1 VDX500      0.0000 
      4 C2         14.8850   16.3260   34.6780 C.3       1 VDX500      0.0000 
      5 C3         15.9770   17.0020   33.7970 C.3       1 VDX500      0.0000 
      6 C4         15.3640   18.1640   33.0050 C.3       1 VDX500      0.0000 
      7 C5         14.5540   19.1610   33.7870 C.2       1 VDX500      0.0000 
      8 C6         14.7020   20.4720   33.4950 C.2       1 VDX500      0.0000 
      9 C7         14.0990   21.6380   34.1650 C.2       1 VDX500      0.0000 
     10 C8         13.8420   22.8600   33.6810 C.2       1 VDX500      0.0000 
     11 C9         14.1920   23.3060   32.2700 C.3       1 VDX500      0.0000 
     12 C10        13.6120   18.5750   34.7620 C.2       1 VDX500      0.0000 
     13 C11        12.8740   23.6780   31.5580 C.3       1 VDX500      0.0000 
     14 C12        12.0280   24.6670   32.4050 C.3       1 VDX500      0.0000 
     15 C13        11.7400   24.1920   33.8560 C.3       1 VDX500      0.0000 
     16 C14        13.1630   23.9190   34.4800 C.3       1 VDX500      0.0000 
     17 C15        12.9450   23.7500   35.9730 C.3       1 VDX500      0.0000 
     18 C16        11.7720   24.7360   36.1940 C.3       1 VDX500      0.0000 
     19 C17        11.2500   25.2820   34.8340 C.3       1 VDX500      0.0000 
     20 C18        10.8410   22.9170   33.8900 C.3       1 VDX500      0.0000 
     21 C19        12.2960   18.9620   34.8400 C.2       1 VDX500      0.0000 
     22 C20         9.7230   25.5380   34.9110 C.3       1 VDX500      0.0000 
     23 C21         9.4280   26.5180   36.1020 C.3       1 VDX500      0.0000 
     24 C22         9.0600   25.8970   33.6160 C.3       1 VDX500      0.0000 
     25 C23         7.4920   26.0950   33.8050 C.3       1 VDX500      0.0000 
     26 C24         6.5730   24.9620   34.2050 C.3       1 VDX500      0.0000 
     27 C25         5.0440   25.2150   34.0620 C.3       1 VDX500      0.0000 
     28 C26         4.6470   25.4180   32.6280 C.3       1 VDX500      0.0000 
     29 C27         4.2480   24.0530   34.6660 C.3       1 VDX500      0.0000 
     30 O1         13.2270   16.8630   36.4060 O.3       1 VDX500      0.0000 
     31 H          15.0215   17.8523   36.1764 H         1 VDX500      0.0000 
     32 H          14.1607   15.8547   34.0370 H         1 VDX500      0.0000 
     33 H          15.3537   15.6034   35.3229 H         1 VDX500      0.0000 
     34 H          16.3496   16.2754   33.1163 H         1 VDX500      0.0000 
     35 H          14.7310   17.7328   32.1925 H         1 VDX500      0.0000 
     36 H          16.1909   18.6963   32.4762 H         1 VDX500      0.0000 
     37 H          15.3417   20.7486   32.6634 H         1 VDX500      0.0000 
     38 H          13.8405   21.4274   35.2062 H         1 VDX500      0.0000 
     39 H          14.6635   22.5011   31.7369 H         1 VDX500      0.0000 
     40 H          14.8277   24.1714   32.3056 H         1 VDX500      0.0000 
     41 H          12.2924   22.7753   31.3871 H         1 VDX500      0.0000 
     42 H          13.1025   24.1414   30.6012 H         1 VDX500      0.0000 
     43 H          11.0694   24.8377   31.8941 H         1 VDX500      0.0000 
     44 H          12.5532   25.6321   32.4486 H         1 VDX500      0.0000 
     45 H          13.6942   24.8914   34.3256 H         1 VDX500      0.0000 
     46 H          13.7813   24.0828   36.5058 H         1 VDX500      0.0000 
     47 H          12.6249   22.7780   36.1892 H         1 VDX500      0.0000 
     48 H          12.1135   25.5669   36.7984 H         1 VDX500      0.0000 
     49 H          10.9642   24.2218   36.6995 H         1 VDX500      0.0000 
     50 H          11.7860   26.1845   34.6423 H         1 VDX500      0.0000 
     51 H           9.2834   24.5444   35.2592 H         1 VDX500      0.0000 
     52 H           9.1985   25.1107   32.8775 H         1 VDX500      0.0000 
     53 H           9.4570   26.8296   33.2216 H         1 VDX500      0.0000 
     54 H           7.1136   26.5554   32.8360 H         1 VDX500      0.0000 
     55 H           7.3695   26.9510   34.5442 H         1 VDX500      0.0000 
     56 H           6.7716   24.6820   35.2647 H         1 VDX500      0.0000 
     57 H           6.8228   24.0555   33.6079 H         1 VDX500      0.0000 
     58 H          11.2697   22.1476   33.4165 H         1 VDX500      0.0000 
     59 H          10.6553   22.6184   34.8261 H         1 VDX500      0.0000 
     60 H           9.9561   23.0747   33.4516 H         1 VDX500      0.0000 
     61 H           9.7301   26.1403   36.9773 H         1 VDX500      0.0000 
     62 H           9.8934   27.3953   35.9851 H         1 VDX500      0.0000 
     63 H           8.4512   26.7137   36.1887 H         1 VDX500      0.0000 
     64 H           5.0470   26.2512   32.2463 H         1 VDX500      0.0000 
     65 H           4.9441   24.6585   32.0493 H         1 VDX500      0.0000 
     66 H           3.6553   25.4949   32.5245 H         1 VDX500      0.0000 
     67 H           4.4562   23.1856   34.2140 H         1 VDX500      0.0000 
     68 H           4.4474   23.9320   35.6384 H         1 VDX500      0.0000 
     69 H           3.2617   24.1966   34.5847 H         1 VDX500      0.0000 
     70 H          17.7252   17.7832   34.0447 H         1 VDX500      0.0000 
     71 H           4.9529   27.1108   34.3498 H         1 VDX500      0.0000 
     72 H          12.4274   16.6879   35.8316 H         1 VDX500      0.0000 
@<TRIPOS>BOND
     1    5    1 1    
     2   70    1 1    
     3   27    2 1    
     4   71    2 1    
     5    4    3 1    
     6   12    3 1    
     7   30    3 1    
     8   31    3 1    
     9    5    4 1    
    10   32    4 1    
    11   33    4 1    
    12    6    5 1    
    13   34    5 1    
    14    7    6 1    
    15   35    6 1    
    16   36    6 1    
    17    8    7 2    
    18   12    7 1    
    19    9    8 1    
    20   37    8 1    
    21   10    9 2    
    22   38    9 1    
    23   11   10 1    
    24   16   10 1    
    25   13   11 1    
    26   39   11 1    
    27   40   11 1    
    28   21   12 2    
    29   14   13 1    
    30   41   13 1    
    31   42   13 1    
    32   15   14 1    
    33   43   14 1    
    34   44   14 1    
    35   16   15 1    
    36   19   15 1    
    37   20   15 1    
    38   17   16 1    
    39   45   16 1    
    40   18   17 1    
    41   46   17 1    
    42   47   17 1    
    43   19   18 1    
    44   48   18 1    
    45   49   18 1    
    46   22   19 1    
    47   50   19 1    
    48   58   20 1    
    49   59   20 1    
    50   60   20 1    
    51   23   22 1    
    52   24   22 1    
    53   51   22 1    
    54   61   23 1    
    55   62   23 1    
    56   63   23 1    
    57   25   24 1    
    58   52   24 1    
    59   53   24 1    
    60   26   25 1    
    61   54   25 1    
    62   55   25 1    
    63   27   26 1    
    64   56   26 1    
    65   57   26 1    
    66   28   27 1    
    67   29   27 1    
    68   64   28 1    
    69   65   28 1    
    70   66   28 1    
    71   67   29 1    
    72   68   29 1    
    73   69   29 1    
    74   72   30 1    
@<TRIPOS>SUBSTRUCTURE
     1 VDX500      1 GROUP   
@<TRIPOS>SET

