#    Name: 1FTX_1_CAVITY_N1_ALL.mol2
#    Modification time : Mon Mar 10 23:55:27 2014

@<TRIPOS>MOLECULE
1FTX_1_CAVITY_N1_ALL.mol2
   60     0     6     0     0
SMALL
NO_CHARGES


@<TRIPOS>ATOM
      1 O          23.0509   10.9289   67.7670 O.2       2 ALA2        0.0000 
      2 N          21.5524   10.9906   67.7429 N.2       2 ALA2        0.0000 
      3 O          21.8003   14.3921   61.0632 O.2       2 ALA2        0.0000 
      4 O          26.0920   12.1409   68.4971 O.2       2 ALA2        0.0000 
      5 CA         24.5438   11.5223   69.8089 C.3       6 GLY6        0.0000 
      6 O          24.5934   12.2026   68.4729 O.2       2 ALA2        0.0000 
      7 CA         23.0453   11.5840   69.7847 C.3       6 GLY6        0.0000 
      8 O          23.0949   12.2643   68.4487 O.2       2 ALA2        0.0000 
      9 N          23.1445   12.9446   67.1128 N.2       2 ALA2        0.0000 
     10 N          23.1940   13.6249   65.7768 N.2       2 ALA2        0.0000 
     11 OG         23.2436   14.3052   64.4409 O.2       1 SER1        0.0000 
     12 CZ         23.2932   14.9855   63.1050 C.ar      5 PHE5        0.0000 
     13 CZ         23.3428   15.6658   61.7690 C.ar      5 PHE5        0.0000 
     14 CA         21.5468   11.6457   69.7605 C.3       6 GLY6        0.0000 
     15 CA         21.5964   12.3260   68.4245 C.3       6 GLY6        0.0000 
     16 CA         21.6459   13.0063   67.0886 C.3       6 GLY6        0.0000 
     17 CA         21.6955   13.6866   65.7527 C.3       6 GLY6        0.0000 
     18 O          21.7451   14.3669   64.4167 O.2       2 ALA2        0.0000 
     19 OG         21.7947   15.0472   63.0808 O.2       1 SER1        0.0000 
     20 OG         21.8442   15.7275   61.7448 O.2       1 SER1        0.0000 
     21 NZ         21.8938   16.4078   60.4089 N.2       4 LYS4        0.0000 
     22 CA         20.0978   12.3877   68.4003 C.3       6 GLY6        0.0000 
     23 CA         20.1474   13.0680   67.0644 C.3       6 GLY6        0.0000 
     24 CA         20.1970   13.7483   65.7285 C.3       6 GLY6        0.0000 
     25 OG         20.2466   14.4286   64.3925 O.2       1 SER1        0.0000 
     26 O          27.5849   12.7343   70.5389 O.2       2 ALA2        0.0000 
     27 CA         26.0864   12.7960   70.5147 C.3       6 GLY6        0.0000 
     28 O          26.1359   13.4763   69.1788 O.2       2 ALA2        0.0000 
     29 O          26.1855   14.1566   67.8428 O.2       2 ALA2        0.0000 
     30 CA         24.5878   12.8577   70.4905 C.3       6 GLY6        0.0000 
     31 CA         24.6374   13.5380   69.1546 C.3       6 GLY6        0.0000 
     32 OG         24.6870   14.2183   67.8186 O.2       1 SER1        0.0000 
     33 CA         23.0893   12.9194   70.4663 C.3       6 GLY6        0.0000 
     34 CA         23.1389   13.5997   69.1304 C.3       6 GLY6        0.0000 
     35 OG         23.1885   14.2800   67.7945 O.2       1 SER1        0.0000 
     36 OG         23.2380   14.9603   66.4585 O.2       1 SER1        0.0000 
     37 OG         23.2876   15.6406   65.1226 O.2       1 SER1        0.0000 
     38 OG         23.3372   16.3209   63.7866 O.2       1 SER1        0.0000 
     39 CZ         23.3868   17.0012   62.4507 C.ar      5 PHE5        0.0000 
     40 OG         21.6403   13.6615   69.1062 O.2       1 SER1        0.0000 
     41 OG         21.6899   14.3418   67.7703 O.2       1 SER1        0.0000 
     42 OG         21.7395   15.0221   66.4343 O.2       1 SER1        0.0000 
     43 OG         21.7891   15.7023   65.0984 O.2       1 SER1        0.0000 
     44 OG         21.9378   17.7432   61.0906 O.2       1 SER1        0.0000 
     45 OG         20.1914   14.4035   67.7461 O.2       1 SER1        0.0000 
     46 OG         20.2410   15.0838   66.4101 O.2       1 SER1        0.0000 
     47 O          27.6289   14.0698   71.2206 O.2       2 ALA2        0.0000 
     48 O          27.6785   14.7501   69.8846 O.2       2 ALA2        0.0000 
     49 CA         26.0808   13.4512   72.5323 C.3       6 GLY6        0.0000 
     50 CA         26.1304   14.1315   71.1964 C.3       6 GLY6        0.0000 
     51 CA         26.1799   14.8118   69.8604 C.3       6 GLY6        0.0000 
     52 O          26.2295   15.4921   68.5245 O.2       2 ALA2        0.0000 
     53 OD1        24.7310   15.5538   68.5003 O.3       3 ASP3        0.0000 
     54 OG         24.7806   16.2341   67.1644 O.2       1 SER1        0.0000 
     55 OD1        23.2324   15.6155   68.4761 O.3       3 ASP3        0.0000 
     56 OG         23.2820   16.2958   67.1402 O.2       1 SER1        0.0000 
     57 OG         23.3316   16.9761   65.8042 O.2       1 SER1        0.0000 
     58 OG         21.7835   16.3575   67.1160 O.2       1 SER1        0.0000 
     59 NZ         27.6729   15.4052   71.9023 N.2       4 LYS4        0.0000 
     60 OD1        24.8245   17.5695   67.8461 O.3       3 ASP3        0.0000 
@<TRIPOS>BOND
@<TRIPOS>SUBSTRUCTURE
     1 SER1       11 GROUP   
     2 ALA2        1 GROUP   
     3 ASP3       53 GROUP   
     4 LYS4       21 GROUP   
     5 PHE5       12 GROUP   
     6 GLY6        5 GROUP   
@<TRIPOS>SET

