#    Name: 1ftx_EPC_1_INTS_M
#    Modification time : Tue Mar 25 02:05:53 2014

@<TRIPOS>MOLECULE
1ftx_EPC_1_INTS_M
   73     0     9     0     0
SMALL
NO_CHARGES


@<TRIPOS>ATOM
      1 CA         24.1980   16.4160   69.8995 C.3       3 GLC5        0.0000 
      2 CA         24.2000   16.8700   67.9600 C.3       9 GLL5        0.0000 
      3 CA         24.1960   15.9620   71.8390 C.3       6 GLP5        0.0000 
      4 CA         24.8140   18.5690   69.1120 C.3       3 GLC5        0.0000 
      5 CA         25.4280   20.2680   70.2640 C.3       6 GLP5        0.0000 
      6 N          23.8420   16.2750   69.7510 N.am      1 SEC2        0.0000 
      7 N          24.1210   15.4660   68.4090 N.am      7 SEL2        0.0000 
      8 N          23.5630   17.0840   71.0930 N.am      4 SEP2        0.0000 
      9 N          23.3345    9.1720   68.9360 N.am      1 SEC2        0.0000 
     10 N          23.3750   10.4800   68.8280 N.am      7 SEL2        0.0000 
     11 N          23.2940    7.8640   69.0440 N.am      4 SEP2        0.0000 
     12 N          23.8725    9.0975   67.9195 N.am      1 SEC2        0.0000 
     13 N          24.3700    7.7150   67.0110 N.am      4 SEP2        0.0000 
     14 CA         26.4575    8.6450   69.8800 C.3       3 GLC5        0.0000 
     15 CA         25.8410   10.5490   69.3680 C.3       9 GLL5        0.0000 
     16 CA         27.0740    6.7410   70.3920 C.3       6 GLP5        0.0000 
     17 N          27.0110   13.1615   68.3835 N.am      1 SEC2        0.0000 
     18 N          25.6020   13.3610   68.9740 N.am      7 SEL2        0.0000 
     19 N          28.4200   12.9620   67.7930 N.am      4 SEP2        0.0000 
     20 CA         21.2670    9.6630   68.9610 C.3       3 GLC5        0.0000 
     21 CA         22.1720   11.0320   68.4930 C.3       9 GLL5        0.0000 
     22 CA         20.3620    8.2940   69.4290 C.3       6 GLP5        0.0000 
     23 CA         18.8520   13.5870   68.3960 C.3       3 GLC5        0.0000 
     24 CA         20.6920   12.9480   67.9210 C.3       9 GLL5        0.0000 
     25 CA         17.0120   14.2260   68.8710 C.3       6 GLP5        0.0000 
     26 N          20.1570   16.2350   63.9710 N.am      1 SEC2        0.0000 
     27 N          20.1640   15.1010   64.4650 N.am      7 SEL2        0.0000 
     28 N          20.1500   17.3690   63.4770 N.am      4 SEP2        0.0000 
     29 N          19.8195   16.1295   68.2915 N.am      1 SEC2        0.0000 
     30 N          19.3280   15.8200   67.1200 N.am      7 SEL2        0.0000 
     31 N          20.3110   16.4390   69.4630 N.am      4 SEP2        0.0000 
     32 N          18.0685   15.9875   67.2825 N.am      1 SEC2        0.0000 
     33 N          16.8090   16.1550   67.4450 N.am      4 SEP2        0.0000 
     34 N          18.1065   12.3550   65.0325 N.am      1 SEC2        0.0000 
     35 N          18.2320   13.3680   65.8540 N.am      7 SEL2        0.0000 
     36 N          17.9810   11.3420   64.2110 N.am      4 SEP2        0.0000 
     37 N          17.0750   13.3555   65.5615 N.am      1 SEC2        0.0000 
     38 N          15.9180   13.3430   65.2690 N.am      4 SEP2        0.0000 
     39 N          17.4990   13.1275   67.1130 N.am      1 SEC2        0.0000 
     40 N          16.7660   12.8870   68.3720 N.am      4 SEP2        0.0000 
     41 NZ         24.9860   17.1790   70.3115 N.4       2 LYC4        0.0000 
     42 NZ         26.4090   17.2740   69.5300 N.4       8 LYL4        0.0000 
     43 NZ         23.5630   17.0840   71.0930 N.4       5 LYP4        0.0000 
     44 N          24.9860   17.1790   70.3115 N.am      1 SEC2        0.0000 
     45 N          26.4090   17.2740   69.5300 N.am      7 SEL2        0.0000 
     46 N          26.9375   18.8640   69.2255 N.am      1 SEC2        0.0000 
     47 N          27.4660   20.4540   68.9210 N.am      4 SEP2        0.0000 
     48 N          26.7645   19.6435   68.1415 N.am      1 SEC2        0.0000 
     49 N          26.0630   18.8330   67.3620 N.am      7 SEL2        0.0000 
     50 NZ         27.7915   15.7945   67.4155 N.4       2 LYC4        0.0000 
     51 NZ         26.6640   16.3960   67.1460 N.4       8 LYL4        0.0000 
     52 NZ         29.3140   13.9350   67.7420 N.4       5 LYP4        0.0000 
     53 N          27.7915   15.7945   67.4155 N.am      1 SEC2        0.0000 
     54 N          26.6640   16.3960   67.1460 N.am      7 SEL2        0.0000 
     55 N          28.9190   15.1930   67.6850 N.am      4 SEP2        0.0000 
     56 N          26.2665   15.8115   66.1230 N.am      1 SEC2        0.0000 
     57 N          25.8690   15.2270   65.1000 N.am      4 SEP2        0.0000 
     58 CA         22.0455   17.8275   66.0390 C.3       3 GLC5        0.0000 
     59 CA         23.5870   17.0720   66.5550 C.3       9 GLL5        0.0000 
     60 CA         20.5040   18.5830   65.5230 C.3       6 GLP5        0.0000 
     61 CA         25.0060   16.5065   65.3070 C.3       3 GLC5        0.0000 
     62 CA         26.4250   15.9410   64.0590 C.3       6 GLP5        0.0000 
     63 CA         25.8657   10.6720   67.2612 C.3       3 GLC5        0.0000 
     64 CA         24.5120   11.2290   68.9930 C.3       9 GLL5        0.0000 
     65 CA         26.5550   10.4550   65.3420 C.3       6 GLP5        0.0000 
     66 CA         24.0090   14.4550   70.2348 C.3       3 GLC5        0.0000 
     67 CA         24.4410   12.6490   68.8050 C.3       9 GLL5        0.0000 
     68 CA         24.5219   11.6700   70.9204 C.3       3 GLC5        0.0000 
     69 CA         24.2350   11.5710   72.8480 C.3       6 GLP5        0.0000 
     70 CA         20.2076   12.2393   69.6175 C.3       3 GLC5        0.0000 
     71 CA         19.0170   12.1430   71.0770 C.3       6 GLP5        0.0000 
     72 CA         21.1271   11.6308   66.2530 C.3       3 GLC5        0.0000 
     73 CA         20.8560   10.9260   64.3480 C.3       6 GLP5        0.0000 
@<TRIPOS>BOND
@<TRIPOS>SUBSTRUCTURE
     1 SEC2        6 GROUP        1 X    SEC  0     ROOT SEC X 2
     2 LYC4       41 GROUP        1 X    LYC  0     **** LYC X 4
     3 GLC5        1 GROUP        1 X    GLC  0     **** GLC X 6
     4 SEP2        8 GROUP        1 Y    SEP  0     ROOT SEP Y 9
     5 LYP4       43 GROUP        1 Y    LYP  0     **** LYP Y 11
     6 GLP5        3 GROUP        1 Y    GLP  0     **** GLP Y 13
     7 SEL2        7 GROUP        1 Z    SEL  0     ROOT SEL Z 16
     8 LYL4       42 GROUP        1 Z    LYL  0     **** LYL Z 18
     9 GLL5        2 GROUP        1 Z    GLL  0     **** GLL Z 20
@<TRIPOS>SET

