#    Name: 1ftx_EPC_1_ligand
#    Modification time : Tue Mar 25 02:05:53 2014

@<TRIPOS>MOLECULE
1ftx_EPC_1_ligand
   34    34     1     0     0
SMALL
NO_CHARGES


@<TRIPOS>ATOM
      1 C          24.2000   16.8700   67.9600 C.3       1 EPC1001     0.0000 
      2 N2         24.1210   15.4660   68.4090 N.2       1 EPC1001     0.0000 
      3 N1         23.3750   10.4800   68.8280 N.ar      1 EPC1001     0.0000 
      4 C2         24.5120   11.2290   68.9930 C.ar      1 EPC1001     0.0000 
      5 C2A        25.8410   10.5490   69.3680 C.3       1 EPC1001     0.0000 
      6 C3         24.4410   12.6490   68.8050 C.ar      1 EPC1001     0.0000 
      7 O1         25.6020   13.3610   68.9740 O.3       1 EPC1001     0.0000 
      8 C4         23.2030   13.2470   68.4560 C.ar      1 EPC1001     0.0000 
      9 C4A        23.1070   14.6980   68.2700 C.2       1 EPC1001     0.0000 
     10 C5         22.0370   12.4140   68.2970 C.ar      1 EPC1001     0.0000 
     11 C6         22.1720   11.0320   68.4930 C.ar      1 EPC1001     0.0000 
     12 C5A        20.6920   12.9480   67.9210 C.3       1 EPC1001     0.0000 
     13 O2         20.8190   13.5650   66.6450 O.3       1 EPC1001     0.0000 
     14 P1         19.6610   14.4390   66.0480 P.3       1 EPC1001     0.0000 
     15 O3         20.1640   15.1010   64.4650 O.co2     1 EPC1001     0.0000 
     16 O4         19.3280   15.8200   67.1200 O.co2     1 EPC1001     0.0000 
     17 O5         18.2320   13.3680   65.8540 O.co2     1 EPC1001     0.0000 
     18 P2         25.9160   17.3500   67.9790 P.3       1 EPC1001     0.0000 
     19 O7         26.4090   17.2740   69.5300 O.co2     1 EPC1001     0.0000 
     20 O8         26.0630   18.8330   67.3620 O.co2     1 EPC1001     0.0000 
     21 O6         26.6640   16.3960   67.1460 O.co2     1 EPC1001     0.0000 
     22 CA         23.5870   17.0720   66.5550 C.3       1 EPC1001     0.0000 
     23 H          23.7629   17.5427   68.6658 H         1 EPC1001     0.0000 
     24 H          22.1457   15.0383   68.0170 H         1 EPC1001     0.0000 
     25 H          21.3323   10.4314   68.3775 H         1 EPC1001     0.0000 
     26 H          20.3735   13.6610   68.6826 H         1 EPC1001     0.0000 
     27 H          19.9812   12.1209   67.8988 H         1 EPC1001     0.0000 
     28 H          26.5856   11.2109   69.4538 H         1 EPC1001     0.0000 
     29 H          25.7772   10.0649   70.2407 H         1 EPC1001     0.0000 
     30 H          26.1222    9.8790   68.6810 H         1 EPC1001     0.0000 
     31 H          23.6424   18.0257   66.2592 H         1 EPC1001     0.0000 
     32 H          24.0555   16.5228   65.8629 H         1 EPC1001     0.0000 
     33 H          22.6214   16.8131   66.5304 H         1 EPC1001     0.0000 
     34 H          25.3186   14.3200   68.9815 H         1 EPC1001     0.0000 
@<TRIPOS>BOND
     1    2    1 1    
     2   18    1 1    
     3   22    1 1    
     4   23    1 1    
     5    9    2 2    
     6    4    3 ar   
     7   11    3 ar   
     8    5    4 1    
     9    6    4 ar   
    10   28    5 1    
    11   29    5 1    
    12   30    5 1    
    13    7    6 1    
    14    8    6 ar   
    15   34    7 1    
    16    9    8 1    
    17   10    8 ar   
    18   24    9 1    
    19   11   10 ar   
    20   12   10 1    
    21   25   11 1    
    22   13   12 1    
    23   26   12 1    
    24   27   12 1    
    25   14   13 1    
    26   15   14 ar   
    27   16   14 ar   
    28   17   14 ar   
    29   19   18 ar   
    30   20   18 ar   
    31   21   18 ar   
    32   31   22 1    
    33   32   22 1    
    34   33   22 1    
@<TRIPOS>SUBSTRUCTURE
     1 EPC1001     1 GROUP   
@<TRIPOS>SET

