#    Name: 3qov_ADP_3_INTS_M
#    Modification time : Tue Mar 25 09:59:05 2014

@<TRIPOS>MOLECULE
3qov_ADP_3_INTS_M
   42     0    12     0     0
SMALL
NO_CHARGES


@<TRIPOS>ATOM
      1 NZ          3.0880   41.0010   55.2905 N.4       3 LYC4        0.0000 
      2 NZ          2.5080   41.7720   53.7890 N.4      11 LYL4        0.0000 
      3 NZ          3.6680   40.2300   56.7920 N.4       7 LYP4        0.0000 
      4 N          -3.0740   41.7645   54.4195 N.am      2 SEC2        0.0000 
      5 N          -1.9560   40.9470   54.4170 N.am     10 SEL2        0.0000 
      6 N          -4.1920   42.5820   54.4220 N.am      6 SEP2        0.0000 
      7 N          -2.5340   41.4840   53.1540 N.am      2 SEC2        0.0000 
      8 N          -3.1120   42.0210   51.8910 N.am      6 SEP2        0.0000 
      9 O          -1.1915   38.5490   61.1045 O.2       1 ALC1        0.0000 
     10 O          -1.6060   39.4010   59.6870 O.2       9 ALL1        0.0000 
     11 O          -0.7770   37.6970   62.5220 O.2       5 ALP1        0.0000 
     12 O          -1.9770   39.3180   60.9680 O.2       1 ALC1        0.0000 
     13 O          -2.3480   39.2350   62.2490 O.2       5 ALP1        0.0000 
     14 O           0.0260   38.1305   61.6265 O.2       1 ALC1        0.0000 
     15 O           0.8290   38.5640   60.7310 O.2       9 ALL1        0.0000 
     16 N           3.0790   44.7485   59.7785 N.am      2 SEC2        0.0000 
     17 N           1.6360   44.3370   60.5000 N.am     10 SEL2        0.0000 
     18 N           4.5220   45.1600   59.0570 N.am      6 SEP2        0.0000 
     19 CA          4.1160   45.9590   61.3675 C.3       4 GLC5        0.0000 
     20 CA          3.1020   44.6020   62.6670 C.3      12 GLL5        0.0000 
     21 CA          5.1300   47.3160   60.0680 C.3       8 GLP5        0.0000 
     22 O           3.8070   46.7895   63.7325 O.2       1 ALC1        0.0000 
     23 O           3.0830   45.9490   62.8530 O.2       9 ALL1        0.0000 
     24 O           4.5310   47.6300   64.6120 O.2       5 ALP1        0.0000 
     25 O           2.6525   46.8870   61.9860 O.2       1 ALC1        0.0000 
     26 O           2.2220   47.8250   61.1190 O.2       5 ALP1        0.0000 
     27 CA          5.4955   41.8380   63.7230 C.3       4 GLC5        0.0000 
     28 CA          3.8870   42.4790   63.4140 C.3      12 GLL5        0.0000 
     29 CA          7.1040   41.1970   64.0320 C.3       8 GLP5        0.0000 
     30 CA          2.8910   41.7175   64.7375 C.3       4 GLC5        0.0000 
     31 CA          1.8950   40.9560   66.0610 C.3       8 GLP5        0.0000 
     32 CA         -0.6995   41.4420   61.4417 C.3       4 GLC5        0.0000 
     33 CA         -0.5220   40.3310   59.6320 C.3      12 GLL5        0.0000 
     34 CA         -1.4340   42.7210   62.7600 C.3       8 GLP5        0.0000 
     35 CA         -2.0724   41.0478   58.1003 C.3       4 GLC5        0.0000 
     36 CA         -3.8140   41.6890   57.5070 C.3       8 GLP5        0.0000 
     37 CA          3.5785   43.5448   59.9382 C.3       4 GLC5        0.0000 
     38 CA          2.5940   42.4900   61.5400 C.3      12 GLL5        0.0000 
     39 CA          4.6420   43.8870   58.3210 C.3       8 GLP5        0.0000 
     40 CA          1.2275   45.6382   62.0205 C.3       4 GLC5        0.0000 
     41 CA          2.4360   43.9150   61.5710 C.3      12 GLL5        0.0000 
     42 CA         -0.3140   47.0180   61.9220 C.3       8 GLP5        0.0000 
@<TRIPOS>BOND
@<TRIPOS>SUBSTRUCTURE
     1 ALC1        9 GROUP        1 X    ALC  0     ROOT ALC X 1
     2 SEC2        4 GROUP        1 X    SEC  0     **** SEC X 2
     3 LYC4        1 GROUP        1 X    LYC  0     **** LYC X 4
     4 GLC5       19 GROUP        1 X    GLC  0     **** GLC X 6
     5 ALP1       11 GROUP        1 Y    ALP  0     ROOT ALP Y 8
     6 SEP2        6 GROUP        1 Y    SEP  0     **** SEP Y 9
     7 LYP4        3 GROUP        1 Y    LYP  0     **** LYP Y 11
     8 GLP5       21 GROUP        1 Y    GLP  0     **** GLP Y 13
     9 ALL1       10 GROUP        1 Z    ALL  0     ROOT ALL Z 15
    10 SEL2        5 GROUP        1 Z    SEL  0     **** SEL Z 16
    11 LYL4        2 GROUP        1 Z    LYL  0     **** LYL Z 18
    12 GLL5       20 GROUP        1 Z    GLL  0     **** GLL Z 20
@<TRIPOS>SET

