#    Name: 3qov_ADP_3_ligand
#    Modification time : Tue Mar 25 09:59:05 2014

@<TRIPOS>MOLECULE
3qov_ADP_3_ligand
   39    41     1     0     0
SMALL
NO_CHARGES


@<TRIPOS>ATOM
      1 PB          1.4360   42.8610   53.9630 P.3       1 ADP437      0.0000 
      2 O1B         1.2060   43.5030   52.5400 O.co2     1 ADP437      0.0000 
      3 O2B         2.5080   41.7720   53.7890 O.co2     1 ADP437      0.0000 
      4 O3B         1.8540   43.7970   55.1700 O.co2     1 ADP437      0.0000 
      5 PA         -0.3990   40.8970   54.5520 P.3       1 ADP437      0.0000 
      6 O1A         0.2740   40.0830   53.4330 O.co2     1 ADP437      0.0000 
      7 O2A        -1.9560   40.9470   54.4170 O.co2     1 ADP437      0.0000 
      8 O3A         0.0310   42.3670   54.4660 O.3       1 ADP437      0.0000 
      9 O5'         0.1600   40.3660   55.9960 O.3       1 ADP437      0.0000 
     10 C5'        -0.5070   40.7810   57.1710 C.3       1 ADP437      0.0000 
     11 C4'         0.2280   40.1830   58.3390 C.3       1 ADP437      0.0000 
     12 O4'         1.6040   40.6010   58.5430 O.3       1 ADP437      0.0000 
     13 C3'        -0.5220   40.3310   59.6320 C.3       1 ADP437      0.0000 
     14 O3'        -1.6060   39.4010   59.6870 O.3       1 ADP437      0.0000 
     15 C2'         0.5920   39.9950   60.6150 C.3       1 ADP437      0.0000 
     16 O2'         0.8290   38.5640   60.7310 O.3       1 ADP437      0.0000 
     17 C1'         1.7970   40.6810   59.9880 C.3       1 ADP437      0.0000 
     18 N9          1.8930   42.0800   60.4420 N.pl3     1 ADP437      0.0000 
     19 C8          1.3400   43.2190   59.8690 C.2       1 ADP437      0.0000 
     20 N7          1.6360   44.3370   60.5000 N.2       1 ADP437      0.0000 
     21 C5          2.4360   43.9150   61.5710 C.ar      1 ADP437      0.0000 
     22 C6          3.1020   44.6020   62.6670 C.ar      1 ADP437      0.0000 
     23 N6          3.0830   45.9490   62.8530 N.pl3     1 ADP437      0.0000 
     24 N1          3.8220   43.8510   63.5740 N.ar      1 ADP437      0.0000 
     25 C2          3.8870   42.4790   63.4140 C.ar      1 ADP437      0.0000 
     26 N3          3.3070   41.7140   62.4170 N.ar      1 ADP437      0.0000 
     27 C4          2.5940   42.4900   61.5400 C.ar      1 ADP437      0.0000 
     28 H          -1.5397   40.4314   57.2002 H         1 ADP437      0.0000 
     29 H          -0.5028   41.8660   57.2822 H         1 ADP437      0.0000 
     30 H           0.2520   39.0531   58.1557 H         1 ADP437      0.0000 
     31 H          -0.7875   41.3359   59.7550 H         1 ADP437      0.0000 
     32 H           0.3864   40.4659   61.5380 H         1 ADP437      0.0000 
     33 H           2.6738   40.1277   60.2716 H         1 ADP437      0.0000 
     34 H           0.7707   43.1561   59.0472 H         1 ADP437      0.0000 
     35 H           2.2640   46.4257   62.5338 H         1 ADP437      0.0000 
     36 H           3.8897   46.3439   63.2926 H         1 ADP437      0.0000 
     37 H           4.4613   41.9369   64.1589 H         1 ADP437      0.0000 
     38 H          -1.8389   39.3323   60.6571 H         1 ADP437      0.0000 
     39 H          -0.0425   38.1815   61.0380 H         1 ADP437      0.0000 
@<TRIPOS>BOND
     1    2    1 ar   
     2    3    1 ar   
     3    4    1 ar   
     4    8    1 1    
     5    6    5 ar   
     6    7    5 ar   
     7    8    5 1    
     8    9    5 1    
     9   10    9 1    
    10   11   10 1    
    11   28   10 1    
    12   29   10 1    
    13   12   11 1    
    14   13   11 1    
    15   30   11 1    
    16   17   12 1    
    17   14   13 1    
    18   15   13 1    
    19   31   13 1    
    20   38   14 1    
    21   16   15 1    
    22   17   15 1    
    23   32   15 1    
    24   39   16 1    
    25   18   17 1    
    26   33   17 1    
    27   19   18 1    
    28   27   18 1    
    29   20   19 2    
    30   34   19 1    
    31   21   20 1    
    32   22   21 ar   
    33   27   21 ar   
    34   23   22 1    
    35   24   22 ar   
    36   35   23 1    
    37   36   23 1    
    38   25   24 ar   
    39   26   25 ar   
    40   37   25 1    
    41   27   26 ar   
@<TRIPOS>SUBSTRUCTURE
     1 ADP437      1 GROUP   
@<TRIPOS>SET

