#    Name: 1z9h_IMN_2_INTS_M
#    Modification time : Tue Mar 25 11:37:06 2014

@<TRIPOS>MOLECULE
1z9h_IMN_2_INTS_M
   54     0     3     0     0
SMALL
NO_CHARGES


@<TRIPOS>ATOM
      1 CA        -12.6755   16.9860   23.2145 C.3       1 GLC5        0.0000 
      2 CA        -11.7660   16.1230   21.4560 C.3       3 GLL5        0.0000 
      3 CA        -13.5850   17.8490   24.9730 C.3       2 GLP5        0.0000 
      4 CA        -14.8950   13.6705   20.0550 C.3       1 GLC5        0.0000 
      5 CA        -13.0300   14.2630   19.5580 C.3       3 GLL5        0.0000 
      6 CA        -16.7600   13.0780   20.5520 C.3       2 GLP5        0.0000 
      7 CA        -11.8670   12.9660   22.9620 C.3       1 GLC5        0.0000 
      8 CA        -11.5920   14.6700   21.5240 C.3       3 GLL5        0.0000 
      9 CA        -12.1420   11.2620   24.4000 C.3       2 GLP5        0.0000 
     10 CA        -15.3040   12.6955   18.8655 C.3       1 GLC5        0.0000 
     11 CA        -13.5120   11.9830   18.6150 C.3       3 GLL5        0.0000 
     12 CA        -17.0960   13.4080   19.1160 C.3       2 GLP5        0.0000 
     13 CA        -13.8475   11.1215   17.0540 C.3       1 GLC5        0.0000 
     14 CA        -14.1830   10.2600   15.4930 C.3       2 GLP5        0.0000 
     15 CA        -11.7440   10.9275   19.1265 C.3       1 GLC5        0.0000 
     16 CA         -9.9760    9.8720   19.6380 C.3       2 GLP5        0.0000 
     17 CA        -10.5465   12.7065   24.8745 C.3       1 GLC5        0.0000 
     18 CA         -8.9510   14.1510   25.3490 C.3       3 GLL5        0.0000 
     19 CA         -5.4165   14.0095   25.5425 C.3       1 GLC5        0.0000 
     20 CA         -6.8840   12.4170   25.0940 C.3       3 GLL5        0.0000 
     21 CA         -3.9490   15.6020   25.9910 C.3       2 GLP5        0.0000 
     22 CA         -5.3715   12.2150   24.2105 C.3       1 GLC5        0.0000 
     23 CA         -3.8590   12.0130   23.3270 C.3       2 GLP5        0.0000 
     24 CA         -7.4060   10.9540   25.6010 C.3       1 GLC5        0.0000 
     25 CA         -7.9280    9.4910   26.1080 C.3       2 GLP5        0.0000 
     26 CA         -7.9900   11.7030   23.3935 C.3       1 GLC5        0.0000 
     27 CA         -9.0960   10.9890   21.6930 C.3       2 GLP5        0.0000 
     28 CA        -13.1935   15.3442   22.7790 C.3       1 GLC5        0.0000 
     29 CA        -14.7080   15.2920   24.0680 C.3       2 GLP5        0.0000 
     30 CA        -14.2947   15.8317   21.3885 C.3       1 GLC5        0.0000 
     31 CA        -12.6520   16.6220   20.3460 C.3       3 GLL5        0.0000 
     32 CA        -15.6390   15.5190   22.8870 C.3       2 GLP5        0.0000 
     33 CA        -14.1280   14.7703   21.4847 C.3       1 GLC5        0.0000 
     34 CA        -10.1930   13.2060   21.0318 C.3       1 GLC5        0.0000 
     35 CA        -12.2040   13.7800   20.6070 C.3       3 GLL5        0.0000 
     36 CA         -8.4880   12.1870   20.9980 C.3       2 GLP5        0.0000 
     37 CA        -14.6460   17.8560   21.2978 C.3       1 GLC5        0.0000 
     38 CA        -12.7230   18.1160   20.4320 C.3       3 GLL5        0.0000 
     39 CA        -16.1450   17.2080   22.6670 C.3       2 GLP5        0.0000 
     40 CA        -12.6630   18.5260   23.4072 C.3       1 GLC5        0.0000 
     41 CA        -11.8540   18.4840   21.6090 C.3       3 GLL5        0.0000 
     42 CA        -10.0778   15.2065   26.6020 C.3       1 GLC5        0.0000 
     43 CA         -9.7520   15.2630   24.8810 C.3       3 GLL5        0.0000 
     44 CA        -10.8040   15.7060   28.0890 C.3       2 GLP5        0.0000 
     45 CA         -8.6588   16.5690   25.7904 C.3       1 GLC5        0.0000 
     46 CA         -8.0520   18.2440   26.7650 C.3       2 GLP5        0.0000 
     47 CA         -5.7325   13.0693   23.6793 C.3       1 GLC5        0.0000 
     48 CA         -7.4190   14.4810   23.4460 C.3       3 GLL5        0.0000 
     49 CA         -6.5868   12.5708   26.5487 C.3       1 GLC5        0.0000 
     50 CA         -7.7930   13.7700   24.6170 C.3       3 GLL5        0.0000 
     51 CA         -5.8350   12.0480   28.2420 C.3       2 GLP5        0.0000 
     52 CA         -6.3217   15.6076   24.2191 C.3       1 GLC5        0.0000 
     53 CA         -4.7340   16.3550   24.9380 C.3       2 GLP5        0.0000 
     54 CA         -8.1988   13.5236   22.2491 C.3       1 GLC5        0.0000 
@<TRIPOS>BOND
@<TRIPOS>SUBSTRUCTURE
     1 GLC5        1 GROUP        1 X    GLC  0     ROOT GLC X 6
     2 GLP5        3 GROUP        1 Y    GLP  0     ROOT GLP Y 13
     3 GLL5        2 GROUP        1 Z    GLL  0     ROOT GLL Z 20
@<TRIPOS>SET

