#    Name: 1z9h_IMN_2_ligand
#    Modification time : Tue Mar 25 11:37:06 2014

@<TRIPOS>MOLECULE
1z9h_IMN_2_ligand
   40    42     1     0     0
SMALL
NO_CHARGES


@<TRIPOS>ATOM
      1 C         -11.7660   16.1230   21.4560 C.ar      1 IMN381      0.0000 
      2 C1        -12.6520   16.6220   20.3460 C.ar      1 IMN381      0.0000 
      3 C2        -13.2490   15.6670   19.4340 C.ar      1 IMN381      0.0000 
      4 C3        -13.0300   14.2630   19.5580 C.ar      1 IMN381      0.0000 
      5 C4        -12.2040   13.7800   20.6070 C.ar      1 IMN381      0.0000 
      6 C5        -11.5920   14.6700   21.5240 C.ar      1 IMN381      0.0000 
      7 C6        -13.5120   11.9830   18.6150 C.3       1 IMN381      0.0000 
      8 C7        -12.7230   18.1160   20.4320 C.2       1 IMN381      0.0000 
      9 C8        -11.8540   18.4840   21.6090 C.2       1 IMN381      0.0000 
     10 C9        -10.4220   17.1770   23.3140 C.2       1 IMN381      0.0000 
     11 C10        -9.4080   16.0110   23.6840 C.ar      1 IMN381      0.0000 
     12 C11        -9.7520   15.2630   24.8810 C.ar      1 IMN381      0.0000 
     13 C12        -8.9510   14.1510   25.3490 C.ar      1 IMN381      0.0000 
     14 C13        -7.7930   13.7700   24.6170 C.ar      1 IMN381      0.0000 
     15 C14        -7.4190   14.4810   23.4460 C.ar      1 IMN381      0.0000 
     16 C15        -8.2130   15.5950   22.9690 C.ar      1 IMN381      0.0000 
     17 C16       -11.6280   19.9220   22.0740 C.3       1 IMN381      0.0000 
     18 C17       -13.5710   18.8920   19.4250 C.3       1 IMN381      0.0000 
     19 C18       -15.1080   18.7460   19.2870 C.2       1 IMN381      0.0000 
     20 N         -11.3450   17.2670   22.1350 N.am      1 IMN381      0.0000 
     21 O         -13.6300   13.4260   18.6450 O.3       1 IMN381      0.0000 
     22 O1        -10.3960   18.1060   24.1150 O.2       1 IMN381      0.0000 
     23 O2        -15.9480   18.7200   20.1880 O.co2     1 IMN381      0.0000 
     24 O3        -15.5700   18.6080   18.0460 O.co2     1 IMN381      0.0000 
     25 CL         -6.8840   12.4170   25.0940 Cl        1 IMN381      0.0000 
     26 H         -13.8472   16.0219   18.6776 H         1 IMN381      0.0000 
     27 H         -12.0485   12.7697   20.7015 H         1 IMN381      0.0000 
     28 H         -10.9945   14.2983   22.2791 H         1 IMN381      0.0000 
     29 H         -10.5867   15.5318   25.4085 H         1 IMN381      0.0000 
     30 H          -9.2216   13.6592   26.1871 H         1 IMN381      0.0000 
     31 H          -6.5837   14.2139   22.9259 H         1 IMN381      0.0000 
     32 H          -7.9347   16.0893   22.1305 H         1 IMN381      0.0000 
     33 H         -13.1236   18.7168   18.3822 H         1 IMN381      0.0000 
     34 H         -13.3533   20.0097   19.5719 H         1 IMN381      0.0000 
     35 H         -12.5631   11.6903   18.4970 H         1 IMN381      0.0000 
     36 H         -13.8445   11.5655   19.4607 H         1 IMN381      0.0000 
     37 H         -14.0376   11.5829   17.8642 H         1 IMN381      0.0000 
     38 H         -11.0247   19.9643   22.8704 H         1 IMN381      0.0000 
     39 H         -11.2094   20.4821   21.3591 H         1 IMN381      0.0000 
     40 H         -12.4851   20.3681   22.3316 H         1 IMN381      0.0000 
@<TRIPOS>BOND
     1    2    1 ar   
     2    6    1 ar   
     3   20    1 1    
     4    3    2 ar   
     5    8    2 1    
     6    4    3 ar   
     7   26    3 1    
     8    5    4 ar   
     9   21    4 1    
    10    6    5 ar   
    11   27    5 1    
    12   28    6 1    
    13   21    7 1    
    14   35    7 1    
    15   36    7 1    
    16   37    7 1    
    17    9    8 2    
    18   18    8 1    
    19   17    9 1    
    20   20    9 1    
    21   11   10 1    
    22   20   10 am   
    23   22   10 2    
    24   12   11 ar   
    25   16   11 ar   
    26   13   12 ar   
    27   29   12 1    
    28   14   13 ar   
    29   30   13 1    
    30   15   14 ar   
    31   25   14 1    
    32   16   15 ar   
    33   31   15 1    
    34   32   16 1    
    35   38   17 1    
    36   39   17 1    
    37   40   17 1    
    38   19   18 1    
    39   33   18 1    
    40   34   18 1    
    41   23   19 ar   
    42   24   19 ar   
@<TRIPOS>SUBSTRUCTURE
     1 IMN381      1 GROUP   
@<TRIPOS>SET

