#    Name: 4i8w_G07_1_INTS_M
#    Modification time : Tue Mar 25 02:35:09 2014

@<TRIPOS>MOLECULE
4i8w_G07_1_INTS_M
   73     0     9     0     0
SMALL
NO_CHARGES


@<TRIPOS>ATOM
      1 CA         12.7000   16.7310   -4.5465 C.3       3 GLC5        0.0000 
      2 CA         13.0530   14.6330   -4.5550 C.3       9 GLL5        0.0000 
      3 CA         12.3470   18.8290   -4.5380 C.3       6 GLP5        0.0000 
      4 N          13.2010   16.5760   -6.2220 N.am      2 SEC2        0.0000 
      5 N          12.9150   15.1100   -5.9010 N.am      8 SEL2        0.0000 
      6 N          13.4870   18.0420   -6.5430 N.am      5 SEP2        0.0000 
      7 CA         11.9715   16.9120   -5.3995 C.3       3 GLC5        0.0000 
      8 CA         11.5960   14.9950   -6.2610 C.3       9 GLL5        0.0000 
      9 CA         13.0665   15.9380   -7.3580 C.3       3 GLC5        0.0000 
     10 CA         14.5370   16.8810   -8.4550 C.3       6 GLP5        0.0000 
     11 N          11.3075   17.2665   -7.6025 N.am      2 SEC2        0.0000 
     12 N          10.7760   16.1470   -6.4110 N.am      8 SEL2        0.0000 
     13 N          11.8390   18.3860   -8.7940 N.am      5 SEP2        0.0000 
     14 CA          7.9900   14.6580   -7.0065 C.3       3 GLC5        0.0000 
     15 CA          9.4690   15.7090   -6.0410 C.3       9 GLL5        0.0000 
     16 CA          6.5110   13.6070   -7.9720 C.3       6 GLP5        0.0000 
     17 O          12.4755   16.8480   -2.0275 O.2       1 ALC1        0.0000 
     18 O          11.1450   16.1940   -1.5150 O.2       7 ALL1        0.0000 
     19 O          13.8060   17.5020   -2.5400 O.2       4 ALP1        0.0000 
     20 N          12.2085   18.3690    1.1240 N.am      2 SEC2        0.0000 
     21 N          11.4040   18.5040    0.1560 N.am      8 SEL2        0.0000 
     22 N          13.0130   18.2340    2.0920 N.am      5 SEP2        0.0000 
     23 O          10.3625   19.4065   -0.6605 O.2       1 ALC1        0.0000 
     24 O          11.4040   18.5040    0.1560 O.2       7 ALL1        0.0000 
     25 O           9.3210   20.3090   -1.4770 O.2       4 ALP1        0.0000 
     26 O          11.3280   19.7765   -0.3490 O.2       1 ALC1        0.0000 
     27 O          11.2520   21.0490   -0.8540 O.2       4 ALP1        0.0000 
     28 CA         10.5460   18.3635    3.4640 C.3       3 GLC5        0.0000 
     29 CA          9.7970   17.6280    1.8150 C.3       9 GLL5        0.0000 
     30 CA         11.2950   19.0990    5.1130 C.3       6 GLP5        0.0000 
     31 CA          5.1065   14.8650    1.9985 C.3       3 GLC5        0.0000 
     32 CA          5.2220   16.5870    1.5260 C.3       9 GLL5        0.0000 
     33 CA          4.9910   13.1430    2.4710 C.3       6 GLP5        0.0000 
     34 CA          6.2170   15.4750   -1.6835 C.3       3 GLC5        0.0000 
     35 CA          6.8960   16.7370   -0.2000 C.3       9 GLL5        0.0000 
     36 CA          5.5380   14.2130   -3.1670 C.3       6 GLP5        0.0000 
     37 CA          6.0200   14.3625    3.7545 C.3       3 GLC5        0.0000 
     38 CA          7.0490   15.5820    5.0380 C.3       9 GLL5        0.0000 
     39 CA          6.4400   14.2150    7.7910 C.3       3 GLC5        0.0000 
     40 CA          6.7210   15.8710    6.3750 C.3       9 GLL5        0.0000 
     41 CA          6.1590   12.5590    9.2070 C.3       6 GLP5        0.0000 
     42 CA         11.1710   15.5555    4.6155 C.3       3 GLC5        0.0000 
     43 CA          9.3560   16.3610    5.3200 C.3       9 GLL5        0.0000 
     44 CA         12.9860   14.7500    3.9110 C.3       6 GLP5        0.0000 
     45 N           9.2685   18.3895    9.2150 N.am      2 SEC2        0.0000 
     46 N           8.5360   17.2780    8.9340 N.am      8 SEL2        0.0000 
     47 N          10.0010   19.5010    9.4960 N.am      5 SEP2        0.0000 
     48 CA         10.2997   17.3905   -5.0065 C.3       3 GLC5        0.0000 
     49 CA          9.9100   15.0490   -4.6790 C.3       9 GLL5        0.0000 
     50 CA         10.9100   19.4020   -4.6530 C.3       6 GLP5        0.0000 
     51 CA         14.8922   13.7587    0.2447 C.3       3 GLC5        0.0000 
     52 CA         12.5070   14.4520   -0.0460 C.3       9 GLL5        0.0000 
     53 CA         16.6730   13.1370    0.8760 C.3       6 GLP5        0.0000 
     54 CA         15.2290   15.1318   -0.7455 C.3       3 GLC5        0.0000 
     55 CA         13.7160   14.3090   -0.7270 C.3       9 GLL5        0.0000 
     56 CA         16.5910   16.5750   -0.4750 C.3       6 GLP5        0.0000 
     57 CA         15.2122   11.8828   -1.0082 C.3       3 GLC5        0.0000 
     58 CA         14.0180   13.0680   -1.3050 C.3       9 GLL5        0.0000 
     59 CA         16.8450   11.2240   -0.7610 C.3       6 GLP5        0.0000 
     60 CA         12.8345   10.4633   -0.4203 C.3       3 GLC5        0.0000 
     61 CA         13.1410   12.0150   -1.2060 C.3       9 GLL5        0.0000 
     62 CA         13.1280    8.8510    0.0320 C.3       6 GLP5        0.0000 
     63 CA         10.3180   11.8200   -1.1405 C.3       3 GLC5        0.0000 
     64 CA         11.9410   12.1360   -0.5390 C.3       9 GLL5        0.0000 
     65 CA          8.8570   10.8880   -2.0320 C.3       6 GLP5        0.0000 
     66 CA         11.4843   12.4300    1.3266 C.3       3 GLC5        0.0000 
     67 CA         10.9670   11.8370    2.9240 C.3       6 GLP5        0.0000 
     68 CA         12.4738   14.4946    2.0353 C.3       3 GLC5        0.0000 
     69 CA         11.6170   13.3680    0.0410 C.3       9 GLL5        0.0000 
     70 CA          6.3785   17.8605   -1.3230 C.3       3 GLC5        0.0000 
     71 CA          6.1450   18.6380   -3.0450 C.3       6 GLP5        0.0000 
     72 CA         10.1073   17.7398    5.4531 C.3       3 GLC5        0.0000 
     73 CA          9.0030   16.6670    6.6500 C.3       9 GLL5        0.0000 
@<TRIPOS>BOND
@<TRIPOS>SUBSTRUCTURE
     1 ALC1       17 GROUP        1 X    ALC  0     ROOT ALC X 1
     2 SEC2        4 GROUP        1 X    SEC  0     **** SEC X 2
     3 GLC5        1 GROUP        1 X    GLC  0     **** GLC X 6
     4 ALP1       19 GROUP        1 Y    ALP  0     ROOT ALP Y 8
     5 SEP2        6 GROUP        1 Y    SEP  0     **** SEP Y 9
     6 GLP5        3 GROUP        1 Y    GLP  0     **** GLP Y 13
     7 ALL1       18 GROUP        1 Z    ALL  0     ROOT ALL Z 15
     8 SEL2        5 GROUP        1 Z    SEL  0     **** SEL Z 16
     9 GLL5        2 GROUP        1 Z    GLL  0     **** GLL Z 20
@<TRIPOS>SET

