#    Name: 4i8w_G07_1_ligand
#    Modification time : Tue Mar 25 02:35:09 2014

@<TRIPOS>MOLECULE
4i8w_G07_1_ligand
   75    78     1     0     0
SMALL
NO_CHARGES


@<TRIPOS>ATOM
      1 O22         9.3300   14.9190   -1.9050 O.2       1 G07300      0.0000 
      2 C21        10.1230   15.7460   -2.2690 C.2       1 G07300      0.0000 
      3 O23        10.2860   15.9860   -3.6160 O.3       1 G07300      0.0000 
      4 C24         9.9100   15.0490   -4.6790 C.3       1 G07300      0.0000 
      5 C31        10.9670   14.1010   -5.2980 C.3       1 G07300      0.0000 
      6 C30        12.0720   13.4710   -4.5430 C.3       1 G07300      0.0000 
      7 C29        13.0530   14.6330   -4.5550 C.3       1 G07300      0.0000 
      8 O28        12.9150   15.1100   -5.9010 O.3       1 G07300      0.0000 
      9 C27        11.5960   14.9950   -6.2610 C.3       1 G07300      0.0000 
     10 O26        10.7760   16.1470   -6.4110 O.3       1 G07300      0.0000 
     11 C25         9.4690   15.7090   -6.0410 C.3       1 G07300      0.0000 
     12 N20        11.1450   16.1940   -1.5150 N.am      1 G07300      0.0000 
     13 C19        10.8540   16.1830   -0.0900 C.3       1 G07300      0.0000 
     14 C32        12.1050   15.7690    0.6020 C.3       1 G07300      0.0000 
     15 C38        12.5070   14.4520   -0.0460 C.ar      1 G07300      0.0000 
     16 C37        13.7160   14.3090   -0.7270 C.ar      1 G07300      0.0000 
     17 C36        14.0180   13.0680   -1.3050 C.ar      1 G07300      0.0000 
     18 C35        13.1410   12.0150   -1.2060 C.ar      1 G07300      0.0000 
     19 C34        11.9410   12.1360   -0.5390 C.ar      1 G07300      0.0000 
     20 C33        11.6170   13.3680    0.0410 C.ar      1 G07300      0.0000 
     21 C17        10.3750   17.5960    0.3830 C.3       1 G07300      0.0000 
     22 O18        11.4040   18.5040    0.1560 O.3       1 G07300      0.0000 
     23 C16         9.7970   17.6280    1.8150 C.3       1 G07300      0.0000 
     24 N11         8.5790   16.7840    1.8200 N.pl3     1 G07300      0.0000 
     25 C12         7.3870   17.6090    2.0940 C.3       1 G07300      0.0000 
     26 C13         6.3280   17.4290    0.9980 C.3       1 G07300      0.0000 
     27 C15         5.2220   16.5870    1.5260 C.3       1 G07300      0.0000 
     28 C14         6.8960   16.7370   -0.2000 C.3       1 G07300      0.0000 
     29 S8          8.7010   15.4260    2.8220 S.o2      1 G07300      0.0000 
     30 O9         10.0180   14.8960    2.7840 O.2       1 G07300      0.0000 
     31 O10         7.9050   14.3060    2.3780 O.2       1 G07300      0.0000 
     32 C5          8.3160   15.8270    4.5530 C.ar      1 G07300      0.0000 
     33 C4          7.0490   15.5820    5.0380 C.ar      1 G07300      0.0000 
     34 C3          6.7210   15.8710    6.3750 C.ar      1 G07300      0.0000 
     35 C6          9.3560   16.3610    5.3200 C.ar      1 G07300      0.0000 
     36 C7          9.0030   16.6670    6.6500 C.ar      1 G07300      0.0000 
     37 C2          7.7280   16.4250    7.1730 C.ar      1 G07300      0.0000 
     38 C1          7.4950   16.7570    8.4980 C.2       1 G07300      0.0000 
     39 O1          6.3260   16.4460    8.8580 O.co2     1 G07300      0.0000 
     40 O2          8.5360   17.2780    8.9340 O.co2     1 G07300      0.0000 
     41 H           9.0602   14.4049   -4.4220 H         1 G07300      0.0000 
     42 H          10.4263   13.3591   -5.8997 H         1 G07300      0.0000 
     43 H          12.4804   12.6631   -5.0717 H         1 G07300      0.0000 
     44 H          11.7871   13.2641   -3.5556 H         1 G07300      0.0000 
     45 H          14.0287   14.2572   -4.3590 H         1 G07300      0.0000 
     46 H          12.7372   15.3529   -3.8383 H         1 G07300      0.0000 
     47 H          11.5388   14.4062   -7.2430 H         1 G07300      0.0000 
     48 H           8.8211   16.4876   -5.8110 H         1 G07300      0.0000 
     49 H           9.0999   14.9500   -6.6464 H         1 G07300      0.0000 
     50 H          12.0148   16.5067   -1.8384 H         1 G07300      0.0000 
     51 H          10.0736   15.4769    0.1259 H         1 G07300      0.0000 
     52 H          11.9234   15.6082    1.6458 H         1 G07300      0.0000 
     53 H          12.8804   16.4916    0.4442 H         1 G07300      0.0000 
     54 H          14.3661   15.0858   -0.8043 H         1 G07300      0.0000 
     55 H          14.9144   12.9562   -1.8091 H         1 G07300      0.0000 
     56 H          13.3877   11.1009   -1.6458 H         1 G07300      0.0000 
     57 H          11.2959   11.3503   -0.4641 H         1 G07300      0.0000 
     58 H          10.7230   13.4830    0.5342 H         1 G07300      0.0000 
     59 H           9.5132   17.8389   -0.3081 H         1 G07300      0.0000 
     60 H           9.5594   18.6497    2.0638 H         1 G07300      0.0000 
     61 H          10.5400   17.2370    2.4912 H         1 G07300      0.0000 
     62 H           7.6549   18.6697    2.1405 H         1 G07300      0.0000 
     63 H           6.9380   17.3307    3.0532 H         1 G07300      0.0000 
     64 H           5.9472   18.3877    0.7196 H         1 G07300      0.0000 
     65 H           6.3228   15.1814    4.4216 H         1 G07300      0.0000 
     66 H           5.8033   15.6865    6.7375 H         1 G07300      0.0000 
     67 H          10.2626   16.5131    4.9655 H         1 G07300      0.0000 
     68 H           9.7283   17.0931    7.2690 H         1 G07300      0.0000 
     69 H           5.5454   15.6842    1.8095 H         1 G07300      0.0000 
     70 H           4.7845   17.0050    2.3222 H         1 G07300      0.0000 
     71 H           4.5074   16.4409    0.8419 H         1 G07300      0.0000 
     72 H           7.6532   17.2518   -0.6020 H         1 G07300      0.0000 
     73 H           7.2472   15.8288    0.0275 H         1 G07300      0.0000 
     74 H           6.2107   16.6149   -0.9180 H         1 G07300      0.0000 
     75 H          10.9841   19.2451   -0.3680 H         1 G07300      0.0000 
@<TRIPOS>BOND
     1    2    1 2    
     2    3    2 1    
     3   12    2 am   
     4    4    3 1    
     5    5    4 1    
     6   11    4 1    
     7   41    4 1    
     8    6    5 1    
     9    9    5 1    
    10   42    5 1    
    11    7    6 1    
    12   43    6 1    
    13   44    6 1    
    14    8    7 1    
    15   45    7 1    
    16   46    7 1    
    17    9    8 1    
    18   10    9 1    
    19   47    9 1    
    20   11   10 1    
    21   48   11 1    
    22   49   11 1    
    23   13   12 1    
    24   50   12 1    
    25   14   13 1    
    26   21   13 1    
    27   51   13 1    
    28   15   14 1    
    29   52   14 1    
    30   53   14 1    
    31   16   15 ar   
    32   20   15 ar   
    33   17   16 ar   
    34   54   16 1    
    35   18   17 ar   
    36   55   17 1    
    37   19   18 ar   
    38   56   18 1    
    39   20   19 ar   
    40   57   19 1    
    41   58   20 1    
    42   22   21 1    
    43   23   21 1    
    44   59   21 1    
    45   75   22 1    
    46   24   23 1    
    47   60   23 1    
    48   61   23 1    
    49   25   24 1    
    50   29   24 1    
    51   26   25 1    
    52   62   25 1    
    53   63   25 1    
    54   27   26 1    
    55   28   26 1    
    56   64   26 1    
    57   69   27 1    
    58   70   27 1    
    59   71   27 1    
    60   72   28 1    
    61   73   28 1    
    62   74   28 1    
    63   30   29 2    
    64   31   29 2    
    65   32   29 1    
    66   33   32 ar   
    67   35   32 ar   
    68   34   33 ar   
    69   65   33 1    
    70   37   34 ar   
    71   66   34 1    
    72   36   35 ar   
    73   67   35 1    
    74   37   36 ar   
    75   68   36 1    
    76   38   37 1    
    77   39   38 ar   
    78   40   38 ar   
@<TRIPOS>SUBSTRUCTURE
     1 G07300      1 GROUP   
@<TRIPOS>SET

