#    Name: 3fw9_SLX_1_INTS_M
#    Modification time : Tue Mar 25 06:39:15 2014

@<TRIPOS>MOLECULE
3fw9_SLX_1_INTS_M
   60     0    12     0     0
SMALL
NO_CHARGES


@<TRIPOS>ATOM
      1 CA        -32.7280   -7.8035  -12.1315 C.3       4 GLC5        0.0000 
      2 CA        -30.8240   -6.9080  -12.4280 C.3      12 GLL5        0.0000 
      3 CA        -34.6320   -8.6990  -11.8350 C.3       8 GLP5        0.0000 
      4 CA        -28.5550   -5.0185  -12.0330 C.3       4 GLC5        0.0000 
      5 CA        -30.2900   -5.7470  -11.5970 C.3      12 GLL5        0.0000 
      6 CA        -26.8200   -4.2900  -12.4690 C.3       8 GLP5        0.0000 
      7 OD1       -31.5435   -4.9595  -10.3110 O.co2     3 ASC3        0.0000 
      8 OD1       -30.3160   -6.2330  -10.2210 O.co2    11 ASL3        0.0000 
      9 OD1       -32.7710   -3.6860  -10.4010 O.co2     7 ASP3        0.0000 
     10 CA        -31.0975   -9.3705   -8.9045 C.3       4 GLC5        0.0000 
     11 CA        -29.5430   -7.8830   -8.5830 C.3      12 GLL5        0.0000 
     12 CA        -32.6520  -10.8580   -9.2260 C.3       8 GLP5        0.0000 
     13 CA        -28.6530   -6.7995   -3.3750 C.3       4 GLC5        0.0000 
     14 CA        -29.1220   -6.0710   -5.2900 C.3      12 GLL5        0.0000 
     15 CA        -28.1840   -7.5280   -1.4600 C.3       8 GLP5        0.0000 
     16 N         -30.6335   -2.8370   -4.6205 N.am      2 SEC2        0.0000 
     17 N         -29.5040   -3.7780   -4.7600 N.am     10 SEL2        0.0000 
     18 N         -31.7630   -1.8960   -4.4810 N.am      6 SEP2        0.0000 
     19 CA        -26.8900   -4.7340   -3.9125 C.3       4 GLC5        0.0000 
     20 CA        -28.9010   -4.0060   -3.4660 C.3      12 GLL5        0.0000 
     21 CA        -24.8790   -5.4620   -4.3590 C.3       8 GLP5        0.0000 
     22 CA        -27.8295   -3.3380   -2.1580 C.3       4 GLC5        0.0000 
     23 CA        -26.7580   -2.6700   -0.8500 C.3       8 GLP5        0.0000 
     24 CA        -29.7980   -3.8545   -1.8520 C.3       4 GLC5        0.0000 
     25 CA        -30.6950   -3.7030   -0.2380 C.3       8 GLP5        0.0000 
     26 CA        -28.5425   -5.7670   -2.4630 C.3       4 GLC5        0.0000 
     27 N         -31.0120   -2.5500   -5.8685 N.am      2 SEC2        0.0000 
     28 N         -30.2610   -3.2040   -7.2560 N.am     10 SEL2        0.0000 
     29 O         -31.5080   -3.0610   -7.8000 O.2       1 ALC1        0.0000 
     30 O         -30.2610   -3.2040   -7.2560 O.2       9 ALL1        0.0000 
     31 O         -32.7550   -2.9180   -8.3440 O.2       5 ALP1        0.0000 
     32 CA        -27.7115  -12.4515  -14.2340 C.3       4 GLC5        0.0000 
     33 CA        -29.4320  -11.2880  -14.9570 C.3      12 GLL5        0.0000 
     34 CA        -25.9910  -13.6150  -13.5110 C.3       8 GLP5        0.0000 
     35 CA        -29.9555  -11.0220  -16.4025 C.3       4 GLC5        0.0000 
     36 CA        -30.4790  -10.7560  -17.8480 C.3       8 GLP5        0.0000 
     37 O         -28.1490  -12.8685  -11.9320 O.2       1 ALC1        0.0000 
     38 O         -28.1230  -11.7380  -11.2430 O.2       9 ALL1        0.0000 
     39 O         -28.1750  -13.9990  -12.6210 O.2       5 ALP1        0.0000 
     40 CA        -27.3238   -7.6128  -10.9200 C.3       4 GLC5        0.0000 
     41 CA        -28.7020   -9.5160  -10.6540 C.3      12 GLL5        0.0000 
     42 CA        -25.6450   -6.3090  -11.0370 C.3       8 GLP5        0.0000 
     43 CA        -27.8079   -8.2229  -13.0360 C.3       4 GLC5        0.0000 
     44 CA        -29.3030   -8.3170  -10.9520 C.3      12 GLL5        0.0000 
     45 CA        -25.8180   -7.7220  -13.7280 C.3       8 GLP5        0.0000 
     46 CA        -30.7685   -5.0938  -13.6668 C.3       4 GLC5        0.0000 
     47 CA        -30.9800   -3.8600  -15.3210 C.3       8 GLP5        0.0000 
     48 CA        -27.7845   -7.9705   -8.4438 C.3       4 GLC5        0.0000 
     49 CA        -29.2910   -7.2330   -9.9380 C.3      12 GLL5        0.0000 
     50 CA        -26.1520   -8.3830   -7.6270 C.3       8 GLP5        0.0000 
     51 CA        -27.6470   -6.5947  -10.8578 C.3       4 GLC5        0.0000 
     52 CA        -30.4472   -8.2447   -6.6463 C.3       4 GLC5        0.0000 
     53 CA        -31.3600   -9.1590   -5.2370 C.3       8 GLP5        0.0000 
     54 CA        -31.3592   -6.6310   -6.6825 C.3       4 GLC5        0.0000 
     55 CA        -29.1350   -7.0660   -6.2360 C.3      12 GLL5        0.0000 
     56 CA        -33.3880   -6.3400   -6.4830 C.3       8 GLP5        0.0000 
     57 CA        -30.2443   -7.8638   -5.5000 C.3       4 GLC5        0.0000 
     58 CA        -31.3528   -5.8742   -5.9783 C.3       4 GLC5        0.0000 
     59 CA        -31.7503   -5.6919   -7.4076 C.3       4 GLC5        0.0000 
     60 CA        -29.8910   -4.4770   -6.9180 C.3      12 GLL5        0.0000 
@<TRIPOS>BOND
@<TRIPOS>SUBSTRUCTURE
     1 ALC1       29 GROUP        1 X    ALC  0     ROOT ALC X 1
     2 SEC2       16 GROUP        1 X    SEC  0     **** SEC X 2
     3 ASC3        7 GROUP        1 X    ASC  0     **** ASC X 3
     4 GLC5        1 GROUP        1 X    GLC  0     **** GLC X 6
     5 ALP1       31 GROUP        1 Y    ALP  0     ROOT ALP Y 8
     6 SEP2       18 GROUP        1 Y    SEP  0     **** SEP Y 9
     7 ASP3        9 GROUP        1 Y    ASP  0     **** ASP Y 10
     8 GLP5        3 GROUP        1 Y    GLP  0     **** GLP Y 13
     9 ALL1       30 GROUP        1 Z    ALL  0     ROOT ALL Z 15
    10 SEL2       17 GROUP        1 Z    SEL  0     **** SEL Z 16
    11 ASL3        8 GROUP        1 Z    ASL  0     **** ASL Z 17
    12 GLL5        2 GROUP        1 Z    GLL  0     **** GLL Z 20
@<TRIPOS>SET

