#    Name: 3fw9_SLX_1_ligand
#    Modification time : Tue Mar 25 06:39:15 2014

@<TRIPOS>MOLECULE
3fw9_SLX_1_ligand
   46    49     1     0     0
SMALL
NO_CHARGES


@<TRIPOS>ATOM
      1 C1        -29.3030   -8.3170  -10.9520 C.ar      1 SLX2        0.0000 
      2 C2        -28.7020   -9.5160  -10.6540 C.ar      1 SLX2        0.0000 
      3 C3        -28.7200  -10.5670  -11.5600 C.ar      1 SLX2        0.0000 
      4 C5        -29.3350  -10.4340  -12.7700 C.ar      1 SLX2        0.0000 
      5 C8        -29.9690   -9.2180  -13.1180 C.ar      1 SLX2        0.0000 
      6 C9        -29.9500   -8.1420  -12.1880 C.ar      1 SLX2        0.0000 
      7 C10       -30.8240   -6.9080  -12.4280 C.3       1 SLX2        0.0000 
      8 C11       -30.2900   -5.7470  -11.5970 C.3       1 SLX2        0.0000 
      9 N12       -30.3160   -6.2330  -10.2210 N.4       1 SLX2        0.0000 
     10 C14       -29.2910   -7.2330   -9.9380 C.3       1 SLX2        0.0000 
     11 C16       -29.5430   -7.8830   -8.5830 C.3       1 SLX2        0.0000 
     12 C17       -29.5260   -6.7780   -7.5280 C.ar      1 SLX2        0.0000 
     13 C25       -29.1350   -7.0660   -6.2360 C.ar      1 SLX2        0.0000 
     14 C24       -29.1220   -6.0710   -5.2900 C.ar      1 SLX2        0.0000 
     15 C21       -29.5130   -4.7460   -5.6570 C.ar      1 SLX2        0.0000 
     16 O22       -29.5040   -3.7780   -4.7600 O.3       1 SLX2        0.0000 
     17 C23       -28.9010   -4.0060   -3.4660 C.3       1 SLX2        0.0000 
     18 C19       -29.8910   -4.4770   -6.9180 C.ar      1 SLX2        0.0000 
     19 O20       -30.2610   -3.2040   -7.2560 O.3       1 SLX2        0.0000 
     20 C18       -29.9010   -5.4640   -7.8650 C.ar      1 SLX2        0.0000 
     21 C13       -30.3290   -5.1170   -9.2730 C.3       1 SLX2        0.0000 
     22 O6        -29.3320  -11.4900  -13.6240 O.3       1 SLX2        0.0000 
     23 C7        -29.4320  -11.2880  -14.9570 C.3       1 SLX2        0.0000 
     24 O4        -28.1230  -11.7380  -11.2430 O.3       1 SLX2        0.0000 
     25 H         -28.2264   -9.6435   -9.7403 H         1 SLX2        0.0000 
     26 H         -30.4290   -9.1122  -14.0122 H         1 SLX2        0.0000 
     27 H         -31.8411   -7.1275  -12.1320 H         1 SLX2        0.0000 
     28 H         -30.7928   -6.6467  -13.4773 H         1 SLX2        0.0000 
     29 H         -30.9384   -4.9027  -11.7267 H         1 SLX2        0.0000 
     30 H         -29.2902   -5.5256  -11.9155 H         1 SLX2        0.0000 
     31 H         -31.3251   -6.7581  -10.0954 H         1 SLX2        0.0000 
     32 H         -28.3124   -6.7844   -9.9103 H         1 SLX2        0.0000 
     33 H         -28.7626   -8.5931   -8.3716 H         1 SLX2        0.0000 
     34 H         -30.5064   -8.3623   -8.5852 H         1 SLX2        0.0000 
     35 H         -28.8542   -8.0262   -5.9854 H         1 SLX2        0.0000 
     36 H         -28.8393   -6.2503   -4.3250 H         1 SLX2        0.0000 
     37 H         -31.3509   -4.6698   -9.2245 H         1 SLX2        0.0000 
     38 H         -29.6704   -4.2948   -9.6429 H         1 SLX2        0.0000 
     39 H         -27.9330   -4.2444   -3.5442 H         1 SLX2        0.0000 
     40 H         -28.9572   -3.1961   -2.8822 H         1 SLX2        0.0000 
     41 H         -29.3481   -4.7532   -2.9744 H         1 SLX2        0.0000 
     42 H         -28.6803  -10.7279  -15.3052 H         1 SLX2        0.0000 
     43 H         -29.4158  -12.1490  -15.4654 H         1 SLX2        0.0000 
     44 H         -30.2823  -10.8207  -15.1991 H         1 SLX2        0.0000 
     45 H         -31.1597   -3.3007   -7.6836 H         1 SLX2        0.0000 
     46 H         -28.3328  -12.3501  -12.0055 H         1 SLX2        0.0000 
@<TRIPOS>BOND
     1    2    1 ar   
     2    6    1 ar   
     3   10    1 1    
     4    3    2 ar   
     5   25    2 1    
     6    4    3 ar   
     7   24    3 1    
     8    5    4 ar   
     9   22    4 1    
    10    6    5 ar   
    11   26    5 1    
    12    7    6 1    
    13    8    7 1    
    14   27    7 1    
    15   28    7 1    
    16    9    8 1    
    17   29    8 1    
    18   30    8 1    
    19   10    9 1    
    20   21    9 1    
    21   31    9 1    
    22   11   10 1    
    23   32   10 1    
    24   12   11 1    
    25   33   11 1    
    26   34   11 1    
    27   13   12 ar   
    28   20   12 ar   
    29   14   13 ar   
    30   35   13 1    
    31   15   14 ar   
    32   36   14 1    
    33   16   15 1    
    34   18   15 ar   
    35   17   16 1    
    36   39   17 1    
    37   40   17 1    
    38   41   17 1    
    39   19   18 1    
    40   20   18 ar   
    41   45   19 1    
    42   21   20 1    
    43   37   21 1    
    44   38   21 1    
    45   23   22 1    
    46   42   23 1    
    47   43   23 1    
    48   44   23 1    
    49   46   24 1    
@<TRIPOS>SUBSTRUCTURE
     1 SLX2        1 GROUP   
@<TRIPOS>SET

