#    Name: 4ho3_TTP_1_INTS_M
#    Modification time : Tue Mar 25 01:30:53 2014

@<TRIPOS>MOLECULE
4ho3_TTP_1_INTS_M
   71     0    12     0     0
SMALL
NO_CHARGES


@<TRIPOS>ATOM
      1 N         -15.3925   -5.7230  -14.0535 N.am      2 SEC2        0.0000 
      2 N         -16.7660   -5.4180  -15.0060 N.am     10 SEL2        0.0000 
      3 N         -14.0190   -6.0280  -13.1010 N.am      6 SEP2        0.0000 
      4 NZ        -14.5990   -5.8315  -20.5750 N.4       3 LYC4        0.0000 
      5 NZ        -14.6920   -5.3770  -19.2980 N.4      11 LYL4        0.0000 
      6 NZ        -14.1170   -7.3820  -22.5170 N.4       7 LYP4        0.0000 
      7 N         -14.5990   -5.8315  -20.5750 N.am      2 SEC2        0.0000 
      8 N         -14.6920   -5.3770  -19.2980 N.am     10 SEL2        0.0000 
      9 N         -14.5060   -6.2860  -21.8520 N.am      6 SEP2        0.0000 
     10 N         -13.1710   -5.7020  -16.0285 N.am      2 SEC2        0.0000 
     11 N         -14.1390   -4.7480  -16.7910 N.am     10 SEL2        0.0000 
     12 N         -12.2030   -6.6560  -15.2660 N.am      6 SEP2        0.0000 
     13 N         -13.4815   -6.8995  -16.3190 N.am      2 SEC2        0.0000 
     14 N         -14.7600   -7.1430  -17.3720 N.am     10 SEL2        0.0000 
     15 NZ        -14.6025   -8.6635  -20.4670 N.4       3 LYC4        0.0000 
     16 NZ        -15.4870   -8.8640  -19.0900 N.4      11 LYL4        0.0000 
     17 N         -14.6025   -8.6635  -20.4670 N.am      2 SEC2        0.0000 
     18 N         -15.4870   -8.8640  -19.0900 N.am     10 SEL2        0.0000 
     19 N         -13.7180   -8.4630  -21.8440 N.am      6 SEP2        0.0000 
     20 NZ        -13.3920   -8.2990  -20.4295 N.4       3 LYC4        0.0000 
     21 NZ        -13.0660   -8.1350  -19.0150 N.4      11 LYL4        0.0000 
     22 N         -11.8770   -9.1010  -18.9150 N.am      2 SEC2        0.0000 
     23 N         -13.0660   -8.1350  -19.0150 N.am     10 SEL2        0.0000 
     24 N         -10.6880  -10.0670  -18.8150 N.am      6 SEP2        0.0000 
     25 N         -13.3920   -8.2990  -20.4295 N.am      2 SEC2        0.0000 
     26 N         -12.6545   -9.2025  -16.7425 N.am      2 SEC2        0.0000 
     27 N         -14.0590   -9.4310  -17.0700 N.am     10 SEL2        0.0000 
     28 N         -11.2500   -8.9740  -16.4150 N.am      6 SEP2        0.0000 
     29 CA        -18.0710    0.5130  -17.4185 C.3       4 GLC5        0.0000 
     30 CA        -16.7160   -0.7420  -16.6660 C.3      12 GLL5        0.0000 
     31 CA        -19.4260    1.7680  -18.1710 C.3       8 GLP5        0.0000 
     32 CA        -14.1000    0.3865  -17.5125 C.3       4 GLC5        0.0000 
     33 CA        -15.3810   -0.4490  -15.9520 C.3      12 GLL5        0.0000 
     34 CA        -12.8190    1.2220  -19.0730 C.3       8 GLP5        0.0000 
     35 N         -13.8055    0.6835  -15.1245 N.am      2 SEC2        0.0000 
     36 N         -15.0490    1.0060  -15.8260 N.am     10 SEL2        0.0000 
     37 N         -12.5620    0.3610  -14.4230 N.am      6 SEP2        0.0000 
     38 N         -14.2620    2.1520  -16.8595 N.am      2 SEC2        0.0000 
     39 N         -13.4750    3.2980  -17.8930 N.am      6 SEP2        0.0000 
     40 O         -15.1310    1.2475  -17.5035 O.2       1 ALC1        0.0000 
     41 O         -15.0490    1.0060  -15.8260 O.2       9 ALL1        0.0000 
     42 O         -15.2130    1.4890  -19.1810 O.2       5 ALP1        0.0000 
     43 CA        -14.8155   -0.9380  -12.5410 C.3       4 GLC5        0.0000 
     44 CA        -15.6760   -1.0100  -14.5430 C.3      12 GLL5        0.0000 
     45 CA        -13.9550   -0.8660  -10.5390 C.3       8 GLP5        0.0000 
     46 CA        -18.0465    0.7630  -12.9580 C.3       4 GLC5        0.0000 
     47 CA        -17.1740   -0.7350  -14.3790 C.3      12 GLL5        0.0000 
     48 CA        -18.9190    2.2610  -11.5370 C.3       8 GLP5        0.0000 
     49 N         -15.6800    0.0270  -11.4350 N.am      2 SEC2        0.0000 
     50 N         -17.0200   -0.3810  -11.7590 N.am     10 SEL2        0.0000 
     51 N         -14.3400    0.4350  -11.1110 N.am      6 SEP2        0.0000 
     52 O         -18.5800   -1.4765   -9.8990 O.2       1 ALC1        0.0000 
     53 O         -18.6860   -1.7210  -11.2320 O.2       9 ALL1        0.0000 
     54 O         -18.4740   -1.2320   -8.5660 O.2       5 ALP1        0.0000 
     55 N         -20.5400   -2.3110   -9.3235 N.am      2 SEC2        0.0000 
     56 N         -20.4650   -3.0440  -10.6490 N.am     10 SEL2        0.0000 
     57 N         -20.6150   -1.5780   -7.9980 N.am      6 SEP2        0.0000 
     58 N         -21.8200   -3.4835  -10.4140 N.am      2 SEC2        0.0000 
     59 N         -23.1750   -3.9230  -10.1790 N.am      6 SEP2        0.0000 
     60 CA        -18.9980   -4.2815  -11.5235 C.3       4 GLC5        0.0000 
     61 CA        -19.7740   -2.9970  -13.0030 C.3      12 GLL5        0.0000 
     62 CA        -18.2220   -5.5660  -10.0440 C.3       8 GLP5        0.0000 
     63 CA        -22.3825   -3.6000  -12.3375 C.3       4 GLC5        0.0000 
     64 CA        -20.8440   -3.9800  -13.4170 C.3      12 GLL5        0.0000 
     65 CA        -23.9210   -3.2200  -11.2580 C.3       8 GLP5        0.0000 
     66 CA        -17.0380   -3.2335  -13.0545 C.3       4 GLC5        0.0000 
     67 CA        -18.9170   -2.3930  -13.9220 C.3      12 GLL5        0.0000 
     68 CA        -15.1590   -4.0740  -12.1870 C.3       8 GLP5        0.0000 
     69 CA        -15.7920   -2.4733  -13.3240 C.3       4 GLC5        0.0000 
     70 CA        -20.6265   -1.6844  -14.2645 C.3       4 GLC5        0.0000 
     71 CA        -21.6400   -0.4280  -14.9630 C.3       8 GLP5        0.0000 
@<TRIPOS>BOND
@<TRIPOS>SUBSTRUCTURE
     1 ALC1       40 GROUP        1 X    ALC  0     ROOT ALC X 1
     2 SEC2        1 GROUP        1 X    SEC  0     **** SEC X 2
     3 LYC4        4 GROUP        1 X    LYC  0     **** LYC X 4
     4 GLC5       29 GROUP        1 X    GLC  0     **** GLC X 6
     5 ALP1       42 GROUP        1 Y    ALP  0     ROOT ALP Y 8
     6 SEP2        3 GROUP        1 Y    SEP  0     **** SEP Y 9
     7 LYP4        6 GROUP        1 Y    LYP  0     **** LYP Y 11
     8 GLP5       31 GROUP        1 Y    GLP  0     **** GLP Y 13
     9 ALL1       41 GROUP        1 Z    ALL  0     ROOT ALL Z 15
    10 SEL2        2 GROUP        1 Z    SEL  0     **** SEL Z 16
    11 LYL4        5 GROUP        1 Z    LYL  0     **** LYL Z 18
    12 GLL5       30 GROUP        1 Z    GLL  0     **** GLL Z 20
@<TRIPOS>SET

