#    Name: 4ho3_TTP_1_ligand
#    Modification time : Tue Mar 25 01:30:53 2014

@<TRIPOS>MOLECULE
4ho3_TTP_1_ligand
   42    43     1     0     0
SMALL
NO_CHARGES


@<TRIPOS>ATOM
      1 PA        -17.2340   -4.6140  -16.2270 P.3       1 TTP300      0.0000 
      2 O1A       -18.7220   -4.4820  -16.5760 O.co2     1 TTP300      0.0000 
      3 O2A       -16.7660   -5.4180  -15.0060 O.co2     1 TTP300      0.0000 
      4 O3A       -16.5480   -5.2890  -17.5660 O.3       1 TTP300      0.0000 
      5 PB        -14.9410   -5.5720  -17.8050 P.3       1 TTP300      0.0000 
      6 O1B       -14.6920   -5.3770  -19.2980 O.co2     1 TTP300      0.0000 
      7 O2B       -14.1390   -4.7480  -16.7910 O.co2     1 TTP300      0.0000 
      8 O3B       -14.7600   -7.1430  -17.3720 O.3       1 TTP300      0.0000 
      9 PG        -14.3060   -8.4810  -18.2240 P.3       1 TTP300      0.0000 
     10 O1G       -15.4870   -8.8640  -19.0900 O.co2     1 TTP300      0.0000 
     11 O2G       -13.0660   -8.1350  -19.0150 O.co2     1 TTP300      0.0000 
     12 O3G       -14.0590   -9.4310  -17.0700 O.co2     1 TTP300      0.0000 
     13 O5'       -16.6050   -3.0940  -16.0770 O.3       1 TTP300      0.0000 
     14 C5'       -16.6680   -2.1670  -17.1800 C.3       1 TTP300      0.0000 
     15 C4'       -16.7160   -0.7420  -16.6660 C.3       1 TTP300      0.0000 
     16 O4'       -17.7900   -0.6870  -15.6800 O.3       1 TTP300      0.0000 
     17 C3'       -15.3810   -0.4490  -15.9520 C.3       1 TTP300      0.0000 
     18 O3'       -15.0490    1.0060  -15.8260 O.3       1 TTP300      0.0000 
     19 C2'       -15.6760   -1.0100  -14.5430 C.3       1 TTP300      0.0000 
     20 C1'       -17.1740   -0.7350  -14.3790 C.3       1 TTP300      0.0000 
     21 N1        -17.9620   -1.5450  -13.4400 N.am      1 TTP300      0.0000 
     22 C2        -17.9000   -1.1920  -12.1450 C.2       1 TTP300      0.0000 
     23 O2        -17.0200   -0.3810  -11.7590 O.2       1 TTP300      0.0000 
     24 N3        -18.6860   -1.7210  -11.2320 N.am      1 TTP300      0.0000 
     25 C4        -19.6430   -2.5760  -11.5830 C.2       1 TTP300      0.0000 
     26 O4        -20.4650   -3.0440  -10.6490 O.2       1 TTP300      0.0000 
     27 C5        -19.7740   -2.9970  -13.0030 C.2       1 TTP300      0.0000 
     28 C5M       -20.8440   -3.9800  -13.4170 C.3       1 TTP300      0.0000 
     29 C6        -18.9170   -2.3930  -13.9220 C.2       1 TTP300      0.0000 
     30 H         -17.5613   -2.3409  -17.7938 H         1 TTP300      0.0000 
     31 H         -15.7913   -2.2671  -17.8329 H         1 TTP300      0.0000 
     32 H         -16.8568   -0.0753  -17.4505 H         1 TTP300      0.0000 
     33 H         -14.6206   -1.0198  -16.3753 H         1 TTP300      0.0000 
     34 H         -15.1286   -0.4656  -13.8261 H         1 TTP300      0.0000 
     35 H         -15.4965   -2.0481  -14.5333 H         1 TTP300      0.0000 
     36 H         -17.2212    0.3543  -13.9923 H         1 TTP300      0.0000 
     37 H         -18.5624   -1.4707  -10.2167 H         1 TTP300      0.0000 
     38 H         -19.0114   -2.5867  -14.9157 H         1 TTP300      0.0000 
     39 H         -20.8160   -4.1678  -14.3988 H         1 TTP300      0.0000 
     40 H         -20.7439   -4.8574  -12.9478 H         1 TTP300      0.0000 
     41 H         -21.7612   -3.6398  -13.2097 H         1 TTP300      0.0000 
     42 H         -14.5644    1.2348  -16.6703 H         1 TTP300      0.0000 
@<TRIPOS>BOND
     1    2    1 ar   
     2    3    1 ar   
     3    4    1 1    
     4   13    1 1    
     5    5    4 1    
     6    6    5 ar   
     7    7    5 ar   
     8    8    5 1    
     9    9    8 1    
    10   10    9 ar   
    11   11    9 ar   
    12   12    9 ar   
    13   14   13 1    
    14   15   14 1    
    15   30   14 1    
    16   31   14 1    
    17   16   15 1    
    18   17   15 1    
    19   32   15 1    
    20   20   16 1    
    21   18   17 1    
    22   19   17 1    
    23   33   17 1    
    24   42   18 1    
    25   20   19 1    
    26   34   19 1    
    27   35   19 1    
    28   21   20 1    
    29   36   20 1    
    30   22   21 1    
    31   29   21 1    
    32   23   22 2    
    33   24   22 1    
    34   25   24 1    
    35   37   24 1    
    36   26   25 2    
    37   27   25 1    
    38   28   27 1    
    39   29   27 2    
    40   39   28 1    
    41   40   28 1    
    42   41   28 1    
    43   38   29 1    
@<TRIPOS>SUBSTRUCTURE
     1 TTP300      1 GROUP   
@<TRIPOS>SET

