#    Name: 1HY3_1_CAVITY_N1_6.mol2
#    Modification time : Tue Mar 11 07:21:29 2014

@<TRIPOS>MOLECULE
1HY3_1_CAVITY_N1_6.mol2
   68     0     6     0     0
SMALL
NO_CHARGES


@<TRIPOS>ATOM
      1 CZ         11.2482    6.4070   37.5278 C.ar      4 PHE5        0.0000 
      2 CZ         11.1443    5.0548   38.1689 C.ar      4 PHE5        0.0000 
      3 CZ          9.7696    6.4008   37.2753 C.ar      4 PHE5        0.0000 
      4 CZ          9.6657    5.0487   37.9163 C.ar      4 PHE5        0.0000 
      5 CA          8.2910    6.3947   37.0227 C.3       5 GLY6        0.0000 
      6 CZ          8.1871    5.0426   37.6638 C.ar      4 PHE5        0.0000 
      7 CA          8.0832    3.6904   38.3048 C.3       5 GLY6        0.0000 
      8 CZ          6.7086    5.0364   37.4112 C.ar      4 PHE5        0.0000 
      9 CA          6.6047    3.6843   38.0522 C.3       5 GLY6        0.0000 
     10 CA          6.5008    2.3322   38.6933 C.3       5 GLY6        0.0000 
     11 O           5.2300    5.0303   37.1586 O.2       2 ALA2        0.0000 
     12 O           5.1261    3.6782   37.7997 O.2       2 ALA2        0.0000 
     13 O           5.0222    2.3260   38.4407 O.2       2 ALA2        0.0000 
     14 CA          3.6475    3.6720   37.5471 C.3       5 GLY6        0.0000 
     15 CA         11.7017    7.6586   43.7510 C.3       5 GLY6        0.0000 
     16 OD1        11.5978    6.3065   44.3921 O.3       3 ASP3        0.0000 
     17 CA          9.9999    5.7514   35.9429 C.3       5 GLY6        0.0000 
     18 CZ          9.8960    4.3993   36.5839 C.ar      4 PHE5        0.0000 
     19 CA          8.5213    5.7453   35.6903 C.3       5 GLY6        0.0000 
     20 DU          8.4174    4.3932   36.3314 H         6 CUB7        0.0000 
     21 OG          8.3135    3.0410   36.9724 O.2       1 SER1        0.0000 
     22 CA          7.0428    5.7391   35.4377 C.3       5 GLY6        0.0000 
     23 DU          6.9389    4.3870   36.0788 H         6 CUB7        0.0000 
     24 O           6.8350    3.0349   36.7199 O.2       2 ALA2        0.0000 
     25 O           6.7311    1.6828   37.3609 O.2       2 ALA2        0.0000 
     26 N           5.5642    5.7330   35.1852 N.2       2 ALA2        0.0000 
     27 N           5.4603    4.3809   35.8262 N.2       2 ALA2        0.0000 
     28 DU          5.3564    3.0288   36.4673 H         6 CUB7        0.0000 
     29 O           5.2525    1.6766   37.1084 O.2       2 ALA2        0.0000 
     30 OG          3.8778    3.0226   36.2147 O.2       1 SER1        0.0000 
     31 O          13.4105    7.0153   42.6712 O.2       2 ALA2        0.0000 
     32 OD1        13.3066    5.6632   43.3123 O.3       3 ASP3        0.0000 
     33 OD1        11.8281    5.6571   43.0597 O.3       3 ASP3        0.0000 
     34 CA         10.3495    5.6509   42.8071 C.3       5 GLY6        0.0000 
     35 O          13.6408    6.3659   41.3388 O.2       2 ALA2        0.0000 
     36 OD1        13.5369    5.0138   41.9799 O.3       3 ASP3        0.0000 
     37 CA         12.1623    6.3598   41.0862 C.3       5 GLY6        0.0000 
     38 OD1        12.0584    5.0077   41.7273 O.3       3 ASP3        0.0000 
     39 CZ         12.3925    5.7104   39.7539 C.ar      4 PHE5        0.0000 
     40 CZ         12.2887    4.3583   40.3949 C.ar      4 PHE5        0.0000 
     41 CA         11.0179    7.0564   38.8602 C.3       5 GLY6        0.0000 
     42 CA         10.9140    5.7042   39.5013 C.3       5 GLY6        0.0000 
     43 O           7.7337    3.7909   31.4406 O.2       2 ALA2        0.0000 
     44 CZ          6.2551    3.7848   31.1880 C.ar      4 PHE5        0.0000 
     45 CA          6.1512    2.4327   31.8291 C.3       5 GLY6        0.0000 
     46 OG          6.4854    3.1354   29.8556 O.2       1 SER1        0.0000 
     47 CA          4.9029    1.7771   30.2441 C.3       5 GLY6        0.0000 
     48 CA         10.2302    5.1020   34.6105 C.3       5 GLY6        0.0000 
     49 CA         10.1263    3.7499   35.2516 C.3       5 GLY6        0.0000 
     50 CA          8.8555    6.4480   33.7169 C.3       5 GLY6        0.0000 
     51 O           8.7516    5.0959   34.3579 O.2       2 ALA2        0.0000 
     52 CA          8.6477    3.7438   34.9990 C.3       5 GLY6        0.0000 
     53 CZ          8.5438    2.3916   35.6401 C.ar      4 PHE5        0.0000 
     54 CA          7.3770    6.4419   33.4643 C.3       5 GLY6        0.0000 
     55 CA          7.2731    5.0897   34.1054 C.3       5 GLY6        0.0000 
     56 DU          7.1692    3.7376   34.7464 H         6 CUB7        0.0000 
     57 O           7.0653    2.3855   35.3875 O.2       2 ALA2        0.0000 
     58 CZ          5.7945    5.0836   33.8528 C.ar      4 PHE5        0.0000 
     59 N           5.6906    3.7315   34.4938 N.2       2 ALA2        0.0000 
     60 OG          5.5867    2.3793   35.1349 O.2       1 SER1        0.0000 
     61 N           4.2120    3.7253   34.2413 N.2       2 ALA2        0.0000 
     62 OG          4.1081    2.3732   34.8823 O.2       1 SER1        0.0000 
     63 CA          8.9819    4.4465   33.0255 C.3       5 GLY6        0.0000 
     64 OG          7.5034    4.4403   32.7730 O.2       1 SER1        0.0000 
     65 CA          7.3995    3.0882   33.4140 C.3       5 GLY6        0.0000 
     66 CZ          6.0248    4.4342   32.5204 C.ar      4 PHE5        0.0000 
     67 CA          5.9209    3.0821   33.1615 C.3       5 GLY6        0.0000 
     68 N           5.8170    1.7299   33.8025 N.2       2 ALA2        0.0000 
@<TRIPOS>BOND
@<TRIPOS>SUBSTRUCTURE
     1 SER1       21 GROUP   
     2 ALA2       11 GROUP   
     3 ASP3       16 GROUP   
     4 PHE5        1 GROUP   
     5 GLY6        5 GROUP   
     6 CUB7       20 GROUP   
@<TRIPOS>SET

