#    Name: 1hy3_PPS_1_INTS_M
#    Modification time : Tue Mar 25 06:31:16 2014

@<TRIPOS>MOLECULE
1hy3_PPS_1_INTS_M
   84     0    12     0     0
SMALL
NO_CHARGES


@<TRIPOS>ATOM
      1 N           4.9795    0.3375   29.1055 N.am      2 SEC2        0.0000 
      2 N           4.9320    1.5520   28.2050 N.am     10 SEL2        0.0000 
      3 N           5.0270   -0.8770   30.0060 N.am      6 SEP2        0.0000 
      4 NZ          6.0705    4.3890   26.4870 N.4       3 LYC4        0.0000 
      5 NZ          6.1440    3.5790   27.8640 N.4      11 LYL4        0.0000 
      6 NZ          5.9970    5.1990   25.1100 N.4       7 LYP4        0.0000 
      7 N           6.0705    4.3890   26.4870 N.am      2 SEC2        0.0000 
      8 N           6.1440    3.5790   27.8640 N.am     10 SEL2        0.0000 
      9 N           5.9970    5.1990   25.1100 N.am      6 SEP2        0.0000 
     10 N           8.2715    1.1480   31.2510 N.am      2 SEC2        0.0000 
     11 N           7.3220    1.8060   30.1580 N.am     10 SEL2        0.0000 
     12 N           9.2210    0.4900   32.3440 N.am      6 SEP2        0.0000 
     13 N           8.7040    2.0170   30.2820 N.am      2 SEC2        0.0000 
     14 N          10.0860    2.2280   30.4060 N.am      6 SEP2        0.0000 
     15 N           8.0890    1.6635   29.1205 N.am      2 SEC2        0.0000 
     16 N           8.8560    1.5210   28.0830 N.am      6 SEP2        0.0000 
     17 N           8.7585    4.5515   30.4895 N.am      2 SEC2        0.0000 
     18 N           7.5220    4.0180   30.9320 N.am     10 SEL2        0.0000 
     19 N           9.9950    5.0850   30.0470 N.am      6 SEP2        0.0000 
     20 N           7.6470    5.3485   30.5150 N.am      2 SEC2        0.0000 
     21 N           7.7720    6.6790   30.0980 N.am      6 SEP2        0.0000 
     22 N           7.7840    1.4240   32.3415 N.am      2 SEC2        0.0000 
     23 N           6.3470    2.3580   32.3390 N.am     10 SEL2        0.0000 
     24 CA          5.1065    4.6130   32.1510 C.3       4 GLC5        0.0000 
     25 CA          5.7280    3.1490   33.3210 C.3      12 GLL5        0.0000 
     26 CA          4.4850    6.0770   30.9810 C.3       8 GLP5        0.0000 
     27 CA          8.1420    2.0845   33.6965 C.3       4 GLC5        0.0000 
     28 CA          6.1820    2.5860   34.6540 C.3      12 GLL5        0.0000 
     29 CA         10.1020    1.5830   32.7390 C.3       8 GLP5        0.0000 
     30 CA          9.1355    2.2510   36.5475 C.3       4 GLC5        0.0000 
     31 CA          7.6490    3.6570   36.1230 C.3      12 GLL5        0.0000 
     32 CA         10.6220    0.8450   36.9720 C.3       8 GLP5        0.0000 
     33 CA          8.6265    4.2715   38.9500 C.3       4 GLC5        0.0000 
     34 CA          9.6160    4.8980   37.1190 C.3      12 GLL5        0.0000 
     35 CA          7.6370    3.6450   40.7810 C.3       8 GLP5        0.0000 
     36 N           9.7130    2.8255   38.6445 N.am      2 SEC2        0.0000 
     37 N           9.8260    4.1590   38.2540 N.am     10 SEL2        0.0000 
     38 N           9.6000    1.4920   39.0350 N.am      6 SEP2        0.0000 
     39 CA         11.8015    3.0795   40.3165 C.3       4 GLC5        0.0000 
     40 CA         10.8530    4.6370   39.0240 C.3      12 GLL5        0.0000 
     41 CA         12.7500    1.5220   41.6090 C.3       8 GLP5        0.0000 
     42 CA         10.4780    6.2490   40.1620 C.3       4 GLC5        0.0000 
     43 CA         10.1030    7.8610   41.3000 C.3       8 GLP5        0.0000 
     44 CA          9.2450    4.1410   39.9025 C.3       4 GLC5        0.0000 
     45 CA         11.0320    7.7270   39.0095 C.3       4 GLC5        0.0000 
     46 CA         11.3690    6.4650   37.5690 C.3      12 GLL5        0.0000 
     47 CA         10.6950    8.9890   40.4500 C.3       8 GLP5        0.0000 
     48 O          13.3005    8.2530   37.5200 O.2       1 ALC1        0.0000 
     49 O          12.1340    7.5260   37.3390 O.2       9 ALL1        0.0000 
     50 O          14.4670    8.9800   37.7010 O.2       5 ALP1        0.0000 
     51 CA          8.6350    7.2495   36.2340 C.3       4 GLC5        0.0000 
     52 CA         10.3120    6.0430   36.6840 C.3      12 GLL5        0.0000 
     53 CA          6.9580    8.4560   35.7840 C.3       8 GLP5        0.0000 
     54 CA          6.5995    6.3525   36.0615 C.3       4 GLC5        0.0000 
     55 CA          6.2410    4.2490   36.3390 C.3      12 GLL5        0.0000 
     56 N           5.9570    0.5975   36.5490 N.am      2 SEC2        0.0000 
     57 N           5.2990    2.0020   36.7410 N.am     10 SEL2        0.0000 
     58 N           6.6150   -0.8070   36.3570 N.am      6 SEP2        0.0000 
     59 NZ          1.7510    1.7590   38.1170 N.4       3 LYC4        0.0000 
     60 NZ          2.9010    1.8710   37.2940 N.4      11 LYL4        0.0000 
     61 NZ          0.7270    0.8330   39.9850 N.4       7 LYP4        0.0000 
     62 N           2.8115    1.0775   36.1995 N.am      2 SEC2        0.0000 
     63 N           2.9010    1.8710   37.2940 N.am     10 SEL2        0.0000 
     64 N           2.7220    0.2840   35.1050 N.am      6 SEP2        0.0000 
     65 N           1.7510    1.7590   38.1170 N.am      2 SEC2        0.0000 
     66 N           0.6010    1.6470   38.9400 N.am      6 SEP2        0.0000 
     67 N           3.9485    3.7985   39.9330 N.am      2 SEC2        0.0000 
     68 N           4.3490    2.9740   38.9090 N.am     10 SEL2        0.0000 
     69 N           3.5480    4.6230   40.9570 N.am      6 SEP2        0.0000 
     70 N           5.2780    3.3550   39.9585 N.am      2 SEC2        0.0000 
     71 N           6.2070    3.7360   41.0080 N.am      6 SEP2        0.0000 
     72 NZ          5.7775   -0.1410   38.5960 N.4       3 LYC4        0.0000 
     73 NZ          4.5140    0.5650   38.5730 N.4      11 LYL4        0.0000 
     74 NZ          7.2630   -1.3230   37.3990 N.4       7 LYP4        0.0000 
     75 N           5.5645   -0.1210   37.4650 N.am      2 SEC2        0.0000 
     76 N           4.5140    0.5650   38.5730 N.am     10 SEL2        0.0000 
     77 N           5.7775   -0.1410   38.5960 N.am      2 SEC2        0.0000 
     78 N           7.0410   -0.8470   38.6190 N.am      6 SEP2        0.0000 
     79 N           3.0805    0.2200   39.2795 N.am      2 SEC2        0.0000 
     80 N           1.6470   -0.1250   39.9860 N.am      6 SEP2        0.0000 
     81 CA          4.2620    2.4112   33.1767 C.3       4 GLC5        0.0000 
     82 CA          2.5690    1.9550   32.3660 C.3       8 GLP5        0.0000 
     83 CA         11.7033    5.5184   35.6516 C.3       4 GLC5        0.0000 
     84 CA         12.7400    5.0690   34.0680 C.3       8 GLP5        0.0000 
@<TRIPOS>BOND
@<TRIPOS>SUBSTRUCTURE
     1 ALC1       48 GROUP        1 X    ALC  0     ROOT ALC X 1
     2 SEC2        1 GROUP        1 X    SEC  0     **** SEC X 2
     3 LYC4        4 GROUP        1 X    LYC  0     **** LYC X 4
     4 GLC5       24 GROUP        1 X    GLC  0     **** GLC X 6
     5 ALP1       50 GROUP        1 Y    ALP  0     ROOT ALP Y 8
     6 SEP2        3 GROUP        1 Y    SEP  0     **** SEP Y 9
     7 LYP4        6 GROUP        1 Y    LYP  0     **** LYP Y 11
     8 GLP5       26 GROUP        1 Y    GLP  0     **** GLP Y 13
     9 ALL1       49 GROUP        1 Z    ALL  0     ROOT ALL Z 15
    10 SEL2        2 GROUP        1 Z    SEL  0     **** SEL Z 16
    11 LYL4        5 GROUP        1 Z    LYL  0     **** LYL Z 18
    12 GLL5       25 GROUP        1 Z    GLL  0     **** GLL Z 20
@<TRIPOS>SET

