#    Name: 1hy3_PPS_1_ligand
#    Modification time : Tue Mar 25 06:31:16 2014

@<TRIPOS>MOLECULE
1hy3_PPS_1_ligand
   42    44     1     0     0
SMALL
NO_CHARGES


@<TRIPOS>ATOM
      1 S2          5.0400    2.9470   28.5080 S.o2      1 PPS602      0.0000 
      2 OS1         3.8310    3.6590   28.2970 O.co2     1 PPS602      0.0000 
      3 OS2         4.9320    1.5520   28.2050 O.co2     1 PPS602      0.0000 
      4 OS3         6.1440    3.5790   27.8640 O.co2     1 PPS602      0.0000 
      5 O6P         5.2910    3.0820   30.1150 O.3       1 PPS602      0.0000 
      6 P2          6.6900    2.8110   30.8650 P.3       1 PPS602      0.0000 
      7 O4P         7.3220    1.8060   30.1580 O.co2     1 PPS602      0.0000 
      8 O5P         7.5220    4.0180   30.9320 O.co2     1 PPS602      0.0000 
      9 O5'         6.3470    2.3580   32.3390 O.3       1 PPS602      0.0000 
     10 C5'         5.7280    3.1490   33.3210 C.3       1 PPS602      0.0000 
     11 C4'         6.1820    2.5860   34.6540 C.3       1 PPS602      0.0000 
     12 O4'         7.5770    2.9710   34.9000 O.3       1 PPS602      0.0000 
     13 C1'         7.6490    3.6570   36.1230 C.3       1 PPS602      0.0000 
     14 N9          8.6620    4.7040   36.1370 N.pl3     1 PPS602      0.0000 
     15 C4          9.6160    4.8980   37.1190 C.ar      1 PPS602      0.0000 
     16 N3          9.8260    4.1590   38.2540 N.ar      1 PPS602      0.0000 
     17 C2         10.8530    4.6370   39.0240 C.ar      1 PPS602      0.0000 
     18 N1         11.6110    5.7300   38.7390 N.ar      1 PPS602      0.0000 
     19 C6         11.3690    6.4650   37.5690 C.ar      1 PPS602      0.0000 
     20 N6         12.1340    7.5260   37.3390 N.pl3     1 PPS602      0.0000 
     21 C5         10.3120    6.0430   36.6840 C.ar      1 PPS602      0.0000 
     22 N7          9.8200    6.5140   35.4930 N.2       1 PPS602      0.0000 
     23 C8          8.8520    5.6900   35.2200 C.2       1 PPS602      0.0000 
     24 C2'         6.2410    4.2490   36.3390 C.3       1 PPS602      0.0000 
     25 O2'         6.0070    4.7020   37.6540 O.3       1 PPS602      0.0000 
     26 C3'         5.3980    3.0970   35.8450 C.3       1 PPS602      0.0000 
     27 O3'         5.2990    2.0020   36.7410 O.3       1 PPS602      0.0000 
     28 P1          4.2250    1.8650   37.9250 P.3       1 PPS602      0.0000 
     29 O1P         2.9010    1.8710   37.2940 O.co2     1 PPS602      0.0000 
     30 O2P         4.3490    2.9740   38.9090 O.co2     1 PPS602      0.0000 
     31 O3P         4.5140    0.5650   38.5730 O.co2     1 PPS602      0.0000 
     32 H           4.6455    3.0891   33.2829 H         1 PPS602      0.0000 
     33 H           6.0355    4.1882   33.2737 H         1 PPS602      0.0000 
     34 H           6.1164    1.5089   34.6340 H         1 PPS602      0.0000 
     35 H           7.8075    2.9614   36.9445 H         1 PPS602      0.0000 
     36 H          11.0758    4.1009   39.9287 H         1 PPS602      0.0000 
     37 H          11.7229    8.2543   36.7907 H         1 PPS602      0.0000 
     38 H          13.0520    7.5007   37.7349 H         1 PPS602      0.0000 
     39 H           8.2653    5.7520   34.3934 H         1 PPS602      0.0000 
     40 H           6.1547    5.0386   35.5813 H         1 PPS602      0.0000 
     41 H           4.4727    3.4514   35.4896 H         1 PPS602      0.0000 
     42 H           5.3628    4.0438   38.0435 H         1 PPS602      0.0000 
@<TRIPOS>BOND
     1    2    1 ar   
     2    3    1 ar   
     3    4    1 ar   
     4    5    1 1    
     5    6    5 1    
     6    7    6 ar   
     7    8    6 ar   
     8    9    6 1    
     9   10    9 1    
    10   11   10 1    
    11   32   10 1    
    12   33   10 1    
    13   12   11 1    
    14   26   11 1    
    15   34   11 1    
    16   13   12 1    
    17   14   13 1    
    18   24   13 1    
    19   35   13 1    
    20   15   14 1    
    21   23   14 1    
    22   16   15 ar   
    23   21   15 ar   
    24   17   16 ar   
    25   18   17 ar   
    26   36   17 1    
    27   19   18 ar   
    28   20   19 1    
    29   21   19 ar   
    30   37   20 1    
    31   38   20 1    
    32   22   21 1    
    33   23   22 2    
    34   39   23 1    
    35   25   24 1    
    36   26   24 1    
    37   40   24 1    
    38   42   25 1    
    39   27   26 1    
    40   41   26 1    
    41   28   27 1    
    42   29   28 ar   
    43   30   28 ar   
    44   31   28 ar   
@<TRIPOS>SUBSTRUCTURE
     1 PPS602      1 GROUP   
@<TRIPOS>SET

