#    Name: 966c_RS2_1_INTS_M
#    Modification time : Tue Mar 25 14:00:19 2014

@<TRIPOS>MOLECULE
966c_RS2_1_INTS_M
   48     0    12     0     0
SMALL
NO_CHARGES


@<TRIPOS>ATOM
      1 CA          3.2280   -6.3580   40.4575 C.3       4 GLC5        0.0000 
      2 CA          4.7190   -7.7530   41.0000 C.3      12 GLL5        0.0000 
      3 CA          1.7370   -4.9630   39.9150 C.3       8 GLP5        0.0000 
      4 CA          8.6445   -6.5430   40.4165 C.3       4 GLC5        0.0000 
      5 CA          7.4640   -7.5190   41.1630 C.3      12 GLL5        0.0000 
      6 CA          9.8250   -5.5670   39.6700 C.3       8 GLP5        0.0000 
      7 CA          7.8860   -9.9995   34.6760 C.3       4 GLC5        0.0000 
      8 CA          9.3280   -9.3170   36.2600 C.3      12 GLL5        0.0000 
      9 CA          6.4440  -10.6820   33.0920 C.3       8 GLP5        0.0000 
     10 CA          7.3475   -7.1760   35.8055 C.3       4 GLC5        0.0000 
     11 CA          8.7630   -8.2400   36.9520 C.3      12 GLL5        0.0000 
     12 CA          5.9320   -6.1120   34.6590 C.3       8 GLP5        0.0000 
     13 N           8.8485  -11.8945   33.2165 N.am      2 SEC2        0.0000 
     14 N           9.5630  -11.7280   34.4700 N.am     10 SEL2        0.0000 
     15 N           8.1340  -12.0610   31.9630 N.am      6 SEP2        0.0000 
     16 Zn         13.0480   -8.6225   37.7255 Zn        3 ZIC7        0.0000 
     17 Zn         12.9450   -9.6110   37.3810 Zn       11 ZIL7        0.0000 
     18 Zn         13.1510   -7.6340   38.0700 Zn        7 ZIP7        0.0000 
     19 O          11.8760   -8.5420   34.1850 O.2       1 ALC1        0.0000 
     20 O          12.5200   -8.5850   35.4500 O.2       9 ALL1        0.0000 
     21 O          11.2320   -8.4990   32.9200 O.2       5 ALP1        0.0000 
     22 Zn         12.9105   -7.4495   37.0090 Zn        3 ZIC7        0.0000 
     23 Zn         12.6700   -7.2650   35.9480 Zn       11 ZIL7        0.0000 
     24 O          12.2925   -5.9445   35.0960 O.2       1 ALC1        0.0000 
     25 O          12.6700   -7.2650   35.9480 O.2       9 ALL1        0.0000 
     26 O          11.9150   -4.6240   34.2440 O.2       5 ALP1        0.0000 
     27 O          11.5815   -6.6715   35.4860 O.2       1 ALC1        0.0000 
     28 O          10.4930   -6.0780   35.0240 O.2       5 ALP1        0.0000 
     29 CA          5.6160   -6.3193   38.3603 C.3       4 GLC5        0.0000 
     30 CA          5.4650   -7.5420   39.8360 C.3      12 GLL5        0.0000 
     31 CA          5.0770   -5.1440   36.8420 C.3       8 GLP5        0.0000 
     32 CA          7.4160   -6.0672   39.6403 C.3       4 GLC5        0.0000 
     33 CA          8.6770   -4.6400   39.4020 C.3       8 GLP5        0.0000 
     34 CA          5.1669   -9.6387   40.5879 C.3       4 GLC5        0.0000 
     35 CA          5.0880  -11.5980   40.4490 C.3       8 GLP5        0.0000 
     36 CA          9.3678   -7.6965   38.6480 C.3       4 GLC5        0.0000 
     37 CA          8.1560   -9.7450   38.7750 C.3      12 GLL5        0.0000 
     38 CA         10.5840   -6.3000   38.8110 C.3       8 GLP5        0.0000 
     39 CA          8.3930  -11.6150   40.1453 C.3       4 GLC5        0.0000 
     40 CA          8.3400  -12.9470   41.8590 C.3       8 GLP5        0.0000 
     41 CA          6.7670  -10.9405   39.4402 C.3       4 GLC5        0.0000 
     42 CA          8.7360  -10.8210   38.0880 C.3      12 GLL5        0.0000 
     43 CA          7.2305  -11.0597   36.3475 C.3       4 GLC5        0.0000 
     44 CA          5.4690  -11.4080   35.2380 C.3       8 GLP5        0.0000 
     45 CA          9.8148   -7.5393   37.7085 C.3       4 GLC5        0.0000 
     46 CA         12.8710  -12.0815   39.7460 C.3       4 GLC5        0.0000 
     47 CA         11.8640  -12.3560   37.7120 C.3      12 GLL5        0.0000 
     48 CA         13.1360  -11.6130   41.7040 C.3       8 GLP5        0.0000 
@<TRIPOS>BOND
@<TRIPOS>SUBSTRUCTURE
     1 ALC1       19 GROUP        1 X    ALC  0     ROOT ALC X 1
     2 SEC2       13 GROUP        1 X    SEC  0     **** SEC X 2
     3 ZIC7       16 GROUP        1 X    ZIC  0     **** ZIC X 5
     4 GLC5        1 GROUP        1 X    GLC  0     **** GLC X 6
     5 ALP1       21 GROUP        1 Y    ALP  0     ROOT ALP Y 8
     6 SEP2       15 GROUP        1 Y    SEP  0     **** SEP Y 9
     7 ZIP7       18 GROUP        1 Y    ZIP  0     **** ZIP Y 12
     8 GLP5        3 GROUP        1 Y    GLP  0     **** GLP Y 13
     9 ALL1       20 GROUP        1 Z    ALL  0     ROOT ALL Z 15
    10 SEL2       14 GROUP        1 Z    SEL  0     **** SEL Z 16
    11 ZIL7       17 GROUP        1 Z    ZIL  0     **** ZIL Z 19
    12 GLL5        2 GROUP        1 Z    GLL  0     **** GLL Z 20
@<TRIPOS>SET

