#    Name: 966c_RS2_1_ligand
#    Modification time : Tue Mar 25 14:00:19 2014

@<TRIPOS>MOLECULE
966c_RS2_1_ligand
   48    50     1     0     0
SMALL
NO_CHARGES


@<TRIPOS>ATOM
      1 C1          6.7140   -7.7550   42.3250 C.ar      1 RS21        0.0000 
      2 C2          5.3340   -7.8810   42.2350 C.ar      1 RS21        0.0000 
      3 C3          4.7190   -7.7530   41.0000 C.ar      1 RS21        0.0000 
      4 C4          5.4650   -7.5420   39.8360 C.ar      1 RS21        0.0000 
      5 C5          6.8450   -7.4470   39.9210 C.ar      1 RS21        0.0000 
      6 C6          7.4640   -7.5190   41.1630 C.ar      1 RS21        0.0000 
      7 O12         7.5780   -7.3090   38.7820 O.3       1 RS21        0.0000 
      8 C13         8.1470   -8.4410   38.1950 C.ar      1 RS21        0.0000 
      9 C14         8.1560   -9.7450   38.7750 C.ar      1 RS21        0.0000 
     10 C15         8.7360  -10.8210   38.0880 C.ar      1 RS21        0.0000 
     11 C16         9.2480  -10.6020   36.8260 C.ar      1 RS21        0.0000 
     12 C17         9.3280   -9.3170   36.2600 C.ar      1 RS21        0.0000 
     13 C18         8.7630   -8.2400   36.9520 C.ar      1 RS21        0.0000 
     14 S23         9.7950  -12.0130   35.8710 S.o2      1 RS21        0.0000 
     15 C24        11.5470  -12.1890   36.1860 C.3       1 RS21        0.0000 
     16 O25         9.5630  -11.7280   34.4700 O.2       1 RS21        0.0000 
     17 O26         9.1070  -13.1280   36.4170 O.2       1 RS21        0.0000 
     18 C27        12.3670  -11.0400   35.4610 C.3       1 RS21        0.0000 
     19 C28        12.6400   -9.6860   36.2030 C.2       1 RS21        0.0000 
     20 O31        12.9450   -9.6110   37.3810 O.2       1 RS21        0.0000 
     21 N32        12.5200   -8.5850   35.4500 N.am      1 RS21        0.0000 
     22 O33        12.6700   -7.2650   35.9480 O.3       1 RS21        0.0000 
     23 C36        11.8130  -13.5790   35.5150 C.3       1 RS21        0.0000 
     24 C37        13.2860  -14.0460   35.7420 C.3       1 RS21        0.0000 
     25 O38        13.6120  -13.9490   37.1330 O.3       1 RS21        0.0000 
     26 C39        13.3480  -12.7440   37.8640 C.3       1 RS21        0.0000 
     27 C40        11.8640  -12.3560   37.7120 C.3       1 RS21        0.0000 
     28 H           7.1866   -7.8327   43.2292 H         1 RS21        0.0000 
     29 H           4.7768   -8.0669   43.0751 H         1 RS21        0.0000 
     30 H           3.6864   -7.8140   40.9316 H         1 RS21        0.0000 
     31 H           4.9910   -7.4593   38.9328 H         1 RS21        0.0000 
     32 H           8.4857   -7.3984   41.2376 H         1 RS21        0.0000 
     33 H           7.7348   -9.8839   39.6963 H         1 RS21        0.0000 
     34 H           8.7735  -11.7425   38.5215 H         1 RS21        0.0000 
     35 H           9.7879   -9.1767   35.3656 H         1 RS21        0.0000 
     36 H           8.7993   -7.2960   36.5476 H         1 RS21        0.0000 
     37 H          11.8445  -10.8112   34.4975 H         1 RS21        0.0000 
     38 H          13.3519  -11.4739   35.1521 H         1 RS21        0.0000 
     39 H          12.3002   -8.6706   34.4164 H         1 RS21        0.0000 
     40 H          11.6296  -13.4946   34.4511 H         1 RS21        0.0000 
     41 H          11.1406  -14.3100   35.9464 H         1 RS21        0.0000 
     42 H          13.9218  -13.4095   35.1233 H         1 RS21        0.0000 
     43 H          13.3569  -15.0706   35.3715 H         1 RS21        0.0000 
     44 H          13.9471  -11.9053   37.4965 H         1 RS21        0.0000 
     45 H          13.5493  -12.8637   38.9329 H         1 RS21        0.0000 
     46 H          11.2425  -13.1353   38.1097 H         1 RS21        0.0000 
     47 H          11.6808  -11.4211   38.2062 H         1 RS21        0.0000 
     48 H          11.8602   -6.7739   35.6271 H         1 RS21        0.0000 
@<TRIPOS>BOND
     1    2    1 ar   
     2    6    1 ar   
     3   28    1 1    
     4    3    2 ar   
     5   29    2 1    
     6    4    3 ar   
     7   30    3 1    
     8    5    4 ar   
     9   31    4 1    
    10    6    5 ar   
    11    7    5 1    
    12   32    6 1    
    13    8    7 1    
    14    9    8 ar   
    15   13    8 ar   
    16   10    9 ar   
    17   33    9 1    
    18   11   10 ar   
    19   34   10 1    
    20   12   11 ar   
    21   14   11 1    
    22   13   12 ar   
    23   35   12 1    
    24   36   13 1    
    25   15   14 1    
    26   16   14 2    
    27   17   14 2    
    28   18   15 1    
    29   23   15 1    
    30   27   15 1    
    31   19   18 1    
    32   37   18 1    
    33   38   18 1    
    34   20   19 2    
    35   21   19 am   
    36   22   21 1    
    37   39   21 1    
    38   48   22 1    
    39   24   23 1    
    40   40   23 1    
    41   41   23 1    
    42   25   24 1    
    43   42   24 1    
    44   43   24 1    
    45   26   25 1    
    46   27   26 1    
    47   44   26 1    
    48   45   26 1    
    49   46   27 1    
    50   47   27 1    
@<TRIPOS>SUBSTRUCTURE
     1 RS21        1 GROUP   
@<TRIPOS>SET

