#    Name: 4gb2_0LQ_1_INTS_M
#    Modification time : Mon Mar 24 21:38:05 2014

@<TRIPOS>MOLECULE
4gb2_0LQ_1_INTS_M
   91     0     9     0     0
SMALL
NO_CHARGES


@<TRIPOS>ATOM
      1 N         -19.6145  -23.1140    5.8775 N.am      1 SEC2        0.0000 
      2 N         -18.4530  -22.2920    6.4710 N.am      7 SEL2        0.0000 
      3 N         -20.7760  -23.9360    5.2840 N.am      4 SEP2        0.0000 
      4 N         -18.2355  -23.1295    7.7090 N.am      1 SEC2        0.0000 
      5 N         -18.0180  -23.9670    8.9470 N.am      4 SEP2        0.0000 
      6 CA        -14.2430  -25.2710    1.1180 C.3       3 GLC5        0.0000 
      7 CA        -13.5300  -24.4320    2.9390 C.3       9 GLL5        0.0000 
      8 CA        -14.9560  -26.1100   -0.7030 C.3       6 GLP5        0.0000 
      9 CA        -11.3105  -25.8615    1.5295 C.3       3 GLC5        0.0000 
     10 CA        -12.3880  -25.1380    3.3170 C.3       9 GLL5        0.0000 
     11 CA        -10.2330  -26.5850   -0.2580 C.3       6 GLP5        0.0000 
     12 CA         -9.8125  -24.6690    3.8405 C.3       3 GLC5        0.0000 
     13 CA        -11.6990  -24.7980    4.4810 C.3       9 GLL5        0.0000 
     14 CA         -7.9260  -24.5400    3.2000 C.3       6 GLP5        0.0000 
     15 CA        -12.6985  -18.5220    4.5430 C.3       3 GLC5        0.0000 
     16 CA        -14.4140  -19.2420    4.5850 C.3       9 GLL5        0.0000 
     17 CA        -10.9830  -17.8020    4.5010 C.3       6 GLP5        0.0000 
     18 CA        -12.8480  -20.1340    3.5435 C.3       3 GLC5        0.0000 
     19 CA        -11.2820  -21.0260    2.5020 C.3       6 GLP5        0.0000 
     20 OD1       -14.5760  -17.0155    4.3110 O.co2     2 ASC3        0.0000 
     21 OD1       -15.2310  -18.1480    4.0580 O.co2     8 ASL3        0.0000 
     22 OD1       -13.9210  -15.8830    4.5640 O.co2     5 ASP3        0.0000 
     23 OD1       -14.6810  -17.5190    5.2825 O.co2     2 ASC3        0.0000 
     24 OD1       -14.1310  -16.8900    6.5070 O.co2     5 ASP3        0.0000 
     25 OD1       -14.3205  -17.7830    3.0480 O.co2     2 ASC3        0.0000 
     26 OD1       -13.4100  -17.4180    2.0380 O.co2     5 ASP3        0.0000 
     27 OD1       -15.1205  -18.4410    2.7090 O.co2     2 ASC3        0.0000 
     28 OD1       -15.0100  -18.7340    1.3600 O.co2     5 ASP3        0.0000 
     29 CA        -16.3090  -16.7175    3.1560 C.3       3 GLC5        0.0000 
     30 CA        -16.6400  -18.2820    4.3830 C.3       9 GLL5        0.0000 
     31 CA        -15.9780  -15.1530    1.9290 C.3       6 GLP5        0.0000 
     32 CA        -17.1620  -16.2545    4.8070 C.3       3 GLC5        0.0000 
     33 CA        -17.6840  -14.2270    5.2310 C.3       6 GLP5        0.0000 
     34 CA        -19.2525  -22.7260    3.0520 C.3       3 GLC5        0.0000 
     35 CA        -19.5290  -20.5440    3.0370 C.3       9 GLL5        0.0000 
     36 CA        -18.9760  -24.9080    3.0670 C.3       6 GLP5        0.0000 
     37 CA        -21.0010  -19.0335   -0.4610 C.3       3 GLC5        0.0000 
     38 CA        -20.1220  -18.9410    1.3470 C.3       9 GLL5        0.0000 
     39 CA        -21.8800  -19.1260   -2.2690 C.3       6 GLP5        0.0000 
     40 CA        -15.4770  -24.5523    8.1875 C.3       3 GLC5        0.0000 
     41 CA        -14.0330  -23.2260    7.9180 C.3       9 GLL5        0.0000 
     42 CA        -16.9980  -25.8180    7.7690 C.3       6 GLP5        0.0000 
     43 CA        -14.3483  -23.5720   11.3388 C.3       3 GLC5        0.0000 
     44 CA        -13.8790  -23.3470    9.2940 C.3       9 GLL5        0.0000 
     45 CA        -15.1080  -24.3130   13.0200 C.3       6 GLP5        0.0000 
     46 CA        -12.2160  -21.2003   11.1305 C.3       3 GLC5        0.0000 
     47 CA        -13.2980  -22.3150   10.0210 C.3       9 GLL5        0.0000 
     48 CA        -11.3430  -20.6580   12.5670 C.3       6 GLP5        0.0000 
     49 CA        -11.6723  -19.7233    8.4283 C.3       3 GLC5        0.0000 
     50 CA        -12.8800  -21.1700    9.3670 C.3       9 GLL5        0.0000 
     51 CA        -10.3920  -18.3320    8.1770 C.3       6 GLP5        0.0000 
     52 CA        -14.1672  -19.5808    9.3972 C.3       3 GLC5        0.0000 
     53 CA        -13.0250  -21.0590    7.9920 C.3       9 GLL5        0.0000 
     54 CA        -15.3820  -18.0470   10.1150 C.3       6 GLP5        0.0000 
     55 CA        -15.6828  -24.4337    2.8902 C.3       3 GLC5        0.0000 
     56 CA        -13.9950  -23.3750    3.7360 C.3       9 GLL5        0.0000 
     57 CA        -17.6030  -24.9640    2.4430 C.3       6 GLP5        0.0000 
     58 CA        -13.0032  -22.5203    2.3253 C.3       3 GLC5        0.0000 
     59 CA        -12.2440  -21.1370    1.3130 C.3       6 GLP5        0.0000 
     60 CA        -14.8498  -23.1037    1.8447 C.3       3 GLC5        0.0000 
     61 CA        -15.9370  -22.3040    0.3520 C.3       6 GLP5        0.0000 
     62 CA        -11.6628  -22.9970    3.2005 C.3       3 GLC5        0.0000 
     63 CA        -12.0723  -22.0661    3.9072 C.3       3 GLC5        0.0000 
     64 CA        -12.1710  -23.7500    5.2760 C.3       9 GLL5        0.0000 
     65 CA        -21.1167  -20.4832    6.1699 C.3       3 GLC5        0.0000 
     66 CA        -19.2190  -19.8870    5.4390 C.3       9 GLL5        0.0000 
     67 CA        -22.1500  -22.1020    6.0170 C.3       6 GLP5        0.0000 
     68 CA        -20.1852  -20.3372    7.7919 C.3       3 GLC5        0.0000 
     69 CA        -20.2870  -21.8100    9.2610 C.3       6 GLP5        0.0000 
     70 CA        -21.4683  -17.2335    9.8875 C.3       3 GLC5        0.0000 
     71 CA        -21.0840  -17.3900    7.6400 C.3       9 GLL5        0.0000 
     72 CA        -22.3690  -17.3710   11.7660 C.3       6 GLP5        0.0000 
     73 CA        -19.2850  -16.2028   10.1393 C.3       3 GLC5        0.0000 
     74 CA        -18.7450  -17.2150    8.1550 C.3       9 GLL5        0.0000 
     75 CA        -19.1720  -15.3970   12.0120 C.3       6 GLP5        0.0000 
     76 CA        -16.9973  -17.8803    8.8980 C.3       3 GLC5        0.0000 
     77 CA        -17.9560  -16.0266    7.1519 C.3       3 GLC5        0.0000 
     78 CA        -18.4800  -18.2120    7.2070 C.3       9 GLL5        0.0000 
     79 CA        -16.9730  -14.4430    6.5670 C.3       6 GLP5        0.0000 
     80 CA        -18.7830  -18.5661    9.3054 C.3       3 GLC5        0.0000 
     81 CA        -18.6270  -19.5220   10.8740 C.3       6 GLP5        0.0000 
     82 CA        -20.8465  -21.0710    4.7710 C.3       3 GLC5        0.0000 
     83 CA        -19.5570  -19.5360    4.0130 C.3       9 GLL5        0.0000 
     84 CA        -21.1950  -20.8865    2.7575 C.3       3 GLC5        0.0000 
     85 CA        -22.8470  -21.7330    1.9900 C.3       6 GLP5        0.0000 
     86 CA        -21.4057  -20.6632    1.7567 C.3       3 GLC5        0.0000 
     87 CA        -19.8070  -20.2460    1.7000 C.3       9 GLL5        0.0000 
     88 CA        -18.5962  -19.8663    0.2217 C.3       3 GLC5        0.0000 
     89 CA        -17.2280  -20.1390   -1.0800 C.3       6 GLP5        0.0000 
     90 CA        -19.4947  -17.3552    0.4505 C.3       3 GLC5        0.0000 
     91 CA        -18.8550  -16.2730   -0.9260 C.3       6 GLP5        0.0000 
@<TRIPOS>BOND
@<TRIPOS>SUBSTRUCTURE
     1 SEC2        1 GROUP        1 X    SEC  0     ROOT SEC X 2
     2 ASC3       20 GROUP        1 X    ASC  0     **** ASC X 3
     3 GLC5        6 GROUP        1 X    GLC  0     **** GLC X 6
     4 SEP2        3 GROUP        1 Y    SEP  0     ROOT SEP Y 9
     5 ASP3       22 GROUP        1 Y    ASP  0     **** ASP Y 10
     6 GLP5        8 GROUP        1 Y    GLP  0     **** GLP Y 13
     7 SEL2        2 GROUP        1 Z    SEL  0     ROOT SEL Z 16
     8 ASL3       21 GROUP        1 Z    ASL  0     **** ASL Z 17
     9 GLL5        7 GROUP        1 Z    GLL  0     **** GLL Z 20
@<TRIPOS>SET

