#    Name: 4gb2_0LQ_1_ligand
#    Modification time : Mon Mar 24 21:38:05 2014

@<TRIPOS>MOLECULE
4gb2_0LQ_1_ligand
   65    70     1     0     0
SMALL
NO_CHARGES


@<TRIPOS>ATOM
      1 C1        -16.7070  -19.7910    4.6550 C.3       1 0LQ101      0.0000 
      2 N1        -17.8310  -20.4080    5.3970 N.am      1 0LQ101      0.0000 
      3 C2        -17.5820  -21.6260    5.9100 C.2       1 0LQ101      0.0000 
      4 O1        -18.4530  -22.2920    6.4710 O.2       1 0LQ101      0.0000 
      5 C3        -16.2350  -22.2170    5.7700 C.2       1 0LQ101      0.0000 
      6 O2        -16.1100  -23.4280    5.9100 O.2       1 0LQ101      0.0000 
      7 N2        -15.1810  -21.4190    5.6000 N.am      1 0LQ101      0.0000 
      8 C4        -13.7830  -21.8880    5.7780 C.3       1 0LQ101      0.0000 
      9 C5        -13.6070  -22.0820    7.2500 C.ar      1 0LQ101      0.0000 
     10 C6        -14.0330  -23.2260    7.9180 C.ar      1 0LQ101      0.0000 
     11 C7        -13.8790  -23.3470    9.2940 C.ar      1 0LQ101      0.0000 
     12 C8        -13.2980  -22.3150   10.0210 C.ar      1 0LQ101      0.0000 
     13 C9        -12.8800  -21.1700    9.3670 C.ar      1 0LQ101      0.0000 
     14 C10       -13.0250  -21.0590    7.9920 C.ar      1 0LQ101      0.0000 
     15 C11       -13.3250  -23.0370    4.9200 C.ar      1 0LQ101      0.0000 
     16 C12       -13.9950  -23.3750    3.7360 C.ar      1 0LQ101      0.0000 
     17 C13       -13.5300  -24.4320    2.9390 C.ar      1 0LQ101      0.0000 
     18 C14       -12.3880  -25.1380    3.3170 C.ar      1 0LQ101      0.0000 
     19 C15       -11.6990  -24.7980    4.4810 C.ar      1 0LQ101      0.0000 
     20 C16       -12.1710  -23.7500    5.2760 C.ar      1 0LQ101      0.0000 
     21 C17       -15.4300  -19.9850    5.4520 C.3       1 0LQ101      0.0000 
     22 C18       -14.4140  -19.2420    4.5850 C.3       1 0LQ101      0.0000 
     23 N3        -15.2310  -18.1480    4.0580 N.4       1 0LQ101      0.0000 
     24 C19       -16.6400  -18.2820    4.3830 C.3       1 0LQ101      0.0000 
     25 C20       -19.2190  -19.8870    5.4390 C.3       1 0LQ101      0.0000 
     26 C21       -19.4950  -18.7990    6.4560 C.ar      1 0LQ101      0.0000 
     27 C22       -20.8100  -18.3860    6.6980 C.ar      1 0LQ101      0.0000 
     28 C23       -21.0840  -17.3900    7.6400 C.ar      1 0LQ101      0.0000 
     29 C24       -20.0510  -16.8020    8.3780 C.ar      1 0LQ101      0.0000 
     30 C25       -18.7450  -17.2150    8.1550 C.ar      1 0LQ101      0.0000 
     31 C26       -18.4800  -18.2120    7.2070 C.ar      1 0LQ101      0.0000 
     32 C27       -19.5570  -19.5360    4.0130 C.ar      1 0LQ101      0.0000 
     33 C28       -19.5290  -20.5440    3.0370 C.ar      1 0LQ101      0.0000 
     34 C29       -19.8070  -20.2460    1.7000 C.ar      1 0LQ101      0.0000 
     35 C30       -20.1220  -18.9410    1.3470 C.ar      1 0LQ101      0.0000 
     36 C31       -20.1470  -17.9340    2.3070 C.ar      1 0LQ101      0.0000 
     37 C32       -19.8680  -18.2330    3.6380 C.ar      1 0LQ101      0.0000 
     38 H         -16.5212  -20.3036    3.7057 H         1 0LQ101      0.0000 
     39 H         -13.1272  -20.9915    5.5241 H         1 0LQ101      0.0000 
     40 H         -14.4698  -23.9958    7.3830 H         1 0LQ101      0.0000 
     41 H         -14.1949  -24.1999    9.7738 H         1 0LQ101      0.0000 
     42 H         -13.1810  -22.4046   11.0371 H         1 0LQ101      0.0000 
     43 H         -12.4588  -20.3951    9.9021 H         1 0LQ101      0.0000 
     44 H         -12.6963  -20.2042    7.5097 H         1 0LQ101      0.0000 
     45 H         -14.8278  -22.8484    3.4509 H         1 0LQ101      0.0000 
     46 H         -14.0314  -24.6822    2.0809 H         1 0LQ101      0.0000 
     47 H         -12.0510  -25.9163    2.7321 H         1 0LQ101      0.0000 
     48 H         -10.8565  -25.3098    4.7512 H         1 0LQ101      0.0000 
     49 H         -11.6643  -23.4954    6.1383 H         1 0LQ101      0.0000 
     50 H         -15.5400  -19.4771    6.3695 H         1 0LQ101      0.0000 
     51 H         -14.0827  -19.8877    3.8142 H         1 0LQ101      0.0000 
     52 H         -13.6328  -18.8828    5.2026 H         1 0LQ101      0.0000 
     53 H         -16.8932  -17.7681    5.2682 H         1 0LQ101      0.0000 
     54 H         -17.2597  -18.0598    3.5593 H         1 0LQ101      0.0000 
     55 H         -19.8765  -20.7688    5.6907 H         1 0LQ101      0.0000 
     56 H         -21.5846  -18.8213    6.1757 H         1 0LQ101      0.0000 
     57 H         -22.0564  -17.0855    7.7927 H         1 0LQ101      0.0000 
     58 H         -20.2601  -16.0806    9.0688 H         1 0LQ101      0.0000 
     59 H         -17.9703  -16.7944    8.6807 H         1 0LQ101      0.0000 
     60 H         -17.4979  -18.5192    7.0632 H         1 0LQ101      0.0000 
     61 H         -19.3017  -21.5094    3.3103 H         1 0LQ101      0.0000 
     62 H         -19.7775  -20.9840    0.9932 H         1 0LQ101      0.0000 
     63 H         -20.3400  -18.7139    0.3634 H         1 0LQ101      0.0000 
     64 H         -20.3715  -16.9687    2.0338 H         1 0LQ101      0.0000 
     65 H         -19.8921  -17.4866    4.3467 H         1 0LQ101      0.0000 
@<TRIPOS>BOND
     1    2    1 1    
     2   21    1 1    
     3   24    1 1    
     4   38    1 1    
     5    3    2 am   
     6   25    2 1    
     7    4    3 2    
     8    5    3 1    
     9    6    5 2    
    10    7    5 am   
    11    8    7 1    
    12   21    7 1    
    13    9    8 1    
    14   15    8 1    
    15   39    8 1    
    16   10    9 ar   
    17   14    9 ar   
    18   11   10 ar   
    19   40   10 1    
    20   12   11 ar   
    21   41   11 1    
    22   13   12 ar   
    23   42   12 1    
    24   14   13 ar   
    25   43   13 1    
    26   44   14 1    
    27   16   15 ar   
    28   20   15 ar   
    29   17   16 ar   
    30   45   16 1    
    31   18   17 ar   
    32   46   17 1    
    33   19   18 ar   
    34   47   18 1    
    35   20   19 ar   
    36   48   19 1    
    37   49   20 1    
    38   22   21 1    
    39   50   21 1    
    40   23   22 1    
    41   51   22 1    
    42   52   22 1    
    43   24   23 1    
    44   53   24 1    
    45   54   24 1    
    46   26   25 1    
    47   32   25 1    
    48   55   25 1    
    49   27   26 ar   
    50   31   26 ar   
    51   28   27 ar   
    52   56   27 1    
    53   29   28 ar   
    54   57   28 1    
    55   30   29 ar   
    56   58   29 1    
    57   31   30 ar   
    58   59   30 1    
    59   60   31 1    
    60   33   32 ar   
    61   37   32 ar   
    62   34   33 ar   
    63   61   33 1    
    64   35   34 ar   
    65   62   34 1    
    66   36   35 ar   
    67   63   35 1    
    68   37   36 ar   
    69   64   36 1    
    70   65   37 1    
@<TRIPOS>SUBSTRUCTURE
     1 0LQ101      1 GROUP   
@<TRIPOS>SET

