#    Name: 2npf_MOU_1_INTS_M
#    Modification time : Tue Mar 25 21:27:28 2014

@<TRIPOS>MOLECULE
2npf_MOU_1_INTS_M
  107     0     6     0     0
SMALL
NO_CHARGES


@<TRIPOS>ATOM
      1 CA          6.0795   12.2520   37.6680 C.3       2 GLC5        0.0000 
      2 CA          5.5360   11.4650   39.3670 C.3       6 GLL5        0.0000 
      3 CA          6.6230   13.0390   35.9690 C.3       4 GLP5        0.0000 
      4 CA          3.0135   15.3400   44.7060 C.3       2 GLC5        0.0000 
      5 CA          2.1350   16.9520   44.1280 C.3       6 GLL5        0.0000 
      6 CA          3.8920   13.7280   45.2840 C.3       4 GLP5        0.0000 
      7 CA          2.5690   16.8030   45.9115 C.3       2 GLC5        0.0000 
      8 CA          3.0030   16.6540   47.6950 C.3       4 GLP5        0.0000 
      9 CA          1.8305   14.6540   44.2105 C.3       2 GLC5        0.0000 
     10 CA          0.7290   16.3680   43.7770 C.3       6 GLL5        0.0000 
     11 CA          2.9320   12.9400   44.6440 C.3       4 GLP5        0.0000 
     12 CA         -0.4225   14.6115   43.3605 C.3       2 GLC5        0.0000 
     13 CA         -1.5740   12.8550   42.9440 C.3       4 GLP5        0.0000 
     14 CA         -1.4735   15.4470   44.8640 C.3       2 GLC5        0.0000 
     15 CA         -0.2920   17.0610   44.7690 C.3       6 GLL5        0.0000 
     16 CA         -2.6550   13.8330   44.9590 C.3       4 GLP5        0.0000 
     17 N          -0.0275   21.0285   46.4220 N.am      1 SEC2        0.0000 
     18 N           0.2660   19.8050   45.7690 N.am      5 SEL2        0.0000 
     19 N          -0.3210   22.2520   47.0750 N.am      3 SEP2        0.0000 
     20 CA         -1.2290   14.6525   42.2435 C.3       2 GLC5        0.0000 
     21 CA         -0.8840   16.4500   41.5430 C.3       6 GLL5        0.0000 
     22 CA         -2.0080   20.3285   42.3565 C.3       2 GLC5        0.0000 
     23 CA         -1.9280   18.3550   43.0780 C.3       6 GLL5        0.0000 
     24 CA         -2.0880   22.3020   41.6350 C.3       4 GLP5        0.0000 
     25 CA         -4.6315   16.1700   43.1090 C.3       2 GLC5        0.0000 
     26 CA         -4.2700   18.0040   42.6910 C.3       6 GLL5        0.0000 
     27 CA         -4.9930   14.3360   43.5270 C.3       4 GLP5        0.0000 
     28 CA         -4.0995   16.5660   44.3195 C.3       2 GLC5        0.0000 
     29 CA         -3.2710   18.4590   43.7690 C.3       6 GLL5        0.0000 
     30 CA         -4.9280   14.6730   44.8700 C.3       4 GLP5        0.0000 
     31 CA          5.6040   20.4560   44.4640 C.3       2 GLC5        0.0000 
     32 CA          3.8560   19.5220   44.8310 C.3       6 GLL5        0.0000 
     33 CA          7.3520   21.3900   44.0970 C.3       4 GLP5        0.0000 
     34 CA          2.9375   20.7925   46.2980 C.3       2 GLC5        0.0000 
     35 CA          2.0190   22.0630   47.7650 C.3       4 GLP5        0.0000 
     36 CA          3.4295   18.0880   46.2630 C.3       2 GLC5        0.0000 
     37 CA          4.0540   18.4090   40.4720 C.3       2 GLC5        0.0000 
     38 CA          4.3160   18.9050   42.4210 C.3       6 GLL5        0.0000 
     39 CA          3.7920   17.9130   38.5230 C.3       4 GLP5        0.0000 
     40 CA          5.3030   19.8885   40.9910 C.3       2 GLC5        0.0000 
     41 CA          6.2900   20.8720   39.5610 C.3       4 GLP5        0.0000 
     42 CA          5.8340   20.1475   43.2590 C.3       2 GLC5        0.0000 
     43 N           0.3140   21.5435   41.1980 N.am      1 SEC2        0.0000 
     44 N           0.7290   20.6260   42.1510 N.am      5 SEL2        0.0000 
     45 N          -0.1010   22.4610   40.2450 N.am      3 SEP2        0.0000 
     46 N           0.1885   20.8070   40.3420 N.am      1 SEC2        0.0000 
     47 N           0.4780   19.1530   40.4390 N.am      5 SEL2        0.0000 
     48 CA          2.6355   17.0510   39.8505 C.3       2 GLC5        0.0000 
     49 CA          1.4790   16.1890   41.1780 C.3       6 GLL5        0.0000 
     50 CA          3.5635   15.5960   39.5050 C.3       2 GLC5        0.0000 
     51 CA          2.3550   14.2060   40.2100 C.3       6 GLL5        0.0000 
     52 CA          4.7720   16.9860   38.8000 C.3       4 GLP5        0.0000 
     53 CA          3.7330   15.5615   38.2830 C.3       2 GLC5        0.0000 
     54 CA          2.6940   14.1370   37.7660 C.3       6 GLL5        0.0000 
     55 CA          2.6615   12.8090   42.4685 C.3       2 GLC5        0.0000 
     56 CA          2.3910   12.6780   40.2930 C.3       6 GLL5        0.0000 
     57 CA          1.8615   10.8565   41.3425 C.3       2 GLC5        0.0000 
     58 CA          1.3320    9.0350   42.3920 C.3       4 GLP5        0.0000 
     59 N           0.4465   11.5430   41.4950 N.am      1 SEC2        0.0000 
     60 N           1.0630   12.2150   40.1720 N.am      5 SEL2        0.0000 
     61 N          -0.1700   10.8710   42.8180 N.am      3 SEP2        0.0000 
     62 CA          3.2640   16.2790   36.3175 C.3       2 GLC5        0.0000 
     63 CA          2.1230   14.6560   36.4680 C.3       6 GLL5        0.0000 
     64 CA          4.4050   17.9020   36.1670 C.3       4 GLP5        0.0000 
     65 CA          4.7830   12.0530   35.9475 C.3       2 GLC5        0.0000 
     66 CA          2.9430   11.0670   35.9260 C.3       6 GLL5        0.0000 
     67 CA          6.1755   10.2210   42.5835 C.3       2 GLC5        0.0000 
     68 CA          6.1270   11.3740   40.7460 C.3       6 GLL5        0.0000 
     69 CA          6.2240    9.0680   44.4210 C.3       4 GLP5        0.0000 
     70 CA          8.5435   13.3800   39.7965 C.3       2 GLC5        0.0000 
     71 CA          7.0910   12.4160   41.2150 C.3       6 GLL5        0.0000 
     72 CA          9.9960   14.3440   38.3780 C.3       4 GLP5        0.0000 
     73 CA         10.4050   12.8545   43.0735 C.3       2 GLC5        0.0000 
     74 CA          8.2320   12.9240   43.4030 C.3       6 GLL5        0.0000 
     75 CA         12.5780   12.7850   42.7440 C.3       4 GLP5        0.0000 
     76 CA          8.6640   14.6235   42.9515 C.3       2 GLC5        0.0000 
     77 CA          9.0960   16.3230   42.5000 C.3       4 GLP5        0.0000 
     78 CA          9.1435   14.8135   44.0785 C.3       2 GLC5        0.0000 
     79 CA          9.1910   13.3040   45.6570 C.3       6 GLL5        0.0000 
     80 CA          8.0825   13.4825   47.5880 C.3       2 GLC5        0.0000 
     81 CA          6.9740   13.6610   49.5190 C.3       4 GLP5        0.0000 
     82 CA         10.3115   11.6685   48.5335 C.3       2 GLC5        0.0000 
     83 CA         10.2270   12.5820   46.5350 C.3       6 GLL5        0.0000 
     84 CA         10.3960   10.7550   50.5320 C.3       4 GLP5        0.0000 
     85 CA         11.8740   11.5375   46.3290 C.3       2 GLC5        0.0000 
     86 CA         13.5210   10.4930   46.1230 C.3       4 GLP5        0.0000 
     87 N          12.4410   11.2440   48.0560 N.am      1 SEC2        0.0000 
     88 N          12.3700   12.6310   47.4600 N.am      5 SEL2        0.0000 
     89 N          12.5120    9.8570   48.6520 N.am      3 SEP2        0.0000 
     90 CA          0.6847   15.8447   46.1470 C.3       2 GLC5        0.0000 
     91 CA          1.1510   14.9750   48.0210 C.3       4 GLP5        0.0000 
     92 CA         -1.2092   17.3417   46.0922 C.3       2 GLC5        0.0000 
     93 CA         -1.9840   16.9650   47.8510 C.3       4 GLP5        0.0000 
     94 CA         -3.3575   15.3957   42.4652 C.3       2 GLC5        0.0000 
     95 CA         -2.1460   16.9340   42.3860 C.3       6 GLL5        0.0000 
     96 CA         -3.8950   13.7500   42.9060 C.3       4 GLP5        0.0000 
     97 CA         -4.7742   18.6453   44.6510 C.3       2 GLC5        0.0000 
     98 CA         -5.7780   19.0590   46.0720 C.3       4 GLP5        0.0000 
     99 CA          3.3717   20.8313   41.6818 C.3       2 GLC5        0.0000 
    100 CA          3.2170   19.2840   43.4440 C.3       6 GLL5        0.0000 
    101 CA          2.9770   22.5680   40.4310 C.3       4 GLP5        0.0000 
    102 CA          4.6587   13.2073   36.8743 C.3       2 GLC5        0.0000 
    103 CA          7.7266   11.1314   39.2504 C.3       2 GLC5        0.0000 
    104 CA          8.9920   10.3450   37.8650 C.3       4 GLP5        0.0000 
    105 CA          7.1467   10.7479   44.1671 C.3       2 GLC5        0.0000 
    106 CA          7.3580   12.0150   42.6460 C.3       6 GLL5        0.0000 
    107 CA         11.1435   12.8640   44.4200 C.3       2 GLC5        0.0000 
@<TRIPOS>BOND
@<TRIPOS>SUBSTRUCTURE
     1 SEC2       17 GROUP        1 X    SEC  0     ROOT SEC X 2
     2 GLC5        1 GROUP        1 X    GLC  0     **** GLC X 6
     3 SEP2       19 GROUP        1 Y    SEP  0     ROOT SEP Y 9
     4 GLP5        3 GROUP        1 Y    GLP  0     **** GLP Y 13
     5 SEL2       18 GROUP        1 Z    SEL  0     ROOT SEL Z 16
     6 GLL5        2 GROUP        1 Z    GLL  0     **** GLL Z 20
@<TRIPOS>SET

