#    Name: 2npf_MOU_1_ligand
#    Modification time : Tue Mar 25 21:27:28 2014

@<TRIPOS>MOLECULE
2npf_MOU_1_ligand
  101   106     1     0     0
SMALL
NO_CHARGES


@<TRIPOS>ATOM
      1 C           3.2860   12.1440   39.1470 C.3       1 MOU901      0.0000 
      2 O           3.3150   10.7500   39.2030 O.3       1 MOU901      0.0000 
      3 C1          4.5840   10.3140   39.1910 C.2       1 MOU901      0.0000 
      4 C2          5.5360   11.4650   39.3670 C.3       1 MOU901      0.0000 
      5 O3          4.6270   12.6060   39.2790 O.3       1 MOU901      0.0000 
      6 C4          2.1340   18.2250   43.4770 C.2       1 MOU901      0.0000 
      7 C5          2.1350   16.9520   44.1280 C.2       1 MOU901      0.0000 
      8 C6          0.7290   16.3680   43.7770 C.3       1 MOU901      0.0000 
      9 C7         -0.2920   17.0610   44.7690 C.3       1 MOU901      0.0000 
     10 C8         -0.5770   18.3760   43.8980 C.3       1 MOU901      0.0000 
     11 C9          0.6710   18.2310   42.7570 C.3       1 MOU901      0.0000 
     12 C10         0.5340   16.7960   42.2680 C.3       1 MOU901      0.0000 
     13 C11        -0.4820   19.6350   44.7980 C.2       1 MOU901      0.0000 
     14 O12         0.2660   19.8050   45.7690 O.2       1 MOU901      0.0000 
     15 C13        -0.8840   16.4500   41.5430 C.3       1 MOU901      0.0000 
     16 C14        -1.9280   18.3550   43.0780 C.3       1 MOU901      0.0000 
     17 C15        -2.1460   16.9340   42.3860 C.3       1 MOU901      0.0000 
     18 C16        -3.4940   17.1490   41.6630 C.3       1 MOU901      0.0000 
     19 C17        -4.2700   18.0040   42.6910 C.3       1 MOU901      0.0000 
     20 C18        -3.2710   18.4590   43.7690 C.3       1 MOU901      0.0000 
     21 C19        -3.3930   17.9210   40.3250 C.3       1 MOU901      0.0000 
     22 C20         3.2170   19.2840   43.4440 C.3       1 MOU901      0.0000 
     23 C21         3.8560   19.5220   44.8310 C.3       1 MOU901      0.0000 
     24 C22         4.3160   18.9050   42.4210 C.3       1 MOU901      0.0000 
     25 C23         0.6200   19.4420   41.6770 C.2       1 MOU901      0.0000 
     26 O24         0.7290   20.6260   42.1510 O.co2     1 MOU901      0.0000 
     27 O25         0.4780   19.1530   40.4390 O.co2     1 MOU901      0.0000 
     28 C26         1.4790   16.1890   41.1780 C.3       1 MOU901      0.0000 
     29 O27         1.4940   14.7560   41.2510 O.3       1 MOU901      0.0000 
     30 C28         2.3550   14.2060   40.2100 C.3       1 MOU901      0.0000 
     31 O29         1.9040   14.6180   38.8460 O.3       1 MOU901      0.0000 
     32 C30         2.6940   14.1370   37.7660 C.3       1 MOU901      0.0000 
     33 C31         2.6950   12.6140   37.7930 C.3       1 MOU901      0.0000 
     34 C32         2.3910   12.6780   40.2930 C.3       1 MOU901      0.0000 
     35 O33         1.0630   12.2150   40.1720 O.3       1 MOU901      0.0000 
     36 C34         2.1230   14.6560   36.4680 C.3       1 MOU901      0.0000 
     37 O35         3.5100   12.1230   36.7070 O.3       1 MOU901      0.0000 
     38 C36         2.9430   11.0670   35.9260 C.3       1 MOU901      0.0000 
     39 O37         4.8590    9.1510   39.0250 O.2       1 MOU901      0.0000 
     40 C38         6.1270   11.3740   40.7460 C.3       1 MOU901      0.0000 
     41 C39         7.0910   12.4160   41.2150 C.3       1 MOU901      0.0000 
     42 C40         7.3580   12.0150   42.6460 C.3       1 MOU901      0.0000 
     43 C41         8.2320   12.9240   43.4030 C.3       1 MOU901      0.0000 
     44 C42         8.3440   12.3860   44.8020 C.3       1 MOU901      0.0000 
     45 C43         9.1910   13.3040   45.6570 C.3       1 MOU901      0.0000 
     46 C44        10.2270   12.5820   46.5350 C.3       1 MOU901      0.0000 
     47 C45        11.5840   13.2870   46.7180 C.2       1 MOU901      0.0000 
     48 O46        12.3700   12.6310   47.4600 O.co2     1 MOU901      0.0000 
     49 O47        11.7980   14.4230   46.1370 O.co2     1 MOU901      0.0000 
     50 H           6.2422   11.4642   38.6242 H         1 MOU901      0.0000 
     51 H           2.7286   16.5332   44.6162 H         1 MOU901      0.0000 
     52 H           0.7418   15.3554   43.8787 H         1 MOU901      0.0000 
     53 H           0.1937   17.3326   45.6277 H         1 MOU901      0.0000 
     54 H          -1.1506   16.5069   44.8209 H         1 MOU901      0.0000 
     55 H          -1.1918   20.3777   44.4440 H         1 MOU901      0.0000 
     56 H          -0.9339   15.3789   41.4142 H         1 MOU901      0.0000 
     57 H          -0.8901   16.9427   40.5820 H         1 MOU901      0.0000 
     58 H          -1.8949   19.0466   42.2565 H         1 MOU901      0.0000 
     59 H          -2.3203   16.2464   43.2150 H         1 MOU901      0.0000 
     60 H          -3.9895   16.2345   41.5542 H         1 MOU901      0.0000 
     61 H          -5.0371   17.4055   43.1419 H         1 MOU901      0.0000 
     62 H          -4.6822   18.8625   42.1980 H         1 MOU901      0.0000 
     63 H          -3.4730   19.4659   44.0322 H         1 MOU901      0.0000 
     64 H          -3.3147   17.7921   44.5919 H         1 MOU901      0.0000 
     65 H           2.7802   20.2272   43.1121 H         1 MOU901      0.0000 
     66 H           2.4739   16.6203   41.3437 H         1 MOU901      0.0000 
     67 H           1.1164   16.5482   40.2070 H         1 MOU901      0.0000 
     68 H           3.3805   14.5574   40.3538 H         1 MOU901      0.0000 
     69 H           3.7150   14.4766   37.8542 H         1 MOU901      0.0000 
     70 H           1.6909   12.2655   37.7270 H         1 MOU901      0.0000 
     71 H           2.8390   12.4091   41.2248 H         1 MOU901      0.0000 
     72 H           6.6196   10.3560   40.8523 H         1 MOU901      0.0000 
     73 H           5.2730   11.3135   41.4926 H         1 MOU901      0.0000 
     74 H           6.6391   13.3782   41.1888 H         1 MOU901      0.0000 
     75 H           7.9924   12.3674   40.6530 H         1 MOU901      0.0000 
     76 H           7.7933   10.9864   42.6450 H         1 MOU901      0.0000 
     77 H           6.3764   11.9125   43.1689 H         1 MOU901      0.0000 
     78 H           7.8072   13.9214   43.4362 H         1 MOU901      0.0000 
     79 H           9.2190   12.9645   42.9552 H         1 MOU901      0.0000 
     80 H           8.7996   11.3942   44.7788 H         1 MOU901      0.0000 
     81 H           7.3491   12.2999   45.2432 H         1 MOU901      0.0000 
     82 H           8.5337   13.9023   46.3139 H         1 MOU901      0.0000 
     83 H           9.7243   14.0212   45.0068 H         1 MOU901      0.0000 
     84 H          10.4095   11.5718   46.1088 H         1 MOU901      0.0000 
     85 H           9.7815   12.4094   47.5386 H         1 MOU901      0.0000 
     86 H          -3.0080   18.8352   40.4518 H         1 MOU901      0.0000 
     87 H          -2.8101   17.4464   39.6655 H         1 MOU901      0.0000 
     88 H          -4.2882   18.0371   39.8947 H         1 MOU901      0.0000 
     89 H           4.2755   18.6901   45.1943 H         1 MOU901      0.0000 
     90 H           4.5716   20.2197   44.7955 H         1 MOU901      0.0000 
     91 H           3.1816   19.8278   45.5031 H         1 MOU901      0.0000 
     92 H           5.0396   19.5941   42.3809 H         1 MOU901      0.0000 
     93 H           4.7523   18.0348   42.6499 H         1 MOU901      0.0000 
     94 H           3.9468   18.8135   41.4962 H         1 MOU901      0.0000 
     95 H           2.1195   15.6555   36.4371 H         1 MOU901      0.0000 
     96 H           2.6490   14.3402   35.6783 H         1 MOU901      0.0000 
     97 H           1.1792   14.3552   36.3308 H         1 MOU901      0.0000 
     98 H           3.5593   10.7733   35.1953 H         1 MOU901      0.0000 
     99 H           2.7423   10.2604   36.4820 H         1 MOU901      0.0000 
    100 H           2.0858   11.3448   35.4924 H         1 MOU901      0.0000 
    101 H           1.1352   11.3483   39.6784 H         1 MOU901      0.0000 
@<TRIPOS>BOND
     1    2    1 1    
     2    5    1 1    
     3   33    1 1    
     4   34    1 1    
     5    3    2 1    
     6    4    3 1    
     7   39    3 2    
     8    5    4 1    
     9   40    4 1    
    10   50    4 1    
    11    7    6 2    
    12   11    6 1    
    13   22    6 1    
    14    8    7 1    
    15   51    7 1    
    16    9    8 1    
    17   12    8 1    
    18   52    8 1    
    19   10    9 1    
    20   53    9 1    
    21   54    9 1    
    22   11   10 1    
    23   13   10 1    
    24   16   10 1    
    25   12   11 1    
    26   25   11 1    
    27   15   12 1    
    28   28   12 1    
    29   14   13 2    
    30   55   13 1    
    31   17   15 1    
    32   56   15 1    
    33   57   15 1    
    34   17   16 1    
    35   20   16 1    
    36   58   16 1    
    37   18   17 1    
    38   59   17 1    
    39   19   18 1    
    40   21   18 1    
    41   60   18 1    
    42   20   19 1    
    43   61   19 1    
    44   62   19 1    
    45   63   20 1    
    46   64   20 1    
    47   86   21 1    
    48   87   21 1    
    49   88   21 1    
    50   23   22 1    
    51   24   22 1    
    52   65   22 1    
    53   89   23 1    
    54   90   23 1    
    55   91   23 1    
    56   92   24 1    
    57   93   24 1    
    58   94   24 1    
    59   26   25 ar   
    60   27   25 ar   
    61   29   28 1    
    62   66   28 1    
    63   67   28 1    
    64   30   29 1    
    65   31   30 1    
    66   34   30 1    
    67   68   30 1    
    68   32   31 1    
    69   33   32 1    
    70   36   32 1    
    71   69   32 1    
    72   37   33 1    
    73   70   33 1    
    74   35   34 1    
    75   71   34 1    
    76  101   35 1    
    77   95   36 1    
    78   96   36 1    
    79   97   36 1    
    80   38   37 1    
    81   98   38 1    
    82   99   38 1    
    83  100   38 1    
    84   41   40 1    
    85   72   40 1    
    86   73   40 1    
    87   42   41 1    
    88   74   41 1    
    89   75   41 1    
    90   43   42 1    
    91   76   42 1    
    92   77   42 1    
    93   44   43 1    
    94   78   43 1    
    95   79   43 1    
    96   45   44 1    
    97   80   44 1    
    98   81   44 1    
    99   46   45 1    
   100   82   45 1    
   101   83   45 1    
   102   47   46 1    
   103   84   46 1    
   104   85   46 1    
   105   48   47 ar   
   106   49   47 ar   
@<TRIPOS>SUBSTRUCTURE
     1 MOU901      1 GROUP   
@<TRIPOS>SET

