#    Name: 1yvf_PH7_1_INTS_M
#    Modification time : Mon Apr  7 15:54:44 2014

@<TRIPOS>MOLECULE
1yvf_PH7_1_INTS_M
   64     0     6     0     0
SMALL
NO_CHARGES


@<TRIPOS>ATOM
      1 CA         -9.9380   56.0815   45.2090 C.3       2 GLC5        0.0000 
      2 CA         -9.7390   55.1170   46.8920 C.3       6 GLL5        0.0000 
      3 CA        -10.1370   57.0460   43.5260 C.3       4 GLP5        0.0000 
      4 CA         -9.5345   57.0240   46.7785 C.3       2 GLC5        0.0000 
      5 CA         -9.3300   58.9310   46.6650 C.3       4 GLP5        0.0000 
      6 CA         -7.5970   56.4505   46.9430 C.3       2 GLC5        0.0000 
      7 CA         -8.6220   54.7640   47.5790 C.3       6 GLL5        0.0000 
      8 CA         -6.5720   58.1370   46.3070 C.3       4 GLP5        0.0000 
      9 N          -7.1680   57.6590   48.5295 N.am      1 SEC2        0.0000 
     10 N          -8.0570   56.9560   49.3420 N.am      5 SEL2        0.0000 
     11 N          -6.2790   58.3620   47.7170 N.am      3 SEP2        0.0000 
     12 CA        -15.4425   57.7245   48.1945 C.3       2 GLC5        0.0000 
     13 CA        -13.4320   56.7680   48.3780 C.3       6 GLL5        0.0000 
     14 CA        -17.4530   58.6810   48.0110 C.3       4 GLP5        0.0000 
     15 CA        -14.6180   55.1845   48.0740 C.3       2 GLC5        0.0000 
     16 CA        -15.8040   53.6010   47.7700 C.3       4 GLP5        0.0000 
     17 CA        -11.4540   57.8930   50.6410 C.3       2 GLC5        0.0000 
     18 CA        -12.3060   56.6130   49.1890 C.3       6 GLL5        0.0000 
     19 CA        -10.6020   59.1730   52.0930 C.3       4 GLP5        0.0000 
     20 CA        -14.1585   60.8965   52.4200 C.3       2 GLC5        0.0000 
     21 CA        -14.8090   59.1780   52.0930 C.3       6 GLL5        0.0000 
     22 CA        -13.5080   62.6150   52.7470 C.3       4 GLP5        0.0000 
     23 CA        -17.0185   57.7740   51.4670 C.3       2 GLC5        0.0000 
     24 CA        -15.3480   56.5970   51.1260 C.3       6 GLL5        0.0000 
     25 CA        -18.6890   58.9510   51.8080 C.3       4 GLP5        0.0000 
     26 CA         -6.1960   57.8335   50.8365 C.3       2 GLC5        0.0000 
     27 CA         -7.2720   56.3900   52.0390 C.3       6 GLL5        0.0000 
     28 CA         -5.1200   59.2770   49.6340 C.3       4 GLP5        0.0000 
     29 CA         -6.3155   57.1390   54.9710 C.3       2 GLC5        0.0000 
     30 CA         -7.3110   56.2440   53.4370 C.3       6 GLL5        0.0000 
     31 CA         -5.3200   58.0340   56.5050 C.3       4 GLP5        0.0000 
     32 CA         -8.2450   55.8450   56.0580 C.3       2 GLC5        0.0000 
     33 CA         -8.1280   55.2410   54.0210 C.3       6 GLL5        0.0000 
     34 CA         -8.3620   56.4490   58.0950 C.3       4 GLP5        0.0000 
     35 N         -14.7240   58.1480   47.3635 N.am      1 SEC2        0.0000 
     36 N         -14.6120   57.2860   48.8730 N.am      5 SEL2        0.0000 
     37 N         -14.8360   59.0100   45.8540 N.am      3 SEP2        0.0000 
     38 CA        -15.7740   59.4455   48.7635 C.3       2 GLC5        0.0000 
     39 CA        -14.0950   60.2100   49.5160 C.3       6 GLL5        0.0000 
     40 CA        -12.3485   59.6915   50.8045 C.3       2 GLC5        0.0000 
     41 CA        -12.6380   60.3200   47.9435 C.3       2 GLC5        0.0000 
     42 CA        -11.1810   60.4300   46.3710 C.3       4 GLP5        0.0000 
     43 CA        -13.3753   55.5498   44.8100 C.3       2 GLC5        0.0000 
     44 CA        -13.3460   56.3600   47.0400 C.3       6 GLL5        0.0000 
     45 CA        -13.9940   55.0480   42.8280 C.3       4 GLP5        0.0000 
     46 CA        -14.0972   55.0487   46.4060 C.3       2 GLC5        0.0000 
     47 CA        -12.1670   55.7430   46.5440 C.3       6 GLL5        0.0000 
     48 CA        -15.4380   54.0460   46.0200 C.3       4 GLP5        0.0000 
     49 CA        -14.9665   61.2375   50.9273 C.3       2 GLC5        0.0000 
     50 CA        -14.5710   58.8680   50.7250 C.3       6 GLL5        0.0000 
     51 CA        -15.6000   62.9360   51.7340 C.3       4 GLP5        0.0000 
     52 CA        -12.6460   59.0980   51.7510 C.3       2 GLC5        0.0000 
     53 CA        -16.7196   58.8246   51.5473 C.3       2 GLC5        0.0000 
     54 CA        -17.0842   57.8432   53.4390 C.3       2 GLC5        0.0000 
     55 CA        -15.3330   58.1950   52.9560 C.3       6 GLL5        0.0000 
     56 CA        -18.6920   58.1380   54.1640 C.3       4 GLP5        0.0000 
     57 CA        -16.5930   55.2212   52.3345 C.3       2 GLC5        0.0000 
     58 CA        -15.6200   56.9020   52.4720 C.3       6 GLL5        0.0000 
     59 CA        -17.7020   53.6930   52.8700 C.3       4 GLP5        0.0000 
     60 CA        -16.2364   58.0444   49.4070 C.3       2 GLC5        0.0000 
     61 CA         -8.7300   57.2380   52.5990 C.3       2 GLC5        0.0000 
     62 CA         -8.0460   55.5360   51.2270 C.3       6 GLL5        0.0000 
     63 CA         -9.8010   58.5130   53.5650 C.3       4 GLP5        0.0000 
     64 CA         -9.0454   56.7781   53.5168 C.3       2 GLC5        0.0000 
@<TRIPOS>BOND
@<TRIPOS>SUBSTRUCTURE
     1 SEC2        9 GROUP        1 X    SEC  0     ROOT SEC X 2
     2 GLC5        1 GROUP        1 X    GLC  0     **** GLC X 6
     3 SEP2       11 GROUP        1 Y    SEP  0     ROOT SEP Y 9
     4 GLP5        3 GROUP        1 Y    GLP  0     **** GLP Y 13
     5 SEL2       10 GROUP        1 Z    SEL  0     ROOT SEL Z 16
     6 GLL5        2 GROUP        1 Z    GLL  0     **** GLL Z 20
@<TRIPOS>SET

