#    Name: 1yvf_PH7_1_ligand
#    Modification time : Mon Apr  7 15:54:44 2014

@<TRIPOS>MOLECULE
1yvf_PH7_1_ligand
   43    45     1     0     0
SMALL
NO_CHARGES


@<TRIPOS>ATOM
      1 C1         -9.7390   55.1170   46.8920 C.2       1 PH7800      0.0000 
      2 C2         -8.6220   54.7640   47.5790 C.2       1 PH7800      0.0000 
      3 N          -8.4650   54.7280   49.0400 N.am      1 PH7800      0.0000 
      4 C          -8.1780   55.8220   49.8020 C.2       1 PH7800      0.0000 
      5 O          -8.0570   56.9560   49.3420 O.2       1 PH7800      0.0000 
      6 CB2       -11.0380   55.6110   47.3820 C.ar      1 PH7800      0.0000 
      7 CB3       -12.1670   55.7430   46.5440 C.ar      1 PH7800      0.0000 
      8 CB6       -13.4320   56.7680   48.3780 C.ar      1 PH7800      0.0000 
      9 CB1       -11.1450   56.0490   48.6910 C.ar      1 PH7800      0.0000 
     10 CB5       -12.3060   56.6130   49.1890 C.ar      1 PH7800      0.0000 
     11 CA1       -14.8120   57.5690   50.2350 C.ar      1 PH7800      0.0000 
     12 CA2       -14.5710   58.8680   50.7250 C.ar      1 PH7800      0.0000 
     13 CA3       -14.8090   59.1780   52.0930 C.ar      1 PH7800      0.0000 
     14 CA4       -15.3330   58.1950   52.9560 C.ar      1 PH7800      0.0000 
     15 CA5       -15.6200   56.9020   52.4720 C.ar      1 PH7800      0.0000 
     16 CA6       -15.3480   56.5970   51.1260 C.ar      1 PH7800      0.0000 
     17 CD2        -7.4500   54.2820   46.7960 C.2       1 PH7800      0.0000 
     18 OC1        -7.4970   54.3880   45.5530 O.co2     1 PH7800      0.0000 
     19 OC2        -6.4910   53.7290   47.3780 O.co2     1 PH7800      0.0000 
     20 CC1        -8.0460   55.5360   51.2270 C.ar      1 PH7800      0.0000 
     21 CC2        -7.2720   56.3900   52.0390 C.ar      1 PH7800      0.0000 
     22 CC3        -7.3110   56.2440   53.4370 C.ar      1 PH7800      0.0000 
     23 CC4        -8.1280   55.2410   54.0210 C.ar      1 PH7800      0.0000 
     24 CC5        -8.8600   54.3440   53.2080 C.ar      1 PH7800      0.0000 
     25 CC6        -8.8010   54.4780   51.8090 C.ar      1 PH7800      0.0000 
     26 CB4       -13.3460   56.3600   47.0400 C.ar      1 PH7800      0.0000 
     27 OAB       -14.6120   57.2860   48.8730 O.3       1 PH7800      0.0000 
     28 BRA2      -14.0950   60.2100   49.5160 Br        1 PH7800      0.0000 
     29 H          -9.7097   55.0359   45.8008 H         1 PH7800      0.0000 
     30 H          -8.5892   53.7852   49.4826 H         1 PH7800      0.0000 
     31 H         -12.1393   55.3979   45.5863 H         1 PH7800      0.0000 
     32 H         -10.3187   55.9498   49.3255 H         1 PH7800      0.0000 
     33 H         -12.3460   56.9257   50.1743 H         1 PH7800      0.0000 
     34 H         -14.5987   60.1122   52.4427 H         1 PH7800      0.0000 
     35 H         -15.5065   58.4204   53.9401 H         1 PH7800      0.0000 
     36 H         -16.0187   56.1997   53.0897 H         1 PH7800      0.0000 
     37 H         -15.5391   55.6482   50.7693 H         1 PH7800      0.0000 
     38 H          -6.6876   57.1092   51.6132 H         1 PH7800      0.0000 
     39 H          -6.7552   56.8551   54.0356 H         1 PH7800      0.0000 
     40 H          -8.1868   55.1676   55.0406 H         1 PH7800      0.0000 
     41 H          -9.4217   53.6114   53.6339 H         1 PH7800      0.0000 
     42 H          -9.2959   53.8219   51.2052 H         1 PH7800      0.0000 
     43 H         -14.1396   56.5052   46.4050 H         1 PH7800      0.0000 
@<TRIPOS>BOND
     1    2    1 2    
     2    6    1 1    
     3   29    1 1    
     4    3    2 1    
     5   17    2 1    
     6    4    3 am   
     7   30    3 1    
     8    5    4 2    
     9   20    4 1    
    10    7    6 ar   
    11    9    6 ar   
    12   26    7 ar   
    13   31    7 1    
    14   10    8 ar   
    15   26    8 ar   
    16   27    8 1    
    17   10    9 ar   
    18   32    9 1    
    19   33   10 1    
    20   12   11 ar   
    21   16   11 ar   
    22   27   11 1    
    23   13   12 ar   
    24   28   12 1    
    25   14   13 ar   
    26   34   13 1    
    27   15   14 ar   
    28   35   14 1    
    29   16   15 ar   
    30   36   15 1    
    31   37   16 1    
    32   18   17 ar   
    33   19   17 ar   
    34   21   20 ar   
    35   25   20 ar   
    36   22   21 ar   
    37   38   21 1    
    38   23   22 ar   
    39   39   22 1    
    40   24   23 ar   
    41   40   23 1    
    42   25   24 ar   
    43   41   24 1    
    44   42   25 1    
    45   43   26 1    
@<TRIPOS>SUBSTRUCTURE
     1 PH7800      1 GROUP   
@<TRIPOS>SET

