#    Name: 2xkf_BX1_1_INTS_M
#    Modification time : Tue Mar 25 06:15:00 2014

@<TRIPOS>MOLECULE
2xkf_BX1_1_INTS_M
   79     0    12     0     0
SMALL
NO_CHARGES


@<TRIPOS>ATOM
      1 CA        -24.2200   16.2665  -19.8375 C.3       4 GLC5        0.0000 
      2 CA        -26.1830   16.5240  -19.0830 C.3      12 GLL5        0.0000 
      3 CA        -22.2570   16.0090  -20.5920 C.3       8 GLP5        0.0000 
      4 CA        -24.4450   17.7635  -18.7625 C.3       4 GLC5        0.0000 
      5 CA        -22.7070   19.0030  -18.4420 C.3       8 GLP5        0.0000 
      6 CA        -26.8960   24.6115  -19.8730 C.3       4 GLC5        0.0000 
      7 CA        -25.7730   22.8880  -20.7690 C.3      12 GLL5        0.0000 
      8 CA        -28.0190   26.3350  -18.9770 C.3       8 GLP5        0.0000 
      9 CA        -24.0755   23.4445  -21.5255 C.3       4 GLC5        0.0000 
     10 CA        -22.3780   24.0010  -22.2820 C.3       8 GLP5        0.0000 
     11 N         -24.6845   24.8175  -21.1445 N.am      2 SEC2        0.0000 
     12 N         -25.1790   23.9730  -20.1040 N.am     10 SEL2        0.0000 
     13 N         -24.1900   25.6620  -22.1850 N.am      6 SEP2        0.0000 
     14 CA        -25.8690   25.0510  -17.7410 C.3       4 GLC5        0.0000 
     15 CA        -24.7200   23.8280  -18.7830 C.3      12 GLL5        0.0000 
     16 CA        -27.0180   26.2740  -16.6990 C.3       8 GLP5        0.0000 
     17 CA        -23.5490   23.9145  -20.5325 C.3       4 GLC5        0.0000 
     18 O         -24.1200   26.2610  -18.4695 O.2       1 ALC1        0.0000 
     19 O         -24.1040   24.9120  -18.1100 O.2       9 ALL1        0.0000 
     20 O         -24.1360   27.6100  -18.8290 O.2       5 ALP1        0.0000 
     21 NZ        -23.3955   21.2625  -11.0965 N.4       3 LYC4        0.0000 
     22 NZ        -22.9460   20.6290  -12.2640 N.4      11 LYL4        0.0000 
     23 NZ        -23.8450   21.8960   -9.9290 N.4       7 LYP4        0.0000 
     24 N         -23.3955   21.2625  -11.0965 N.am      2 SEC2        0.0000 
     25 N         -22.9460   20.6290  -12.2640 N.am     10 SEL2        0.0000 
     26 N         -23.8450   21.8960   -9.9290 N.am      6 SEP2        0.0000 
     27 NZ        -22.9880   22.3035  -11.0595 N.4       3 LYC4        0.0000 
     28 NZ        -22.1310   22.7110  -12.1900 N.4      11 LYL4        0.0000 
     29 N         -20.8470   23.4830  -12.5370 N.am      2 SEC2        0.0000 
     30 N         -22.1310   22.7110  -12.1900 N.am     10 SEL2        0.0000 
     31 N         -19.5630   24.2550  -12.8840 N.am      6 SEP2        0.0000 
     32 N         -20.6670   21.9155  -12.5175 N.am      2 SEC2        0.0000 
     33 N         -19.2030   21.1200  -12.8450 N.am      6 SEP2        0.0000 
     34 CA        -21.5405   20.8925  -16.2060 C.3       4 GLC5        0.0000 
     35 CA        -22.3340   22.3120  -15.2580 C.3      12 GLL5        0.0000 
     36 CA        -20.7470   19.4730  -17.1540 C.3       8 GLP5        0.0000 
     37 CA        -20.1750   21.9490  -15.0770 C.3       4 GLC5        0.0000 
     38 CA        -18.0160   21.5860  -14.8960 C.3       8 GLP5        0.0000 
     39 CA        -22.4515   20.5470  -16.9765 C.3       4 GLC5        0.0000 
     40 CA        -22.9020   22.1940  -16.6950 C.3      12 GLL5        0.0000 
     41 CA        -22.0010   18.9000  -17.2580 C.3       8 GLP5        0.0000 
     42 CA        -28.3930   22.9220  -24.5230 C.3       4 GLC5        0.0000 
     43 CA        -28.3930   20.7590  -24.5680 C.3      12 GLL5        0.0000 
     44 CA        -28.3930   25.0850  -24.4780 C.3       8 GLP5        0.0000 
     45 CA        -26.9790   22.3250  -25.2910 C.3       4 GLC5        0.0000 
     46 CA        -25.5650   23.8910  -26.0140 C.3       8 GLP5        0.0000 
     47 CA        -25.8485   17.4375  -23.4155 C.3       4 GLC5        0.0000 
     48 CA        -27.3450   16.0110  -23.0470 C.3      12 GLL5        0.0000 
     49 CA        -24.3520   18.8640  -23.7840 C.3       8 GLP5        0.0000 
     50 CA        -26.1435   14.3930  -23.6455 C.3       4 GLC5        0.0000 
     51 CA        -24.9420   12.7750  -24.2440 C.3       8 GLP5        0.0000 
     52 CA        -28.4045   19.1992  -19.9195 C.3       4 GLC5        0.0000 
     53 CA        -27.1060   18.0280  -20.7090 C.3      12 GLL5        0.0000 
     54 CA        -29.9950   19.7720  -19.4570 C.3       8 GLP5        0.0000 
     55 CA        -25.5830   18.7452  -22.0830 C.3       4 GLC5        0.0000 
     56 CA        -26.5220   19.2250  -20.0550 C.3      12 GLL5        0.0000 
     57 CA        -28.3878   20.1665  -20.4405 C.3       4 GLC5        0.0000 
     58 CA        -27.0600   20.6200  -22.0960 C.3      12 GLL5        0.0000 
     59 CA        -25.5663   19.7125  -22.6040 C.3       4 GLC5        0.0000 
     60 CA        -26.5010   20.5020  -20.7520 C.3      12 GLL5        0.0000 
     61 CA        -27.9225   22.5912  -19.9765 C.3       4 GLC5        0.0000 
     62 CA        -25.9090   21.6290  -20.0950 C.3      12 GLL5        0.0000 
     63 CA        -30.0040   22.9240  -19.5210 C.3       8 GLP5        0.0000 
     64 CA        -26.4425   21.4145  -14.6000 C.3       4 GLC5        0.0000 
     65 CA        -25.1390   21.4770  -15.9620 C.3      12 GLL5        0.0000 
     66 CA        -28.0960   21.5930  -13.8740 C.3       8 GLP5        0.0000 
     67 CA        -24.5332   21.8637  -12.4558 C.3       4 GLC5        0.0000 
     68 CA        -24.4390   20.9950  -14.6900 C.3      12 GLL5        0.0000 
     69 CA        -25.1800   22.2820  -10.4720 C.3       8 GLP5        0.0000 
     70 CA        -23.0312   20.2330  -16.0078 C.3       4 GLC5        0.0000 
     71 CA        -23.3340   21.8960  -14.1890 C.3      12 GLL5        0.0000 
     72 CA        -20.8760   23.2165  -16.6268 C.3       4 GLC5        0.0000 
     73 CA        -19.1340   24.1800  -17.2770 C.3       8 GLP5        0.0000 
     74 CA        -23.4615   23.9630  -15.0081 C.3       4 GLC5        0.0000 
     75 CA        -24.0550   25.7770  -14.3070 C.3       8 GLP5        0.0000 
     76 CA        -28.8225   19.2775  -20.9233 C.3       4 GLC5        0.0000 
     77 CA        -27.6410   19.4280  -22.7410 C.3      12 GLL5        0.0000 
     78 CA        -26.0010   18.8235  -23.0868 C.3       4 GLC5        0.0000 
     79 CA        -27.6590   18.1380  -22.0380 C.3      12 GLL5        0.0000 
@<TRIPOS>BOND
@<TRIPOS>SUBSTRUCTURE
     1 ALC1       18 GROUP        1 X    ALC  0     ROOT ALC X 1
     2 SEC2       11 GROUP        1 X    SEC  0     **** SEC X 2
     3 LYC4       21 GROUP        1 X    LYC  0     **** LYC X 4
     4 GLC5        1 GROUP        1 X    GLC  0     **** GLC X 6
     5 ALP1       20 GROUP        1 Y    ALP  0     ROOT ALP Y 8
     6 SEP2       13 GROUP        1 Y    SEP  0     **** SEP Y 9
     7 LYP4       23 GROUP        1 Y    LYP  0     **** LYP Y 11
     8 GLP5        3 GROUP        1 Y    GLP  0     **** GLP Y 13
     9 ALL1       19 GROUP        1 Z    ALL  0     ROOT ALL Z 15
    10 SEL2       12 GROUP        1 Z    SEL  0     **** SEL Z 16
    11 LYL4       22 GROUP        1 Z    LYL  0     **** LYL Z 18
    12 GLL5        2 GROUP        1 Z    GLL  0     **** GLL Z 20
@<TRIPOS>SET

