#    Name: 2xkf_BX1_1_ligand
#    Modification time : Tue Mar 25 06:15:00 2014

@<TRIPOS>MOLECULE
2xkf_BX1_1_ligand
   51    53     1     0     0
SMALL
NO_CHARGES


@<TRIPOS>ATOM
      1 C01       -26.1830   16.5240  -19.0830 C.3       1 BX11280     0.0000 
      2 O02       -27.1310   16.8110  -20.0470 O.3       1 BX11280     0.0000 
      3 C03       -27.1060   18.0280  -20.7090 C.ar      1 BX11280     0.0000 
      4 C04       -26.5220   19.2250  -20.0550 C.ar      1 BX11280     0.0000 
      5 C05       -26.5010   20.5020  -20.7520 C.ar      1 BX11280     0.0000 
      6 C06       -25.9090   21.6290  -20.0950 C.ar      1 BX11280     0.0000 
      7 C07       -25.7730   22.8880  -20.7690 C.ar      1 BX11280     0.0000 
      8 N08       -25.1790   23.9730  -20.1040 N.ar      1 BX11280     0.0000 
      9 C09       -24.7200   23.8280  -18.7830 C.ar      1 BX11280     0.0000 
     10 N10       -24.1040   24.9120  -18.1100 N.pl3     1 BX11280     0.0000 
     11 C11       -24.8480   22.5650  -18.1180 C.ar      1 BX11280     0.0000 
     12 N12       -24.3480   22.4240  -16.7570 N.3       1 BX11280     0.0000 
     13 C13       -25.1390   21.4770  -15.9620 C.3       1 BX11280     0.0000 
     14 C14       -24.4390   20.9950  -14.6900 C.3       1 BX11280     0.0000 
     15 C15       -23.3340   21.8960  -14.1890 C.3       1 BX11280     0.0000 
     16 C16       -22.8700   21.7250  -12.7900 C.2       1 BX11280     0.0000 
     17 O17       -22.9460   20.6290  -12.2640 O.co2     1 BX11280     0.0000 
     18 O18       -22.1310   22.7110  -12.1900 O.co2     1 BX11280     0.0000 
     19 C19       -22.3340   22.3120  -15.2580 C.3       1 BX11280     0.0000 
     20 C20       -22.9020   22.1940  -16.6950 C.3       1 BX11280     0.0000 
     21 N21       -25.4320   21.4790  -18.7720 N.ar      1 BX11280     0.0000 
     22 C22       -27.0600   20.6200  -22.0960 C.ar      1 BX11280     0.0000 
     23 C23       -27.6410   19.4280  -22.7410 C.ar      1 BX11280     0.0000 
     24 O24       -28.1730   19.5180  -24.0120 O.3       1 BX11280     0.0000 
     25 C25       -28.3930   20.7590  -24.5680 C.3       1 BX11280     0.0000 
     26 C26       -27.6590   18.1380  -22.0380 C.ar      1 BX11280     0.0000 
     27 O27       -28.1950   17.0170  -22.6330 O.3       1 BX11280     0.0000 
     28 C28       -27.3450   16.0110  -23.0470 C.3       1 BX11280     0.0000 
     29 H         -26.1438   19.1407  -19.1295 H         1 BX11280     0.0000 
     30 H         -26.1094   22.9808  -21.7239 H         1 BX11280     0.0000 
     31 H         -24.3904   25.8267  -18.3948 H         1 BX11280     0.0000 
     32 H         -23.4349   24.6705  -17.4071 H         1 BX11280     0.0000 
     33 H         -25.3956   20.5846  -16.5687 H         1 BX11280     0.0000 
     34 H         -26.1053   21.9346  -15.6666 H         1 BX11280     0.0000 
     35 H         -24.0275   19.9829  -14.8774 H         1 BX11280     0.0000 
     36 H         -25.2008   20.8749  -13.8937 H         1 BX11280     0.0000 
     37 H         -23.9805   22.9692  -14.0928 H         1 BX11280     0.0000 
     38 H         -21.4386   21.6836  -15.1867 H         1 BX11280     0.0000 
     39 H         -22.0293   23.3515  -15.0902 H         1 BX11280     0.0000 
     40 H         -22.3617   22.9191  -17.3260 H         1 BX11280     0.0000 
     41 H         -22.6479   21.1891  -17.0708 H         1 BX11280     0.0000 
     42 H         -27.0519   21.4931  -22.5770 H         1 BX11280     0.0000 
     43 H         -25.2554   16.5472  -19.4558 H         1 BX11280     0.0000 
     44 H         -26.2117   17.1785  -18.3275 H         1 BX11280     0.0000 
     45 H         -26.3178   15.6150  -18.6886 H         1 BX11280     0.0000 
     46 H         -27.5476   21.2879  -24.6421 H         1 BX11280     0.0000 
     47 H         -28.7776   20.6906  -25.4886 H         1 BX11280     0.0000 
     48 H         -29.0318   21.3022  -24.0231 H         1 BX11280     0.0000 
     49 H         -26.6853   16.3373  -23.7240 H         1 BX11280     0.0000 
     50 H         -26.8199   15.6315  -22.2853 H         1 BX11280     0.0000 
     51 H         -27.8438   15.2522  -23.4659 H         1 BX11280     0.0000 
@<TRIPOS>BOND
     1    2    1 1    
     2   43    1 1    
     3   44    1 1    
     4   45    1 1    
     5    3    2 1    
     6    4    3 ar   
     7   26    3 ar   
     8    5    4 ar   
     9   29    4 1    
    10    6    5 1    
    11   22    5 ar   
    12    7    6 ar   
    13   21    6 ar   
    14    8    7 ar   
    15   30    7 1    
    16    9    8 ar   
    17   10    9 1    
    18   11    9 ar   
    19   31   10 1    
    20   32   10 1    
    21   12   11 1    
    22   21   11 ar   
    23   13   12 1    
    24   20   12 1    
    25   14   13 1    
    26   33   13 1    
    27   34   13 1    
    28   15   14 1    
    29   35   14 1    
    30   36   14 1    
    31   16   15 1    
    32   19   15 1    
    33   37   15 1    
    34   17   16 ar   
    35   18   16 ar   
    36   20   19 1    
    37   38   19 1    
    38   39   19 1    
    39   40   20 1    
    40   41   20 1    
    41   23   22 ar   
    42   42   22 1    
    43   24   23 1    
    44   26   23 ar   
    45   25   24 1    
    46   46   25 1    
    47   47   25 1    
    48   48   25 1    
    49   27   26 1    
    50   28   27 1    
    51   49   28 1    
    52   50   28 1    
    53   51   28 1    
@<TRIPOS>SUBSTRUCTURE
     1 BX11280     1 GROUP   
@<TRIPOS>SET

