#    Name: 3qel_QEL_1_INTS_M
#    Modification time : Mon Apr  7 19:24:07 2014

@<TRIPOS>MOLECULE
3qel_QEL_1_INTS_M
   71     0     6     0     0
SMALL
NO_CHARGES


@<TRIPOS>ATOM
      1 O          84.9655    7.1480  -31.1170 O.2       1 ALC1        0.0000 
      2 O          86.1030    6.6010  -31.8820 O.2       5 ALL1        0.0000 
      3 O          83.8280    7.6950  -30.3520 O.2       3 ALP1        0.0000 
      4 O          84.8265    8.5625  -31.1825 O.2       1 ALC1        0.0000 
      5 O          85.8250    9.4300  -32.0130 O.2       5 ALL1        0.0000 
      6 O          92.5815   11.9410  -30.6545 O.2       1 ALC1        0.0000 
      7 O          91.8370   11.8350  -31.6200 O.2       5 ALL1        0.0000 
      8 O          93.3260   12.0470  -29.6890 O.2       3 ALP1        0.0000 
      9 CA         90.4685   13.0435  -33.9900 C.3       2 GLC5        0.0000 
     10 CA         89.8100   11.3520  -32.6850 C.3       6 GLL5        0.0000 
     11 CA         91.1270   14.7350  -35.2950 C.3       4 GLP5        0.0000 
     12 CA         81.1965    5.1675  -30.2865 C.3       2 GLC5        0.0000 
     13 CA         81.0490    3.2530  -31.3780 C.3       6 GLL5        0.0000 
     14 CA         81.3440    7.0820  -29.1950 C.3       4 GLP5        0.0000 
     15 CA         78.3390    3.0475  -31.8090 C.3       2 GLC5        0.0000 
     16 CA         80.1200    2.3640  -31.9320 C.3       6 GLL5        0.0000 
     17 CA         76.5580    3.7310  -31.6860 C.3       4 GLP5        0.0000 
     18 CA         84.7040    2.5530  -29.4255 C.3       2 GLC5        0.0000 
     19 CA         83.2980    3.7680  -30.4370 C.3       6 GLL5        0.0000 
     20 CA         86.1100    1.3380  -28.4140 C.3       4 GLP5        0.0000 
     21 CA         82.3210    5.4250  -29.8160 C.3       2 GLC5        0.0000 
     22 CA         85.7395    2.5435  -31.0000 C.3       2 GLC5        0.0000 
     23 CA         84.5530    4.2650  -31.2710 C.3       6 GLL5        0.0000 
     24 CA         86.9260    0.8220  -30.7290 C.3       4 GLP5        0.0000 
     25 CA         83.1875    3.9785  -33.6470 C.3       2 GLC5        0.0000 
     26 CA         84.1340    5.1320  -32.3440 C.3       6 GLL5        0.0000 
     27 CA         82.2410    2.8250  -34.9500 C.3       4 GLP5        0.0000 
     28 CA         82.1190   -0.7900  -30.4550 C.3       2 GLC5        0.0000 
     29 CA         81.7840    0.5860  -31.8850 C.3       6 GLL5        0.0000 
     30 CA         82.4540   -2.1660  -29.0250 C.3       4 GLP5        0.0000 
     31 CA         84.8170    1.1490  -31.0245 C.3       2 GLC5        0.0000 
     32 CA         82.7080    1.4760  -31.3200 C.3       6 GLL5        0.0000 
     33 CA         83.2845   -0.0820  -30.1145 C.3       2 GLC5        0.0000 
     34 CA         83.8610   -1.6400  -28.9090 C.3       4 GLP5        0.0000 
     35 CA         83.7705    5.5350  -34.4755 C.3       2 GLC5        0.0000 
     36 CA         85.2520    5.9610  -32.9120 C.3       6 GLL5        0.0000 
     37 CA         82.2890    5.1090  -36.0390 C.3       4 GLP5        0.0000 
     38 CA         87.2375    3.7660  -31.0235 C.3       2 GLC5        0.0000 
     39 CA         86.4740    5.7800  -30.7630 C.3       6 GLL5        0.0000 
     40 CA         88.0010    1.7520  -31.2840 C.3       4 GLP5        0.0000 
     41 CA         85.7330    3.1475  -29.3275 C.3       2 GLC5        0.0000 
     42 CA         85.3560    4.9570  -30.2410 C.3       6 GLL5        0.0000 
     43 CA         85.4430    4.8305  -28.3385 C.3       2 GLC5        0.0000 
     44 CA         85.5300    4.7040  -26.4360 C.3       4 GLP5        0.0000 
     45 CA         87.9415   11.7395  -34.4670 C.3       2 GLC5        0.0000 
     46 CA         88.5940   10.6190  -32.7980 C.3       6 GLL5        0.0000 
     47 CA         87.2890   12.8600  -36.1360 C.3       4 GLP5        0.0000 
     48 CA         81.2752    2.2590  -33.5050 C.3       2 GLC5        0.0000 
     49 CA         90.2398    8.7820  -32.2172 C.3       2 GLC5        0.0000 
     50 CA         89.1030    9.3780  -30.8670 C.3       6 GLL5        0.0000 
     51 CA         90.7670    7.8240  -33.6280 C.3       4 GLP5        0.0000 
     52 CA         90.4952    9.5230  -32.9068 C.3       2 GLC5        0.0000 
     53 CA         90.6370   11.0920  -31.6860 C.3       6 GLL5        0.0000 
     54 CA         89.4922   12.8305  -31.6788 C.3       2 GLC5        0.0000 
     55 CA         88.7610   14.4390  -31.1720 C.3       4 GLP5        0.0000 
     56 CA         88.3370   12.3978  -32.0585 C.3       2 GLC5        0.0000 
     57 CA         81.9670    2.9305  -33.0895 C.3       2 GLC5        0.0000 
     58 CA         82.3370    2.8190  -31.0800 C.3       6 GLL5        0.0000 
     59 CA         79.9163    3.0593  -29.7995 C.3       2 GLC5        0.0000 
     60 CA         79.2480    3.3100  -27.9440 C.3       4 GLP5        0.0000 
     61 CA         82.2435    1.9280  -33.2763 C.3       2 GLC5        0.0000 
     62 CA         83.3250    0.0875  -32.8353 C.3       2 GLC5        0.0000 
     63 CA         84.4040   -0.8560  -34.0680 C.3       4 GLP5        0.0000 
     64 CA         82.0339    2.1794  -29.2906 C.3       2 GLC5        0.0000 
     65 CA         81.3050    1.9740  -27.5420 C.3       4 GLP5        0.0000 
     66 CA         89.5960    8.9820  -32.9815 C.3       2 GLC5        0.0000 
     67 CA         87.1396   11.5664  -31.9846 C.3       2 GLC5        0.0000 
     68 CA         88.2560    9.6610  -31.8720 C.3       6 GLL5        0.0000 
     69 CA         86.1830   13.1810  -31.5790 C.3       4 GLP5        0.0000 
     70 CA         88.8834    7.8420  -33.3876 C.3       2 GLC5        0.0000 
     71 CA         87.0920    7.4840  -32.5220 C.3       6 GLL5        0.0000 
@<TRIPOS>BOND
@<TRIPOS>SUBSTRUCTURE
     1 ALC1        1 GROUP        1 X    ALC  0     ROOT ALC X 1
     2 GLC5        9 GROUP        1 X    GLC  0     **** GLC X 6
     3 ALP1        3 GROUP        1 Y    ALP  0     ROOT ALP Y 8
     4 GLP5       11 GROUP        1 Y    GLP  0     **** GLP Y 13
     5 ALL1        2 GROUP        1 Z    ALL  0     ROOT ALL Z 15
     6 GLL5       10 GROUP        1 Z    GLL  0     **** GLL Z 20
@<TRIPOS>SET

