#    Name: 3qel_QEL_1_ligand
#    Modification time : Mon Apr  7 19:24:07 2014

@<TRIPOS>MOLECULE
3qel_QEL_1_ligand
   52    54     1     0     0
SMALL
NO_CHARGES


@<TRIPOS>ATOM
      1 C1         80.4990    1.0220  -32.1880 C.ar      1 QEL1        0.0000 
      2 N1         86.1030    6.6010  -31.8820 N.4       1 QEL1        0.0000 
      3 O1         85.8250    9.4300  -32.0130 O.3       1 QEL1        0.0000 
      4 C2         90.3220   10.1020  -30.7460 C.ar      1 QEL1        0.0000 
      5 O2         91.8370   11.8350  -31.6200 O.3       1 QEL1        0.0000 
      6 C3         89.8100   11.3520  -32.6850 C.ar      1 QEL1        0.0000 
      7 C4         82.3370    2.8190  -31.0800 C.ar      1 QEL1        0.0000 
      8 C5         81.0490    3.2530  -31.3780 C.ar      1 QEL1        0.0000 
      9 C6         80.1200    2.3640  -31.9320 C.ar      1 QEL1        0.0000 
     10 C7         83.2980    3.7680  -30.4370 C.3       1 QEL1        0.0000 
     11 C8         84.5530    4.2650  -31.2710 C.3       1 QEL1        0.0000 
     12 C9         84.1340    5.1320  -32.3440 C.3       1 QEL1        0.0000 
     13 C01        81.7840    0.5860  -31.8850 C.ar      1 QEL1        0.0000 
     14 C02        82.7080    1.4760  -31.3200 C.ar      1 QEL1        0.0000 
     15 C10        85.2520    5.9610  -32.9120 C.3       1 QEL1        0.0000 
     16 C11        86.4740    5.7800  -30.7630 C.3       1 QEL1        0.0000 
     17 C12        85.3560    4.9570  -30.2410 C.3       1 QEL1        0.0000 
     18 C13        87.0920    7.4840  -32.5220 C.3       1 QEL1        0.0000 
     19 C14        86.9410    8.9080  -32.0930 C.3       1 QEL1        0.0000 
     20 C15        88.2560    9.6610  -31.8720 C.ar      1 QEL1        0.0000 
     21 C16        89.1030    9.3780  -30.8670 C.ar      1 QEL1        0.0000 
     22 C18        90.6370   11.0920  -31.6860 C.ar      1 QEL1        0.0000 
     23 C19        88.5940   10.6190  -32.7980 C.ar      1 QEL1        0.0000 
     24 C24        86.9830    7.5240  -33.9870 C.3       1 QEL1        0.0000 
     25 H          79.8132    0.3791  -32.5989 H         1 QEL1        0.0000 
     26 H          85.3218    7.4041  -31.4125 H         1 QEL1        0.0000 
     27 H          90.9561    9.8942  -29.9761 H         1 QEL1        0.0000 
     28 H          90.0021   12.0705  -33.3999 H         1 QEL1        0.0000 
     29 H          80.7758    4.2255  -31.1929 H         1 QEL1        0.0000 
     30 H          79.1734    2.6726  -32.1531 H         1 QEL1        0.0000 
     31 H          83.7023    3.3207  -29.4908 H         1 QEL1        0.0000 
     32 H          82.7562    4.6903  -30.0982 H         1 QEL1        0.0000 
     33 H          85.0538    3.3890  -31.5955 H         1 QEL1        0.0000 
     34 H          83.3319    5.8212  -31.9997 H         1 QEL1        0.0000 
     35 H          83.6856    4.5408  -33.1724 H         1 QEL1        0.0000 
     36 H          82.0603   -0.3836  -32.0725 H         1 QEL1        0.0000 
     37 H          83.6496    1.1597  -31.0801 H         1 QEL1        0.0000 
     38 H          85.8771    5.3178  -33.5646 H         1 QEL1        0.0000 
     39 H          84.8188    6.7390  -33.5733 H         1 QEL1        0.0000 
     40 H          86.8680    6.4105  -29.9323 H         1 QEL1        0.0000 
     41 H          87.3141    5.1017  -31.0405 H         1 QEL1        0.0000 
     42 H          85.7636    4.2023  -29.5245 H         1 QEL1        0.0000 
     43 H          84.6846    5.6043  -29.6252 H         1 QEL1        0.0000 
     44 H          88.1042    7.1728  -32.2611 H         1 QEL1        0.0000 
     45 H          86.9658    8.4885  -30.7314 H         1 QEL1        0.0000 
     46 H          88.9028    8.6473  -30.1701 H         1 QEL1        0.0000 
     47 H          87.9715   10.8264  -33.5954 H         1 QEL1        0.0000 
     48 H          87.6632    8.1340  -34.3935 H         1 QEL1        0.0000 
     49 H          87.1187    6.6208  -34.3943 H         1 QEL1        0.0000 
     50 H          86.0845    7.8475  -34.2839 H         1 QEL1        0.0000 
     51 H          85.2719    8.7796  -31.4924 H         1 QEL1        0.0000 
     52 H          92.1580   11.7249  -30.6793 H         1 QEL1        0.0000 
@<TRIPOS>BOND
     1    9    1 ar   
     2   13    1 ar   
     3   25    1 1    
     4   15    2 1    
     5   16    2 1    
     6   18    2 1    
     7   26    2 1    
     8   19    3 1    
     9   51    3 1    
    10   21    4 ar   
    11   22    4 ar   
    12   27    4 1    
    13   22    5 1    
    14   52    5 1    
    15   22    6 ar   
    16   23    6 ar   
    17   28    6 1    
    18    8    7 ar   
    19   10    7 1    
    20   14    7 ar   
    21    9    8 ar   
    22   29    8 1    
    23   30    9 1    
    24   11   10 1    
    25   31   10 1    
    26   32   10 1    
    27   12   11 1    
    28   17   11 1    
    29   33   11 1    
    30   15   12 1    
    31   34   12 1    
    32   35   12 1    
    33   14   13 ar   
    34   36   13 1    
    35   37   14 1    
    36   38   15 1    
    37   39   15 1    
    38   17   16 1    
    39   40   16 1    
    40   41   16 1    
    41   42   17 1    
    42   43   17 1    
    43   19   18 1    
    44   24   18 1    
    45   44   18 1    
    46   20   19 1    
    47   45   19 1    
    48   21   20 ar   
    49   23   20 ar   
    50   46   21 1    
    51   47   23 1    
    52   48   24 1    
    53   49   24 1    
    54   50   24 1    
@<TRIPOS>SUBSTRUCTURE
     1 QEL1        1 GROUP   
@<TRIPOS>SET

