#    Name: 1ddg_FAD_1_INTS_M
#    Modification time : Mon Mar 24 21:40:45 2014

@<TRIPOS>MOLECULE
1ddg_FAD_1_INTS_M
   90     0    12     0     0
SMALL
NO_CHARGES


@<TRIPOS>ATOM
      1 NZ          2.7345    5.4770   -8.2490 N.4       3 LYC4        0.0000 
      2 NZ          1.8560    6.1190   -7.2080 N.4      11 LYL4        0.0000 
      3 NZ          3.8820    3.5250   -9.2220 N.4       7 LYP4        0.0000 
      4 N           2.7345    5.4770   -8.2490 N.am      2 SEC2        0.0000 
      5 N           1.8560    6.1190   -7.2080 N.am     10 SEL2        0.0000 
      6 N           3.6130    4.8350   -9.2900 N.am      6 SEP2        0.0000 
      7 N           0.3485    6.9460  -10.2460 N.am      2 SEC2        0.0000 
      8 N           0.1250    6.7270   -8.8950 N.am     10 SEL2        0.0000 
      9 N           0.5720    7.1650  -11.5970 N.am      6 SEP2        0.0000 
     10 N          -0.9595    5.8995   -9.6360 N.am      2 SEC2        0.0000 
     11 N          -2.0440    5.0720  -10.3770 N.am      6 SEP2        0.0000 
     12 CA          2.1090    8.5370   -7.3925 C.3       4 GLC5        0.0000 
     13 CA          0.7920    8.6280   -6.1730 C.3      12 GLL5        0.0000 
     14 CA          3.4260    8.4460   -8.6120 C.3       8 GLP5        0.0000 
     15 CA         -2.3390    8.6555   -5.1510 C.3       4 GLC5        0.0000 
     16 CA         -0.3020    9.3580   -5.3860 C.3      12 GLL5        0.0000 
     17 CA         -4.3760    7.9530   -4.9160 C.3       8 GLP5        0.0000 
     18 O           1.7400   13.0780   -6.4445 O.2       1 ALC1        0.0000 
     19 O           0.7740   12.5310   -5.8680 O.2       9 ALL1        0.0000 
     20 O           2.7060   13.6250   -7.0210 O.2       5 ALP1        0.0000 
     21 CA         -3.1470   11.2480   -6.6520 C.3       4 GLC5        0.0000 
     22 CA         -1.4370   11.2510   -6.1080 C.3      12 GLL5        0.0000 
     23 CA         -4.8570   11.2450   -7.1960 C.3       8 GLP5        0.0000 
     24 CA         -2.0385   17.0930   -5.5130 C.3       4 GLC5        0.0000 
     25 CA         -3.0630   15.2600   -5.7720 C.3      12 GLL5        0.0000 
     26 CA         -1.0140   18.9260   -5.2540 C.3       8 GLP5        0.0000 
     27 CA         -2.8650   15.8210   -7.8470 C.3       4 GLC5        0.0000 
     28 CA         -2.6670   16.3820   -9.9220 C.3       8 GLP5        0.0000 
     29 N          -4.5800   -0.2745   -1.1530 N.am      2 SEC2        0.0000 
     30 N          -3.0990   -0.1970   -0.8620 N.am     10 SEL2        0.0000 
     31 N          -6.0610   -0.3520   -1.4440 N.am      6 SEP2        0.0000 
     32 O          -3.3195   -2.7515   -0.0155 O.2       1 ALC1        0.0000 
     33 O          -2.1930   -1.9870    0.0700 O.2       9 ALL1        0.0000 
     34 O          -4.4460   -3.5160   -0.1010 O.2       5 ALP1        0.0000 
     35 N          -0.0595   -4.6355    0.8340 N.am      2 SEC2        0.0000 
     36 N          -1.2990   -3.6050    1.3190 N.am     10 SEL2        0.0000 
     37 N           1.1800   -5.6660    0.3490 N.am      6 SEP2        0.0000 
     38 N           1.2320   -4.0910    0.5825 N.am      2 SEC2        0.0000 
     39 N           1.2840   -2.5160    0.8160 N.am     10 SEL2        0.0000 
     40 N           1.5530   -3.7255    1.8640 N.am      2 SEC2        0.0000 
     41 N           1.8220   -4.9350    2.9120 N.am      6 SEP2        0.0000 
     42 CA          1.7745   -3.3730   -0.7085 C.3       4 GLC5        0.0000 
     43 CA          2.4620   -1.9570    0.5250 C.3      12 GLL5        0.0000 
     44 CA          1.0870   -4.7890   -1.9420 C.3       8 GLP5        0.0000 
     45 CA          1.7695    1.3255    0.5355 C.3       4 GLC5        0.0000 
     46 CA          1.4820    1.0320   -1.4190 C.3      12 GLL5        0.0000 
     47 CA          2.0570    1.6190    2.4900 C.3       8 GLP5        0.0000 
     48 N           3.4070   -1.1155   -4.0530 N.am      2 SEC2        0.0000 
     49 N           2.6810    0.1820   -3.2490 N.am     10 SEL2        0.0000 
     50 N           4.1330   -2.4130   -4.8570 N.am      6 SEP2        0.0000 
     51 O           2.5295   -1.0960   -2.9500 O.2       1 ALC1        0.0000 
     52 O           2.6810    0.1820   -3.2490 O.2       9 ALL1        0.0000 
     53 O           2.3780   -2.3740   -2.6510 O.2       5 ALP1        0.0000 
     54 N          -1.2215    0.4835   -5.0630 N.am      2 SEC2        0.0000 
     55 N          -1.2050    1.5060   -4.1350 N.am     10 SEL2        0.0000 
     56 N          -1.2380   -0.5390   -5.9910 N.am      6 SEP2        0.0000 
     57 CA         -2.0965    4.6825   -4.3195 C.3       4 GLC5        0.0000 
     58 CA         -0.3960    3.7020   -4.5440 C.3      12 GLL5        0.0000 
     59 CA         -3.7970    5.6630   -4.0950 C.3       8 GLP5        0.0000 
     60 NZ          1.5760    3.0430   -8.4910 N.4       3 LYC4        0.0000 
     61 NZ          0.1570    3.4010   -8.2680 N.4      11 LYL4        0.0000 
     62 N           1.5760    3.0430   -8.4910 N.am      2 SEC2        0.0000 
     63 N           0.1570    3.4010   -8.2680 N.am     10 SEL2        0.0000 
     64 N           2.9950    2.6850   -8.7140 N.am      6 SEP2        0.0000 
     65 N          -0.5965    2.7565   -9.3385 N.am      2 SEC2        0.0000 
     66 N          -1.3500    2.1120  -10.4090 N.am      6 SEP2        0.0000 
     67 N          -2.6380    2.3340   -7.8035 N.am      2 SEC2        0.0000 
     68 N          -2.0700    3.4800   -7.1730 N.am     10 SEL2        0.0000 
     69 N          -3.2060    1.1880   -8.4340 N.am      6 SEP2        0.0000 
     70 N          -3.3115    3.2045   -6.8815 N.am      2 SEC2        0.0000 
     71 N          -4.5530    2.9290   -6.5900 N.am      6 SEP2        0.0000 
     72 CA         -6.0288   13.2248   -4.7462 C.3       4 GLC5        0.0000 
     73 CA         -3.7740   13.2170   -4.2060 C.3      12 GLL5        0.0000 
     74 CA         -7.9120   12.6000   -5.3480 C.3       8 GLP5        0.0000 
     75 CA          5.2666   -2.9426   -0.9784 C.3       4 GLC5        0.0000 
     76 CA          3.5970   -2.5460    1.0710 C.3      12 GLL5        0.0000 
     77 CA          5.3570   -3.2890   -2.9420 C.3       8 GLP5        0.0000 
     78 CA          5.0917    0.4309    1.3079 C.3       4 GLC5        0.0000 
     79 CA          6.3010   -0.2760   -0.1870 C.3      12 GLL5        0.0000 
     80 CA          4.5840    1.7440    2.5260 C.3       8 GLP5        0.0000 
     81 CA          5.0329   -1.8233   -1.5580 C.3       4 GLC5        0.0000 
     82 CA          4.9480   -0.8320    0.0610 C.3      12 GLL5        0.0000 
     83 CA          3.8807    0.6427    1.1385 C.3       4 GLC5        0.0000 
     84 CA          3.7930   -0.1610   -0.2850 C.3      12 GLL5        0.0000 
     85 CA          1.9337    1.1033   -5.2702 C.3       4 GLC5        0.0000 
     86 CA          1.3590    0.7070   -2.9690 C.3      12 GLL5        0.0000 
     87 CA          2.5980    0.8630   -7.1960 C.3       8 GLP5        0.0000 
     88 CA         -0.3869    0.1249   -3.6724 C.3       4 GLC5        0.0000 
     89 CA          1.1800    1.9800   -3.7200 C.3      12 GLL5        0.0000 
     90 CA         -1.2910   -1.6750   -3.9010 C.3       8 GLP5        0.0000 
@<TRIPOS>BOND
@<TRIPOS>SUBSTRUCTURE
     1 ALC1       18 GROUP        1 X    ALC  0     ROOT ALC X 1
     2 SEC2        4 GROUP        1 X    SEC  0     **** SEC X 2
     3 LYC4        1 GROUP        1 X    LYC  0     **** LYC X 4
     4 GLC5       12 GROUP        1 X    GLC  0     **** GLC X 6
     5 ALP1       20 GROUP        1 Y    ALP  0     ROOT ALP Y 8
     6 SEP2        6 GROUP        1 Y    SEP  0     **** SEP Y 9
     7 LYP4        3 GROUP        1 Y    LYP  0     **** LYP Y 11
     8 GLP5       14 GROUP        1 Y    GLP  0     **** GLP Y 13
     9 ALL1       19 GROUP        1 Z    ALL  0     ROOT ALL Z 15
    10 SEL2        5 GROUP        1 Z    SEL  0     **** SEL Z 16
    11 LYL4        2 GROUP        1 Z    LYL  0     **** LYL Z 18
    12 GLL5       13 GROUP        1 Z    GLL  0     **** GLL Z 20
@<TRIPOS>SET

