#    Name: 1ddg_FAD_1_ligand
#    Modification time : Mon Mar 24 21:40:46 2014

@<TRIPOS>MOLECULE
1ddg_FAD_1_ligand
   83    88     1     0     0
SMALL
NO_CHARGES


@<TRIPOS>ATOM
      1 PA          0.5060    6.4150   -7.6310 P.3       1 FAD600      0.0000 
      2 O1A         1.8560    6.1190   -7.2080 O.co2     1 FAD600      0.0000 
      3 O2A         0.1250    6.7270   -8.8950 O.co2     1 FAD600      0.0000 
      4 O5B         0.0180    7.5270   -6.7510 O.3       1 FAD600      0.0000 
      5 C5B         0.7920    8.6280   -6.1730 C.3       1 FAD600      0.0000 
      6 C4B        -0.3020    9.3580   -5.3860 C.3       1 FAD600      0.0000 
      7 O4B        -1.3510    9.7760   -6.3400 O.3       1 FAD600      0.0000 
      8 C3B         0.2570   10.7360   -4.8650 C.3       1 FAD600      0.0000 
      9 O3B         1.6040   10.7140   -4.6250 O.3       1 FAD600      0.0000 
     10 C2B         0.0570   11.3540   -6.3320 C.3       1 FAD600      0.0000 
     11 O2B         0.7740   12.5310   -5.8680 O.3       1 FAD600      0.0000 
     12 C1B        -1.4370   11.2510   -6.1080 C.3       1 FAD600      0.0000 
     13 N9A        -1.9660   11.9050   -4.9050 N.pl3     1 FAD600      0.0000 
     14 C8A        -2.8510   11.3430   -3.9700 C.2       1 FAD600      0.0000 
     15 N7A        -3.9650   12.0160   -3.6810 N.2       1 FAD600      0.0000 
     16 C5A        -3.7740   13.2170   -4.2060 C.ar      1 FAD600      0.0000 
     17 C6A        -4.5170   14.4820   -4.0830 C.ar      1 FAD600      0.0000 
     18 N6A        -5.6130   14.7170   -3.3880 N.pl3     1 FAD600      0.0000 
     19 N1A        -3.9900   15.4810   -4.8540 N.ar      1 FAD600      0.0000 
     20 C2A        -3.0630   15.2600   -5.7720 C.ar      1 FAD600      0.0000 
     21 N3A        -2.1540   14.3050   -5.6570 N.ar      1 FAD600      0.0000 
     22 C4A        -2.5890   13.2110   -4.9900 C.ar      1 FAD600      0.0000 
     23 N1         -0.9440   -0.0960   -0.6620 N.2       1 FAD600      0.0000 
     24 C2         -2.1030   -0.7360   -0.5370 C.2       1 FAD600      0.0000 
     25 O2         -3.0990   -0.1970   -0.8620 O.2       1 FAD600      0.0000 
     26 N3         -2.1930   -1.9870    0.0700 N.am      1 FAD600      0.0000 
     27 C4         -1.1160   -2.6180    0.6110 C.2       1 FAD600      0.0000 
     28 O4         -1.2990   -3.6050    1.3190 O.2       1 FAD600      0.0000 
     29 C4X         0.1460   -1.9150    0.4440 C.2       1 FAD600      0.0000 
     30 N5          1.2840   -2.5160    0.8160 N.2       1 FAD600      0.0000 
     31 C5X         2.4620   -1.9570    0.5250 C.ar      1 FAD600      0.0000 
     32 C6          3.5970   -2.5460    1.0710 C.ar      1 FAD600      0.0000 
     33 C7          4.8480   -2.1450    0.6720 C.ar      1 FAD600      0.0000 
     34 C7M         6.1300   -2.8470    1.0990 C.3       1 FAD600      0.0000 
     35 C8          4.9480   -0.8320    0.0610 C.ar      1 FAD600      0.0000 
     36 C8M         6.3010   -0.2760   -0.1870 C.3       1 FAD600      0.0000 
     37 C9          3.7930   -0.1610   -0.2850 C.ar      1 FAD600      0.0000 
     38 C9A         2.5620   -0.7560   -0.2130 C.ar      1 FAD600      0.0000 
     39 N10         1.3750   -0.1820   -0.7190 N.pl3     1 FAD600      0.0000 
     40 C10         0.2050   -0.6130   -0.2400 C.2       1 FAD600      0.0000 
     41 C1'         1.4820    1.0320   -1.4190 C.3       1 FAD600      0.0000 
     42 C2'         1.3590    0.7070   -2.9690 C.3       1 FAD600      0.0000 
     43 O2'         2.6810    0.1820   -3.2490 O.3       1 FAD600      0.0000 
     44 C3'         1.1800    1.9800   -3.7200 C.3       1 FAD600      0.0000 
     45 O3'         2.2880    2.8630   -3.3880 O.3       1 FAD600      0.0000 
     46 C4'        -0.2350    2.5060   -3.5430 C.3       1 FAD600      0.0000 
     47 O4'        -1.2050    1.5060   -4.1350 O.3       1 FAD600      0.0000 
     48 C5'        -0.3960    3.7020   -4.5440 C.3       1 FAD600      0.0000 
     49 O5'        -0.0370    3.3070   -5.9680 O.3       1 FAD600      0.0000 
     50 P          -0.6280    3.8270   -7.2130 P.3       1 FAD600      0.0000 
     51 O1P         0.1570    3.4010   -8.2680 O.co2     1 FAD600      0.0000 
     52 O2P        -2.0700    3.4800   -7.1730 O.co2     1 FAD600      0.0000 
     53 O3P        -0.4750    5.2430   -7.2180 O.3       1 FAD600      0.0000 
     54 H           1.1662    9.2750   -6.9180 H         1 FAD600      0.0000 
     55 H           1.5231    8.2781   -5.4972 H         1 FAD600      0.0000 
     56 H          -0.6662    8.8147   -4.6090 H         1 FAD600      0.0000 
     57 H          -0.4125   11.1616   -4.2824 H         1 FAD600      0.0000 
     58 H           0.4612   10.7384   -6.9153 H         1 FAD600      0.0000 
     59 H          -1.8482   11.6641   -7.0556 H         1 FAD600      0.0000 
     60 H          -2.6176   10.4443   -3.5431 H         1 FAD600      0.0000 
     61 H          -3.0476   15.8792   -6.6437 H         1 FAD600      0.0000 
     62 H          -3.1360   -2.4498    0.1042 H         1 FAD600      0.0000 
     63 H           3.4901   -3.2898    1.7813 H         1 FAD600      0.0000 
     64 H           3.8648    0.8310   -0.6112 H         1 FAD600      0.0000 
     65 H           2.4413    1.5230   -1.2898 H         1 FAD600      0.0000 
     66 H           0.6843    1.7329   -1.1944 H         1 FAD600      0.0000 
     67 H           0.6156    0.0270   -3.1029 H         1 FAD600      0.0000 
     68 H           1.2815    1.6924   -4.8089 H         1 FAD600      0.0000 
     69 H          -0.4694    2.7851   -2.6187 H         1 FAD600      0.0000 
     70 H           0.2510    4.5133   -4.2086 H         1 FAD600      0.0000 
     71 H          -1.4316    4.0413   -4.5019 H         1 FAD600      0.0000 
     72 H           6.9400   -2.4134    0.7043 H         1 FAD600      0.0000 
     73 H           6.2463   -2.8361    2.0922 H         1 FAD600      0.0000 
     74 H           6.1417   -3.8052    0.8130 H         1 FAD600      0.0000 
     75 H           6.8257   -0.1842    0.6593 H         1 FAD600      0.0000 
     76 H           6.8346   -0.8575   -0.8011 H         1 FAD600      0.0000 
     77 H           6.2587    0.6312   -0.6055 H         1 FAD600      0.0000 
     78 H           1.9855   11.4155   -5.2270 H         1 FAD600      0.0000 
     79 H           1.4692   12.7023   -6.5661 H         1 FAD600      0.0000 
     80 H          -6.0657   15.4699   -3.8657 H         1 FAD600      0.0000 
     81 H           2.7867   -0.5964   -2.6302 H         1 FAD600      0.0000 
     82 H           3.0883    2.2657   -3.3365 H         1 FAD600      0.0000 
     83 H          -2.0088    2.0442   -4.3885 H         1 FAD600      0.0000 
@<TRIPOS>BOND
     1    2    1 ar   
     2    3    1 ar   
     3    4    1 1    
     4   53    1 1    
     5    5    4 1    
     6    6    5 1    
     7   54    5 1    
     8   55    5 1    
     9    7    6 1    
    10    8    6 1    
    11   56    6 1    
    12   12    7 1    
    13    9    8 1    
    14   10    8 1    
    15   57    8 1    
    16   78    9 1    
    17   11   10 1    
    18   12   10 1    
    19   58   10 1    
    20   79   11 1    
    21   13   12 1    
    22   59   12 1    
    23   14   13 1    
    24   22   13 1    
    25   15   14 2    
    26   60   14 1    
    27   16   15 1    
    28   17   16 ar   
    29   22   16 ar   
    30   18   17 1    
    31   19   17 ar   
    32   80   18 1    
    33   20   19 ar   
    34   21   20 ar   
    35   61   20 1    
    36   22   21 ar   
    37   24   23 1    
    38   40   23 2    
    39   25   24 2    
    40   26   24 am   
    41   27   26 am   
    42   62   26 1    
    43   28   27 2    
    44   29   27 1    
    45   30   29 2    
    46   40   29 1    
    47   31   30 1    
    48   32   31 ar   
    49   38   31 ar   
    50   33   32 ar   
    51   63   32 1    
    52   34   33 1    
    53   35   33 ar   
    54   72   34 1    
    55   73   34 1    
    56   74   34 1    
    57   36   35 1    
    58   37   35 ar   
    59   75   36 1    
    60   76   36 1    
    61   77   36 1    
    62   38   37 ar   
    63   64   37 1    
    64   39   38 1    
    65   40   39 1    
    66   41   39 1    
    67   42   41 1    
    68   65   41 1    
    69   66   41 1    
    70   43   42 1    
    71   44   42 1    
    72   67   42 1    
    73   81   43 1    
    74   45   44 1    
    75   46   44 1    
    76   68   44 1    
    77   82   45 1    
    78   47   46 1    
    79   48   46 1    
    80   69   46 1    
    81   83   47 1    
    82   49   48 1    
    83   70   48 1    
    84   71   48 1    
    85   50   49 1    
    86   51   50 ar   
    87   52   50 ar   
    88   53   50 1    
@<TRIPOS>SUBSTRUCTURE
     1 FAD600      1 GROUP   
@<TRIPOS>SET

