#    Name: 4mlp_2CX_2_INTS_M
#    Modification time : Tue Mar 25 12:16:00 2014

@<TRIPOS>MOLECULE
4mlp_2CX_2_INTS_M
   60     0     3     0     0
SMALL
NO_CHARGES


@<TRIPOS>ATOM
      1 CA         45.4255    5.5440  105.8780 C.3       1 GLC5        0.0000 
      2 CA         46.0460    6.5290  107.1990 C.3       3 GLL5        0.0000 
      3 CA         44.8050    4.5590  104.5570 C.3       2 GLP5        0.0000 
      4 CA         44.8425   11.1170  108.5575 C.3       1 GLC5        0.0000 
      5 CA         46.2990    9.5090  108.9160 C.3       3 GLL5        0.0000 
      6 CA         43.3860   12.7250  108.1990 C.3       2 GLP5        0.0000 
      7 CA         49.0190    9.7225  109.5990 C.3       1 GLC5        0.0000 
      8 CA         47.4140   10.4370  109.4160 C.3       3 GLL5        0.0000 
      9 CA         50.6240    9.0080  109.7820 C.3       2 GLP5        0.0000 
     10 CA         48.6380   12.0120  110.0740 C.3       1 GLC5        0.0000 
     11 CA         49.8620   13.5870  110.7320 C.3       2 GLP5        0.0000 
     12 CA         43.9485   12.4225  113.6995 C.3       1 GLC5        0.0000 
     13 CA         45.0320   13.2090  112.0160 C.3       3 GLL5        0.0000 
     14 CA         42.8650   11.6360  115.3830 C.3       2 GLP5        0.0000 
     15 CA         48.3665   16.2900  105.0260 C.3       1 GLC5        0.0000 
     16 CA         47.8720   14.5720  106.0660 C.3       3 GLL5        0.0000 
     17 CA         48.8610   18.0080  103.9860 C.3       2 GLP5        0.0000 
     18 CA         48.9790    5.8070  104.0745 C.3       1 GLC5        0.0000 
     19 CA         47.7790    7.1930  105.3320 C.3       3 GLL5        0.0000 
     20 CA         50.1790    4.4210  102.8170 C.3       2 GLP5        0.0000 
     21 CA         49.0205    7.7225  107.0305 C.3       1 GLC5        0.0000 
     22 CA         50.2620    8.2520  108.7290 C.3       2 GLP5        0.0000 
     23 CA         46.5270   10.7795  104.2800 C.3       1 GLC5        0.0000 
     24 CA         46.9750    9.2200  104.8430 C.3       3 GLL5        0.0000 
     25 CA         46.0790   12.3390  103.7170 C.3       2 GLP5        0.0000 
     26 CA         42.0775    6.2310  107.2665 C.3       1 GLC5        0.0000 
     27 CA         42.7490    7.2710  108.6160 C.3       3 GLL5        0.0000 
     28 CA         41.4060    5.1910  105.9170 C.3       2 GLP5        0.0000 
     29 CA         42.0785    8.3130  107.0730 C.3       1 GLC5        0.0000 
     30 CA         41.4080    9.3550  105.5300 C.3       2 GLP5        0.0000 
     31 CA         41.4855    7.4445  109.7755 C.3       1 GLC5        0.0000 
     32 CA         40.2220    7.6180  110.9350 C.3       2 GLP5        0.0000 
     33 CA         47.0490   13.0715  112.3217 C.3       1 GLC5        0.0000 
     34 CA         45.7780   12.2290  111.2730 C.3       3 GLL5        0.0000 
     35 CA         48.6930   13.4240  112.9990 C.3       2 GLP5        0.0000 
     36 CA         46.9197   14.0580  111.9515 C.3       1 GLC5        0.0000 
     37 CA         45.4230   14.8710  110.3060 C.3       3 GLL5        0.0000 
     38 CA         48.8290   13.0135  109.1020 C.3       1 GLC5        0.0000 
     39 CA         47.4220   12.5920  108.0560 C.3       3 GLL5        0.0000 
     40 CA         47.1782   12.5690  105.0538 C.3       1 GLC5        0.0000 
     41 CA         48.1700   12.2880  106.8880 C.3       3 GLL5        0.0000 
     42 CA         48.7635   16.0260  107.5317 C.3       1 GLC5        0.0000 
     43 CA         50.0360   17.3280  108.4040 C.3       2 GLP5        0.0000 
     44 CA         46.7850   13.5315  105.1883 C.3       1 GLC5        0.0000 
     45 CA         47.1100   14.8760  107.2530 C.3       3 GLL5        0.0000 
     46 CA         45.7875   15.5610  106.1093 C.3       1 GLC5        0.0000 
     47 CA         44.0840   16.3980  105.5590 C.3       2 GLP5        0.0000 
     48 CA         48.3655    8.4940  108.8552 C.3       1 GLC5        0.0000 
     49 CA         46.6390    7.9630  109.0470 C.3       3 GLL5        0.0000 
     50 CA         48.1544   13.4069  110.0966 C.3       1 GLC5        0.0000 
     51 CA         46.3410   12.5830  110.0420 C.3       3 GLL5        0.0000 
     52 CA         44.3750   14.6210  113.6225 C.3       1 GLC5        0.0000 
     53 CA         43.7990   15.3810  115.4860 C.3       2 GLP5        0.0000 
     54 CA         45.3012   13.1047  108.0480 C.3       1 GLC5        0.0000 
     55 CA         46.9120   13.8780  108.2230 C.3       3 GLL5        0.0000 
     56 CA         46.3524    6.8030  104.4414 C.3       1 GLC5        0.0000 
     57 CA         46.6550    7.4540  106.1450 C.3       3 GLL5        0.0000 
     58 CA         45.3590    5.5650  103.6730 C.3       2 GLP5        0.0000 
     59 CA         44.4969   13.1337  109.4889 C.3       1 GLC5        0.0000 
     60 CA         46.1930   13.8630  109.5380 C.3       3 GLL5        0.0000 
@<TRIPOS>BOND
@<TRIPOS>SUBSTRUCTURE
     1 GLC5        1 GROUP        1 X    GLC  0     ROOT GLC X 6
     2 GLP5        3 GROUP        1 Y    GLP  0     ROOT GLP Y 13
     3 GLL5        2 GROUP        1 Z    GLL  0     ROOT GLL Z 20
@<TRIPOS>SET

