#    Name: 4mlp_2CX_2_ligand
#    Modification time : Tue Mar 25 12:16:00 2014

@<TRIPOS>MOLECULE
4mlp_2CX_2_ligand
   50    53     1     0     0
SMALL
NO_CHARGES


@<TRIPOS>ATOM
      1 C10        45.7780   12.2290  111.2730 C.ar      1 2CX900      0.0000 
      2 C13        45.4230   14.8710  110.3060 C.ar      1 2CX900      0.0000 
      3 C15        46.9120   13.8780  108.2230 C.ar      1 2CX900      0.0000 
      4 C17        48.1700   12.2880  106.8880 C.ar      1 2CX900      0.0000 
      5 C20        47.1100   14.8760  107.2530 C.ar      1 2CX900      0.0000 
      6 C21        46.0460    6.5290  107.1990 C.3       1 2CX900      0.0000 
      7 C22        46.6550    7.4540  106.1450 C.2       1 2CX900      0.0000 
      8 C24        47.9740    8.2970  104.5190 C.2       1 2CX900      0.0000 
      9 O01        44.4660    7.1030  110.5860 O.2       1 2CX900      0.0000 
     10 S02        44.3460    6.7180  109.2490 S.o2      1 2CX900      0.0000 
     11 N03        45.5910    7.3400  108.2950 N.pl3     1 2CX900      0.0000 
     12 C04        46.6390    7.9630  109.0470 C.3       1 2CX900      0.0000 
     13 C05        46.2990    9.5090  108.9160 C.3       1 2CX900      0.0000 
     14 O06        45.1400    9.6960  109.7370 O.3       1 2CX900      0.0000 
     15 C07        47.4140   10.4370  109.4160 C.3       1 2CX900      0.0000 
     16 N08        47.0720   11.8350  109.1600 N.pl3     1 2CX900      0.0000 
     17 C09        46.3410   12.5830  110.0420 C.ar      1 2CX900      0.0000 
     18 C11        45.0320   13.2090  112.0160 C.ar      1 2CX900      0.0000 
     19 C12        44.8700   14.5130  111.5020 C.ar      1 2CX900      0.0000 
     20 C14        46.1930   13.8630  109.5380 C.ar      1 2CX900      0.0000 
     21 C16        47.4220   12.5920  108.0560 C.ar      1 2CX900      0.0000 
     22 C18        48.3850   13.3100  105.8930 C.ar      1 2CX900      0.0000 
     23 C19        47.8720   14.5720  106.0660 C.ar      1 2CX900      0.0000 
     24 C23        47.7790    7.1930  105.3320 C.2       1 2CX900      0.0000 
     25 C25        46.9750    9.2200  104.8430 C.2       1 2CX900      0.0000 
     26 O26        46.2070    8.6790  105.8160 O.3       1 2CX900      0.0000 
     27 C27        42.7490    7.2710  108.6160 C.3       1 2CX900      0.0000 
     28 O28        44.4360    5.2210  109.3530 O.2       1 2CX900      0.0000 
     29 H          45.8850   11.2943  111.6532 H         1 2CX900      0.0000 
     30 H          45.3390   15.7958  109.9044 H         1 2CX900      0.0000 
     31 H          48.5543   11.3627  106.7451 H         1 2CX900      0.0000 
     32 H          46.7273   15.8071  107.3710 H         1 2CX900      0.0000 
     33 H          46.8127    5.8229  107.5111 H         1 2CX900      0.0000 
     34 H          45.2276    5.9823  106.7351 H         1 2CX900      0.0000 
     35 H          48.6452    8.4113  103.8725 H         1 2CX900      0.0000 
     36 H          47.6021    7.8225  108.6194 H         1 2CX900      0.0000 
     37 H          46.6079    7.7279  110.0833 H         1 2CX900      0.0000 
     38 H          46.0810    9.7049  107.8953 H         1 2CX900      0.0000 
     39 H          48.3411   10.1603  108.9039 H         1 2CX900      0.0000 
     40 H          47.5508   10.2568  110.4870 H         1 2CX900      0.0000 
     41 H          44.6254   12.9497  112.9120 H         1 2CX900      0.0000 
     42 H          44.3197   15.1946  112.0554 H         1 2CX900      0.0000 
     43 H          48.9303   13.0616  105.0589 H         1 2CX900      0.0000 
     44 H          48.0115   15.3120  105.3775 H         1 2CX900      0.0000 
     45 H          48.2935    6.4047  105.3509 H         1 2CX900      0.0000 
     46 H          46.8752   10.0748  104.4339 H         1 2CX900      0.0000 
     47 H          42.6537    8.2652  108.6661 H         1 2CX900      0.0000 
     48 H          42.6190    7.0120  107.6589 H         1 2CX900      0.0000 
     49 H          41.9884    6.8773  109.1322 H         1 2CX900      0.0000 
     50 H          45.1727    8.9518  110.4041 H         1 2CX900      0.0000 
@<TRIPOS>BOND
     1   17    1 ar   
     2   18    1 ar   
     3   29    1 1    
     4   19    2 ar   
     5   20    2 ar   
     6   30    2 1    
     7    5    3 ar   
     8   20    3 1    
     9   21    3 ar   
    10   21    4 ar   
    11   22    4 ar   
    12   31    4 1    
    13   23    5 ar   
    14   32    5 1    
    15    7    6 1    
    16   11    6 1    
    17   33    6 1    
    18   34    6 1    
    19   24    7 2    
    20   26    7 1    
    21   24    8 1    
    22   25    8 2    
    23   35    8 1    
    24   10    9 2    
    25   11   10 1    
    26   27   10 1    
    27   28   10 2    
    28   12   11 1    
    29   13   12 1    
    30   36   12 1    
    31   37   12 1    
    32   14   13 1    
    33   15   13 1    
    34   38   13 1    
    35   50   14 1    
    36   16   15 1    
    37   39   15 1    
    38   40   15 1    
    39   17   16 1    
    40   21   16 1    
    41   20   17 ar   
    42   19   18 ar   
    43   41   18 1    
    44   42   19 1    
    45   23   22 ar   
    46   43   22 1    
    47   44   23 1    
    48   45   24 1    
    49   26   25 1    
    50   46   25 1    
    51   47   27 1    
    52   48   27 1    
    53   49   27 1    
@<TRIPOS>SUBSTRUCTURE
     1 2CX900      1 GROUP   
@<TRIPOS>SET

