#    Name: 3omu_IBD_2_INTS_M
#    Modification time : Tue Mar 25 04:53:20 2014

@<TRIPOS>MOLECULE
3omu_IBD_2_INTS_M
   80     0     9     0     0
SMALL
NO_CHARGES


@<TRIPOS>ATOM
      1 CA         18.0440    3.7650   19.2390 C.3       3 GLC5        0.0000 
      2 CA         19.9980    3.3420   18.5540 C.3       9 GLL5        0.0000 
      3 CA         16.0900    4.1880   19.9240 C.3       6 GLP5        0.0000 
      4 CA         19.7265    1.1600   18.3015 C.3       3 GLC5        0.0000 
      5 CA         19.4550   -1.0220   18.0490 C.3       6 GLP5        0.0000 
      6 CA         22.0010    3.2730   18.8525 C.3       3 GLC5        0.0000 
      7 CA         24.0040    3.2040   19.1510 C.3       6 GLP5        0.0000 
      8 CA         17.5435    4.3180   18.3220 C.3       3 GLC5        0.0000 
      9 CA         18.9970    4.4480   16.7200 C.3       9 GLL5        0.0000 
     10 CA         18.9325   -1.5385   10.1885 C.3       3 GLC5        0.0000 
     11 CA         21.0340   -1.1730   10.7600 C.3       9 GLL5        0.0000 
     12 CA         16.8310   -1.9040    9.6170 C.3       6 GLP5        0.0000 
     13 CA         16.2605    8.2420   11.1975 C.3       3 GLC5        0.0000 
     14 CA         14.1590    8.3660   11.8960 C.3       9 GLL5        0.0000 
     15 CA         18.3620    8.1180   10.4990 C.3       6 GLP5        0.0000 
     16 CA         13.8740   10.1300   10.9870 C.3       3 GLC5        0.0000 
     17 CA         13.5890   11.8940   10.0780 C.3       6 GLP5        0.0000 
     18 CA         12.8535    3.2730    8.9985 C.3       3 GLC5        0.0000 
     19 CA         12.6930    4.4620   10.5440 C.3       9 GLL5        0.0000 
     20 CA         13.0140    2.0840    7.4530 C.3       6 GLP5        0.0000 
     21 CA         11.1900    3.3055    9.9440 C.3       3 GLC5        0.0000 
     22 CA          9.6870    2.1490    9.3440 C.3       6 GLP5        0.0000 
     23 O          20.9490    2.2295   20.6900 O.2       1 ALC1        0.0000 
     24 O          20.3120    3.2730   19.8570 O.2       7 ALL1        0.0000 
     25 O          21.5860    1.1860   21.5230 O.2       4 ALP1        0.0000 
     26 N          19.0880    3.4410   11.4715 N.am      2 SEC2        0.0000 
     27 N          18.8600    1.9990   11.8160 N.am      8 SEL2        0.0000 
     28 N          19.3160    4.8830   11.1270 N.am      5 SEP2        0.0000 
     29 CA         19.6735    8.6495   18.1905 C.3       3 GLC5        0.0000 
     30 CA         20.4280    7.1230   17.2340 C.3       9 GLL5        0.0000 
     31 CA         18.9190   10.1760   19.1470 C.3       6 GLP5        0.0000 
     32 CA         22.4775    7.6265   17.5455 C.3       3 GLC5        0.0000 
     33 CA         24.5270    8.1300   17.8570 C.3       6 GLP5        0.0000 
     34 CA         20.8015    7.2230   19.2575 C.3       3 GLC5        0.0000 
     35 CA         21.1750    7.3230   21.2810 C.3       6 GLP5        0.0000 
     36 CA         20.6630    4.2825   14.1115 C.3       3 GLC5        0.0000 
     37 CA         19.2580    3.2100   14.5330 C.3       9 GLL5        0.0000 
     38 CA         22.0680    5.3550   13.6900 C.3       6 GLP5        0.0000 
     39 CA         21.7795    2.0350   12.0175 C.3       3 GLC5        0.0000 
     40 CA         20.9230    0.3430   10.8490 C.3       9 GLL5        0.0000 
     41 CA         22.6360    3.7270   13.1860 C.3       6 GLP5        0.0000 
     42 CA         21.9555    2.0185   10.1275 C.3       3 GLC5        0.0000 
     43 CA         22.9880    3.6940    9.4060 C.3       6 GLP5        0.0000 
     44 O          22.0960    0.4020   12.6895 O.2       1 ALC1        0.0000 
     45 O          20.7620    0.8150   12.2370 O.2       7 ALL1        0.0000 
     46 O          23.4300   -0.0110   13.1420 O.2       4 ALP1        0.0000 
     47 CA         20.7705   -0.5670   14.7930 C.3       3 GLC5        0.0000 
     48 CA         20.5480    1.2380   15.3060 C.3       9 GLL5        0.0000 
     49 CA         20.9930   -2.3720   14.2800 C.3       6 GLP5        0.0000 
     50 CA         22.5090    0.6190   15.3075 C.3       3 GLC5        0.0000 
     51 CA         24.4700    0.0000   15.3090 C.3       6 GLP5        0.0000 
     52 O          15.6140    5.6980   11.9525 O.2       1 ALC1        0.0000 
     53 O          13.9690    5.9010   12.1470 O.2       7 ALL1        0.0000 
     54 O          17.2590    5.4950   11.7580 O.2       4 ALP1        0.0000 
     55 CA         19.8997    0.3865   16.9677 C.3       3 GLC5        0.0000 
     56 CA         20.1410    2.3520   16.4670 C.3       9 GLL5        0.0000 
     57 CA         21.2200    4.1387   15.7782 C.3       3 GLC5        0.0000 
     58 CA         22.6620    5.4000   15.3880 C.3       6 GLP5        0.0000 
     59 CA         20.6615    5.2078   15.9340 C.3       3 GLC5        0.0000 
     60 CA         20.9857   -1.3935   12.5422 C.3       3 GLC5        0.0000 
     61 CA         13.5590    7.7755    9.9045 C.3       3 GLC5        0.0000 
     62 CA         13.3550    7.1040   11.5680 C.3       9 GLL5        0.0000 
     63 CA         13.3610    7.8160    8.0770 C.3       6 GLP5        0.0000 
     64 CA         13.3615    6.2120    9.4795 C.3       3 GLC5        0.0000 
     65 CA         14.0310    4.7540   11.2200 C.3       9 GLL5        0.0000 
     66 CA         16.6350    9.4067   16.6318 C.3       3 GLC5        0.0000 
     67 CA         17.0920    7.9130   15.2720 C.3       9 GLL5        0.0000 
     68 CA         16.5550   10.1820   18.2900 C.3       6 GLP5        0.0000 
     69 CA         21.1673    6.1925   16.1077 C.3       3 GLC5        0.0000 
     70 CA         18.9170    6.8470   16.4210 C.3       9 GLL5        0.0000 
     71 CA         20.0502    8.1785   15.3882 C.3       3 GLC5        0.0000 
     72 CA         20.4280    9.3720   13.9490 C.3       6 GLP5        0.0000 
     73 CA         18.9668    8.8411   14.7046 C.3       3 GLC5        0.0000 
     74 CA         18.2960    7.9890   15.9470 C.3       9 GLL5        0.0000 
     75 CA         17.5808    8.8000   17.2370 C.3       3 GLC5        0.0000 
     76 CA         21.3990    2.6875   13.9340 C.3       3 GLC5        0.0000 
     77 CA         19.7760    2.0580   14.0580 C.3       9 GLL5        0.0000 
     78 CA         18.0102    7.2655   13.4644 C.3       3 GLC5        0.0000 
     79 CA         16.4990    6.6830   15.0640 C.3       9 GLL5        0.0000 
     80 CA         18.9240    7.2140   11.5920 C.3       6 GLP5        0.0000 
@<TRIPOS>BOND
@<TRIPOS>SUBSTRUCTURE
     1 ALC1       23 GROUP        1 X    ALC  0     ROOT ALC X 1
     2 SEC2       26 GROUP        1 X    SEC  0     **** SEC X 2
     3 GLC5        1 GROUP        1 X    GLC  0     **** GLC X 6
     4 ALP1       25 GROUP        1 Y    ALP  0     ROOT ALP Y 8
     5 SEP2       28 GROUP        1 Y    SEP  0     **** SEP Y 9
     6 GLP5        3 GROUP        1 Y    GLP  0     **** GLP Y 13
     7 ALL1       24 GROUP        1 Z    ALL  0     ROOT ALL Z 15
     8 SEL2       27 GROUP        1 Z    SEL  0     **** SEL Z 16
     9 GLL5        2 GROUP        1 Z    GLL  0     **** GLL Z 20
@<TRIPOS>SET

