#    Name: 3omu_IBD_2_ligand
#    Modification time : Tue Mar 25 04:53:20 2014

@<TRIPOS>MOLECULE
3omu_IBD_2_ligand
   57    59     1     0     0
SMALL
NO_CHARGES


@<TRIPOS>ATOM
      1 N1         19.3120    4.3790   18.0390 N.ar      1 IBD215      0.0000 
      2 C2         19.9980    3.3420   18.5540 C.ar      1 IBD215      0.0000 
      3 N3         20.3990    2.3440   17.7620 N.ar      1 IBD215      0.0000 
      4 C4         20.1410    2.3520   16.4670 C.ar      1 IBD215      0.0000 
      5 C5         19.4150    3.4030   15.8700 C.ar      1 IBD215      0.0000 
      6 C6         18.9970    4.4480   16.7200 C.ar      1 IBD215      0.0000 
      7 CAA        21.0340   -1.1730   10.7600 C.3       1 IBD215      0.0000 
      8 CAB        14.1590    8.3660   11.8960 C.3       1 IBD215      0.0000 
      9 CAC        12.6930    4.4620   10.5440 C.3       1 IBD215      0.0000 
     10 NAD        20.3120    3.2730   19.8570 N.pl3     1 IBD215      0.0000 
     11 OAE        18.8600    1.9990   11.8160 O.2       1 IBD215      0.0000 
     12 CLAF       16.3380    9.3500   14.6750 Cl        1 IBD215      0.0000 
     13 CLAG       20.4280    7.1230   17.2340 Cl        1 IBD215      0.0000 
     14 CAH        18.2960    7.9890   15.9470 C.ar      1 IBD215      0.0000 
     15 CAI        17.1080    5.5160   15.5520 C.ar      1 IBD215      0.0000 
     16 CAJ        19.2580    3.2100   14.5330 C.2       1 IBD215      0.0000 
     17 CAK        20.9230    0.3430   10.8490 C.3       1 IBD215      0.0000 
     18 CAL        13.3550    7.1040   11.5680 C.3       1 IBD215      0.0000 
     19 CAM        14.0310    4.7540   11.2200 C.3       1 IBD215      0.0000 
     20 CAN        14.5040    5.4940   14.5000 C.3       1 IBD215      0.0000 
     21 CAO        13.3830    5.5460   13.4520 C.3       1 IBD215      0.0000 
     22 NAR        20.7620    0.8150   12.2370 N.am      1 IBD215      0.0000 
     23 OAS        15.3270    6.6910   14.3930 O.3       1 IBD215      0.0000 
     24 SAT        20.5480    1.2380   15.3060 S.3       1 IBD215      0.0000 
     25 CAU        19.7540    1.6150   12.5900 C.2       1 IBD215      0.0000 
     26 CAW        17.0920    7.9130   15.2720 C.ar      1 IBD215      0.0000 
     27 CAX        18.9170    6.8470   16.4210 C.ar      1 IBD215      0.0000 
     28 CAY        16.4990    6.6830   15.0640 C.ar      1 IBD215      0.0000 
     29 CAZ        19.7760    2.0580   14.0580 C.2       1 IBD215      0.0000 
     30 CBA        18.3250    5.5830   16.2400 C.ar      1 IBD215      0.0000 
     31 NBE        13.9690    5.9010   12.1470 N.4       1 IBD215      0.0000 
     32 H          20.8335    2.4687   20.1419 H         1 IBD215      0.0000 
     33 H          19.9964    4.0320   20.4265 H         1 IBD215      0.0000 
     34 H          18.7398    8.9133   16.1003 H         1 IBD215      0.0000 
     35 H          16.6546    4.6052   15.4017 H         1 IBD215      0.0000 
     36 H          18.7893    3.8800   13.9458 H         1 IBD215      0.0000 
     37 H          20.0664    0.6650   10.2346 H         1 IBD215      0.0000 
     38 H          21.8268    0.7843   10.3983 H         1 IBD215      0.0000 
     39 H          13.2877    7.0160   10.4746 H         1 IBD215      0.0000 
     40 H          12.3339    7.2399   11.9511 H         1 IBD215      0.0000 
     41 H          14.7820    4.9395   10.4327 H         1 IBD215      0.0000 
     42 H          14.3513    3.8450   11.7581 H         1 IBD215      0.0000 
     43 H          15.0923    4.5928   14.3214 H         1 IBD215      0.0000 
     44 H          14.0423    5.4188   15.4855 H         1 IBD215      0.0000 
     45 H          12.6556    6.2889   13.7647 H         1 IBD215      0.0000 
     46 H          12.9072    4.5710   13.4103 H         1 IBD215      0.0000 
     47 H          21.4790    0.4844   12.9084 H         1 IBD215      0.0000 
     48 H          15.0599    6.1817   12.3687 H         1 IBD215      0.0000 
     49 H          21.1443   -1.4825    9.8155 H         1 IBD215      0.0000 
     50 H          21.8182   -1.5189   11.2752 H         1 IBD215      0.0000 
     51 H          20.2208   -1.6269   11.1241 H         1 IBD215      0.0000 
     52 H          15.0938    8.3125   11.5449 H         1 IBD215      0.0000 
     53 H          13.7434    9.1846   11.4996 H         1 IBD215      0.0000 
     54 H          14.2246    8.5187   12.8821 H         1 IBD215      0.0000 
     55 H          12.3676    5.2434   10.0114 H         1 IBD215      0.0000 
     56 H          12.7553    3.6855    9.9170 H         1 IBD215      0.0000 
     57 H          11.9799    4.2442   11.2104 H         1 IBD215      0.0000 
@<TRIPOS>BOND
     1    2    1 ar   
     2    6    1 ar   
     3    3    2 ar   
     4   10    2 1    
     5    4    3 ar   
     6    5    4 ar   
     7   24    4 1    
     8    6    5 ar   
     9   16    5 1    
    10   30    6 1    
    11   17    7 1    
    12   49    7 1    
    13   50    7 1    
    14   51    7 1    
    15   18    8 1    
    16   52    8 1    
    17   53    8 1    
    18   54    8 1    
    19   19    9 1    
    20   55    9 1    
    21   56    9 1    
    22   57    9 1    
    23   32   10 1    
    24   33   10 1    
    25   25   11 2    
    26   26   12 1    
    27   27   13 1    
    28   26   14 ar   
    29   27   14 ar   
    30   34   14 1    
    31   28   15 ar   
    32   30   15 ar   
    33   35   15 1    
    34   29   16 2    
    35   36   16 1    
    36   22   17 1    
    37   37   17 1    
    38   38   17 1    
    39   31   18 1    
    40   39   18 1    
    41   40   18 1    
    42   31   19 1    
    43   41   19 1    
    44   42   19 1    
    45   21   20 1    
    46   23   20 1    
    47   43   20 1    
    48   44   20 1    
    49   31   21 1    
    50   45   21 1    
    51   46   21 1    
    52   25   22 am   
    53   47   22 1    
    54   28   23 1    
    55   29   24 1    
    56   29   25 1    
    57   28   26 ar   
    58   30   27 ar   
    59   48   31 1    
@<TRIPOS>SUBSTRUCTURE
     1 IBD215      1 GROUP   
@<TRIPOS>SET

