#    Name: 2hq9_FAD_2_INTS_M
#    Modification time : Tue Mar 25 16:54:30 2014

@<TRIPOS>MOLECULE
2hq9_FAD_2_INTS_M
  106     0    12     0     0
SMALL
NO_CHARGES


@<TRIPOS>ATOM
      1 N          24.8740   37.6645   32.6295 N.am      2 SEC2        0.0000 
      2 N          24.1560   36.9040   31.7850 N.am     10 SEL2        0.0000 
      3 N          25.5920   38.4250   33.4740 N.am      6 SEP2        0.0000 
      4 NZ         22.0910   36.4050   28.8770 N.4       3 LYC4        0.0000 
      5 NZ         22.1630   37.1000   30.1710 N.4      11 LYL4        0.0000 
      6 NZ         21.6410   36.2290   26.4160 N.4       7 LYP4        0.0000 
      7 N          22.0910   36.4050   28.8770 N.am      2 SEC2        0.0000 
      8 N          22.1630   37.1000   30.1710 N.am     10 SEL2        0.0000 
      9 N          22.0190   35.7100   27.5830 N.am      6 SEP2        0.0000 
     10 CA         26.5080   36.2590   31.0130 C.3       4 GLC5        0.0000 
     11 CA         25.4860   35.1300   29.6820 C.3      12 GLL5        0.0000 
     12 CA         27.5300   37.3880   32.3440 C.3       8 GLP5        0.0000 
     13 CA         28.2475   35.0145   29.6900 C.3       4 GLC5        0.0000 
     14 CA         27.1860   34.0820   28.1090 C.3      12 GLL5        0.0000 
     15 CA         29.3090   35.9470   31.2710 C.3       8 GLP5        0.0000 
     16 CA         28.7390   36.5410   27.4005 C.3       4 GLC5        0.0000 
     17 CA         27.4490   35.1550   27.0830 C.3      12 GLL5        0.0000 
     18 CA         30.0290   37.9270   27.7180 C.3       8 GLP5        0.0000 
     19 O          28.3665   34.2285   25.2535 O.2       1 ALC1        0.0000 
     20 O          28.6190   34.8920   26.3070 O.2       9 ALL1        0.0000 
     21 O          28.1140   33.5650   24.2000 O.2       5 ALP1        0.0000 
     22 CA         27.0865   39.5160   25.0300 C.3       4 GLC5        0.0000 
     23 CA         25.6670   38.1540   24.1810 C.3      12 GLL5        0.0000 
     24 CA         28.5060   40.8780   25.8790 C.3       8 GLP5        0.0000 
     25 CA         25.5460   39.1450   21.1505 C.3       4 GLC5        0.0000 
     26 CA         25.8150   38.7320   22.9530 C.3      12 GLL5        0.0000 
     27 CA         25.2770   39.5580   19.3480 C.3       8 GLP5        0.0000 
     28 O          26.0310   39.9040   21.3560 O.2       1 ALC1        0.0000 
     29 O          25.5500   40.0210   22.7220 O.2       9 ALL1        0.0000 
     30 O          26.5120   39.7870   19.9900 O.2       5 ALP1        0.0000 
     31 N          26.4275   38.8785   20.9670 N.am      2 SEC2        0.0000 
     32 N          26.3430   37.9700   21.9440 N.am     10 SEL2        0.0000 
     33 N          26.5120   39.7870   19.9900 N.am      6 SEP2        0.0000 
     34 CA         25.9950   38.1140   20.7545 C.3       4 GLC5        0.0000 
     35 CA         26.7130   36.6700   22.1610 C.3      12 GLL5        0.0000 
     36 CA         27.4715   36.3915   20.5355 C.3       4 GLC5        0.0000 
     37 CA         28.2300   36.1130   18.9100 C.3       8 GLP5        0.0000 
     38 CA         28.2140   37.3100   22.6055 C.3       4 GLC5        0.0000 
     39 CA         29.7150   37.9500   23.0500 C.3       8 GLP5        0.0000 
     40 CA         25.9095   35.2660   21.4270 C.3       4 GLC5        0.0000 
     41 CA         25.1060   33.8620   20.6930 C.3       8 GLP5        0.0000 
     42 CA         24.6290   36.7355   22.7090 C.3       4 GLC5        0.0000 
     43 CA         22.5450   36.8010   23.2570 C.3       8 GLP5        0.0000 
     44 N          27.3530   34.8290   23.7995 N.am      2 SEC2        0.0000 
     45 N          26.5920   36.0930   23.3990 N.am     10 SEL2        0.0000 
     46 N          28.1140   33.5650   24.2000 N.am      6 SEP2        0.0000 
     47 N          23.1905   44.4125   29.6800 N.am      2 SEC2        0.0000 
     48 N          22.1220   45.2080   29.1540 N.am     10 SEL2        0.0000 
     49 N          24.2590   43.6170   30.2060 N.am      6 SEP2        0.0000 
     50 O          22.0040   47.9430   28.9385 O.2       1 ALC1        0.0000 
     51 O          22.2410   47.1080   27.9110 O.2       9 ALL1        0.0000 
     52 O          21.7670   48.7780   29.9660 O.2       5 ALP1        0.0000 
     53 N          23.4640   49.5190   25.4880 N.am      2 SEC2        0.0000 
     54 N          22.5410   48.9360   26.6120 N.am     10 SEL2        0.0000 
     55 N          24.3870   50.1020   24.3640 N.am      6 SEP2        0.0000 
     56 N          23.5175   48.8415   24.3090 N.am      2 SEC2        0.0000 
     57 N          22.6480   47.5810   24.2540 N.am     10 SEL2        0.0000 
     58 CA         24.8465   48.4985   19.6955 C.3       4 GLC5        0.0000 
     59 CA         23.4050   47.1530   19.4290 C.3      12 GLL5        0.0000 
     60 CA         26.2880   49.8440   19.9620 C.3       8 GLP5        0.0000 
     61 CA         22.2200   48.5685   19.7685 C.3       4 GLC5        0.0000 
     62 CA         21.0350   49.9840   20.1080 C.3       8 GLP5        0.0000 
     63 CA         22.0820   43.1330   19.1490 C.3       4 GLC5        0.0000 
     64 CA         23.3780   44.2290   19.6430 C.3      12 GLL5        0.0000 
     65 CA         20.7860   42.0370   18.6550 C.3       8 GLP5        0.0000 
     66 CA         21.7920   42.2200   23.0145 C.3       4 GLC5        0.0000 
     67 CA         22.5950   43.3180   24.7620 C.3      12 GLL5        0.0000 
     68 CA         20.9890   41.1220   21.2670 C.3       8 GLP5        0.0000 
     69 CA         20.8585   44.1980   24.2005 C.3       4 GLC5        0.0000 
     70 CA         19.1220   45.0780   23.6390 C.3       8 GLP5        0.0000 
     71 CA         26.1265   42.6110   25.4420 C.3       4 GLC5        0.0000 
     72 CA         23.9460   42.8980   25.3720 C.3      12 GLL5        0.0000 
     73 CA         28.3070   42.3240   25.5120 C.3       8 GLP5        0.0000 
     74 O          25.4390   44.2410   24.3565 O.2       1 ALC1        0.0000 
     75 O          24.9280   42.9190   24.3790 O.2       9 ALL1        0.0000 
     76 O          25.9500   45.5630   24.3340 O.2       5 ALP1        0.0000 
     77 N          23.6000   43.1040   29.0895 N.am      2 SEC2        0.0000 
     78 N          22.9410   42.5910   27.9730 N.am     10 SEL2        0.0000 
     79 N          26.9510   39.0315   29.3010 N.am      2 SEC2        0.0000 
     80 N          26.1590   39.6410   30.2540 N.am     10 SEL2        0.0000 
     81 N          27.7430   38.4220   28.3480 N.am      6 SEP2        0.0000 
     82 N          26.9035   40.0315   31.4485 N.am      2 SEC2        0.0000 
     83 N          27.6480   40.4220   32.6430 N.am      6 SEP2        0.0000 
     84 NZ         24.0000   41.8380   30.5975 N.4       3 LYC4        0.0000 
     85 NZ         23.7410   40.0590   30.9890 N.4      11 LYL4        0.0000 
     86 NZ         24.2590   43.6170   30.2060 N.4       7 LYP4        0.0000 
     87 N          23.8730   41.0420   31.8235 N.am      2 SEC2        0.0000 
     88 N          23.7410   40.0590   30.9890 N.am     10 SEL2        0.0000 
     89 N          24.0050   42.0250   32.6580 N.am      6 SEP2        0.0000 
     90 CA         27.1066   33.6146   25.4738 C.3       4 GLC5        0.0000 
     91 CA         27.4900   32.3220   23.9850 C.3       8 GLP5        0.0000 
     92 CA         27.8102   37.7950   23.5135 C.3       4 GLC5        0.0000 
     93 CA         24.2253   37.2205   23.6170 C.3       4 GLC5        0.0000 
     94 CA         26.0700   36.8370   24.3870 C.3      12 GLL5        0.0000 
     95 CA         24.4408   47.6848   23.5930 C.3       4 GLC5        0.0000 
     96 CA         22.7840   46.7530   23.1370 C.3      12 GLL5        0.0000 
     97 CA         26.0040   48.3250   24.6810 C.3       8 GLP5        0.0000 
     98 CA         25.1185   46.0767   20.7058 C.3       4 GLC5        0.0000 
     99 CA         23.0850   46.5000   20.7380 C.3      12 GLL5        0.0000 
    100 CA         26.9920   45.3270   21.3280 C.3       8 GLP5        0.0000 
    101 CA         24.8873   44.2777   20.8032 C.3       4 GLC5        0.0000 
    102 CA         23.0490   45.1060   20.8460 C.3      12 GLL5        0.0000 
    103 CA         26.5610   43.8880   21.3620 C.3       8 GLP5        0.0000 
    104 CA         24.6917   44.4155   22.0245 C.3       4 GLC5        0.0000 
    105 CA         22.8900   44.5340   22.1170 C.3      12 GLL5        0.0000 
    106 CA         20.9759   45.1856   23.1480 C.3       4 GLC5        0.0000 
@<TRIPOS>BOND
@<TRIPOS>SUBSTRUCTURE
     1 ALC1       19 GROUP        1 X    ALC  0     ROOT ALC X 1
     2 SEC2        1 GROUP        1 X    SEC  0     **** SEC X 2
     3 LYC4        4 GROUP        1 X    LYC  0     **** LYC X 4
     4 GLC5       10 GROUP        1 X    GLC  0     **** GLC X 6
     5 ALP1       21 GROUP        1 Y    ALP  0     ROOT ALP Y 8
     6 SEP2        3 GROUP        1 Y    SEP  0     **** SEP Y 9
     7 LYP4        6 GROUP        1 Y    LYP  0     **** LYP Y 11
     8 GLP5       12 GROUP        1 Y    GLP  0     **** GLP Y 13
     9 ALL1       20 GROUP        1 Z    ALL  0     ROOT ALL Z 15
    10 SEL2        2 GROUP        1 Z    SEL  0     **** SEL Z 16
    11 LYL4        5 GROUP        1 Z    LYL  0     **** LYL Z 18
    12 GLL5       11 GROUP        1 Z    GLL  0     **** GLL Z 20
@<TRIPOS>SET

