#    Name: 2hq9_FAD_2_ligand
#    Modification time : Tue Mar 25 16:54:30 2014

@<TRIPOS>MOLECULE
2hq9_FAD_2_ligand
   84    89     1     0     0
SMALL
NO_CHARGES


@<TRIPOS>ATOM
      1 PA         23.6540   36.8760   30.3810 P.3       1 FAD200      0.0000 
      2 O1A        24.1560   36.9040   31.7850 O.co2     1 FAD200      0.0000 
      3 O2A        22.1630   37.1000   30.1710 O.co2     1 FAD200      0.0000 
      4 O5B        24.1490   35.5480   29.5970 O.3       1 FAD200      0.0000 
      5 C5B        25.4860   35.1300   29.6820 C.3       1 FAD200      0.0000 
      6 C4B        25.7210   34.2590   28.4530 C.3       1 FAD200      0.0000 
      7 O4B        25.1440   34.8360   27.2940 O.3       1 FAD200      0.0000 
      8 C3B        27.1860   34.0820   28.1090 C.3       1 FAD200      0.0000 
      9 O3B        27.3180   32.7970   27.5530 O.3       1 FAD200      0.0000 
     10 C2B        27.4490   35.1550   27.0830 C.3       1 FAD200      0.0000 
     11 O2B        28.6190   34.8920   26.3070 O.3       1 FAD200      0.0000 
     12 C1B        26.1290   35.1960   26.3290 C.3       1 FAD200      0.0000 
     13 N9A        25.8340   36.5240   25.6970 N.pl3     1 FAD200      0.0000 
     14 C8A        25.2800   37.6390   26.2860 C.2       1 FAD200      0.0000 
     15 N7A        25.1860   38.6200   25.3600 N.2       1 FAD200      0.0000 
     16 C5A        25.6670   38.1540   24.1810 C.ar      1 FAD200      0.0000 
     17 C6A        25.8150   38.7320   22.9530 C.ar      1 FAD200      0.0000 
     18 N6A        25.5500   40.0210   22.7220 N.pl3     1 FAD200      0.0000 
     19 N1A        26.3430   37.9700   21.9440 N.ar      1 FAD200      0.0000 
     20 C2A        26.7130   36.6700   22.1610 C.ar      1 FAD200      0.0000 
     21 N3A        26.5920   36.0930   23.3990 N.ar      1 FAD200      0.0000 
     22 C4A        26.0700   36.8370   24.3870 C.ar      1 FAD200      0.0000 
     23 N1         22.3760   44.9710   26.8860 N.2       1 FAD200      0.0000 
     24 C2         22.1950   45.7450   28.0280 C.2       1 FAD200      0.0000 
     25 O2         22.1220   45.2080   29.1540 O.2       1 FAD200      0.0000 
     26 N3         22.2410   47.1080   27.9110 N.am      1 FAD200      0.0000 
     27 C4         22.3850   47.7290   26.6640 C.2       1 FAD200      0.0000 
     28 O4         22.5410   48.9360   26.6120 O.2       1 FAD200      0.0000 
     29 C4X        22.5150   46.9790   25.5110 C.2       1 FAD200      0.0000 
     30 N5         22.6480   47.5810   24.2540 N.2       1 FAD200      0.0000 
     31 C5X        22.7840   46.7530   23.1370 C.ar      1 FAD200      0.0000 
     32 C6         22.9710   47.3360   21.8730 C.ar      1 FAD200      0.0000 
     33 C7         23.0850   46.5000   20.7380 C.ar      1 FAD200      0.0000 
     34 C7M        23.4050   47.1530   19.4290 C.3       1 FAD200      0.0000 
     35 C8         23.0490   45.1060   20.8460 C.ar      1 FAD200      0.0000 
     36 C8M        23.3780   44.2290   19.6430 C.3       1 FAD200      0.0000 
     37 C9         22.8900   44.5340   22.1170 C.ar      1 FAD200      0.0000 
     38 C9A        22.7550   45.3520   23.2570 C.ar      1 FAD200      0.0000 
     39 N10        22.6090   44.7890   24.5190 N.pl3     1 FAD200      0.0000 
     40 C10        22.5060   45.5840   25.6460 C.2       1 FAD200      0.0000 
     41 C1'        22.5950   43.3180   24.7620 C.3       1 FAD200      0.0000 
     42 C2'        23.9460   42.8980   25.3720 C.3       1 FAD200      0.0000 
     43 O2'        24.9280   42.9190   24.3790 O.3       1 FAD200      0.0000 
     44 C3'        23.8760   41.5050   26.0000 C.3       1 FAD200      0.0000 
     45 O3'        23.5310   40.5480   25.0210 O.3       1 FAD200      0.0000 
     46 C4'        22.8870   41.4330   27.1570 C.3       1 FAD200      0.0000 
     47 O4'        22.9410   42.5910   27.9730 O.3       1 FAD200      0.0000 
     48 C5'        23.1510   40.2040   27.9770 C.3       1 FAD200      0.0000 
     49 O5'        24.4650   40.2500   28.5210 O.3       1 FAD200      0.0000 
     50 P          24.7210   39.5520   29.9270 P.3       1 FAD200      0.0000 
     51 O1P        26.1590   39.6410   30.2540 O.co2     1 FAD200      0.0000 
     52 O2P        23.7410   40.0590   30.9890 O.co2     1 FAD200      0.0000 
     53 O3P        24.4280   38.0410   29.5160 O.3       1 FAD200      0.0000 
     54 H          25.6812   34.5251   30.5589 H         1 FAD200      0.0000 
     55 H          26.1865   35.9549   29.6422 H         1 FAD200      0.0000 
     56 H          25.3022   33.2754   28.6291 H         1 FAD200      0.0000 
     57 H          27.7562   34.2511   28.9651 H         1 FAD200      0.0000 
     58 H          27.5183   36.0939   27.6411 H         1 FAD200      0.0000 
     59 H          26.1782   34.4278   25.5565 H         1 FAD200      0.0000 
     60 H          25.0088   37.6962   27.2075 H         1 FAD200      0.0000 
     61 H          25.7087   40.3424   21.7885 H         1 FAD200      0.0000 
     62 H          25.2168   40.5486   23.5034 H         1 FAD200      0.0000 
     63 H          27.0946   36.1064   21.3696 H         1 FAD200      0.0000 
     64 H          22.1686   47.7073   28.7581 H         1 FAD200      0.0000 
     65 H          23.0243   48.3457   21.7706 H         1 FAD200      0.0000 
     66 H          22.8715   43.5131   22.2207 H         1 FAD200      0.0000 
     67 H          22.4551   42.7802   23.8315 H         1 FAD200      0.0000 
     68 H          21.8063   43.0550   25.4574 H         1 FAD200      0.0000 
     69 H          24.1750   43.6076   26.1672 H         1 FAD200      0.0000 
     70 H          24.8723   41.2825   26.4087 H         1 FAD200      0.0000 
     71 H          21.8852   41.3215   26.7159 H         1 FAD200      0.0000 
     72 H          23.0135   39.3222   27.3318 H         1 FAD200      0.0000 
     73 H          22.3891   40.1478   28.7701 H         1 FAD200      0.0000 
     74 H          24.2800   47.6362   19.4591 H         1 FAD200      0.0000 
     75 H          23.4637   46.4864   18.6859 H         1 FAD200      0.0000 
     76 H          22.7094   47.8223   19.1680 H         1 FAD200      0.0000 
     77 H          24.3064   44.3907   19.3084 H         1 FAD200      0.0000 
     78 H          23.3112   43.2559   19.8634 H         1 FAD200      0.0000 
     79 H          22.7569   44.3996   18.8781 H         1 FAD200      0.0000 
     80 H          28.2900   32.7078   27.3355 H         1 FAD200      0.0000 
     81 H          28.4136   34.0513   25.8061 H         1 FAD200      0.0000 
     82 H          25.2463   43.8665   24.3500 H         1 FAD200      0.0000 
     83 H          24.0242   39.7189   25.2846 H         1 FAD200      0.0000 
     84 H          22.4986   43.3080   27.4343 H         1 FAD200      0.0000 
@<TRIPOS>BOND
     1    2    1 ar   
     2    3    1 ar   
     3    4    1 1    
     4   53    1 1    
     5    5    4 1    
     6    6    5 1    
     7   54    5 1    
     8   55    5 1    
     9    7    6 1    
    10    8    6 1    
    11   56    6 1    
    12   12    7 1    
    13    9    8 1    
    14   10    8 1    
    15   57    8 1    
    16   80    9 1    
    17   11   10 1    
    18   12   10 1    
    19   58   10 1    
    20   81   11 1    
    21   13   12 1    
    22   59   12 1    
    23   14   13 1    
    24   22   13 1    
    25   15   14 2    
    26   60   14 1    
    27   16   15 1    
    28   17   16 ar   
    29   22   16 ar   
    30   18   17 1    
    31   19   17 ar   
    32   61   18 1    
    33   62   18 1    
    34   20   19 ar   
    35   21   20 ar   
    36   63   20 1    
    37   22   21 ar   
    38   24   23 1    
    39   40   23 2    
    40   25   24 2    
    41   26   24 am   
    42   27   26 am   
    43   64   26 1    
    44   28   27 2    
    45   29   27 1    
    46   30   29 2    
    47   40   29 1    
    48   31   30 1    
    49   32   31 ar   
    50   38   31 ar   
    51   33   32 ar   
    52   65   32 1    
    53   34   33 1    
    54   35   33 ar   
    55   74   34 1    
    56   75   34 1    
    57   76   34 1    
    58   36   35 1    
    59   37   35 ar   
    60   77   36 1    
    61   78   36 1    
    62   79   36 1    
    63   38   37 ar   
    64   66   37 1    
    65   39   38 1    
    66   40   39 1    
    67   41   39 1    
    68   42   41 1    
    69   67   41 1    
    70   68   41 1    
    71   43   42 1    
    72   44   42 1    
    73   69   42 1    
    74   82   43 1    
    75   45   44 1    
    76   46   44 1    
    77   70   44 1    
    78   83   45 1    
    79   47   46 1    
    80   48   46 1    
    81   71   46 1    
    82   84   47 1    
    83   49   48 1    
    84   72   48 1    
    85   73   48 1    
    86   50   49 1    
    87   51   50 ar   
    88   52   50 ar   
    89   53   50 1    
@<TRIPOS>SUBSTRUCTURE
     1 FAD200      1 GROUP   
@<TRIPOS>SET

