#    Name: 1azt_GSP_1_INTS_M
#    Modification time : Mon Mar 24 19:10:20 2014

@<TRIPOS>MOLECULE
1azt_GSP_1_INTS_M
   89     0    15     0     0
SMALL
NO_CHARGES


@<TRIPOS>ATOM
      1 N          14.8245   21.6600   42.1645 N.am      2 SEC2        0.0000 
      2 N          16.1870   22.2700   42.1950 N.am     12 SEL2        0.0000 
      3 N          13.4620   21.0500   42.1340 N.am      7 SEP2        0.0000 
      4 CA         13.8410   22.7590   43.9470 C.3       5 GLC5        0.0000 
      5 CA         15.6270   22.7240   44.8640 C.3      15 GLL5        0.0000 
      6 CA         12.0550   22.7940   43.0300 C.3      10 GLP5        0.0000 
      7 CA         16.3935   22.4755   46.6370 C.3       5 GLC5        0.0000 
      8 CA         17.1600   22.2270   48.4100 C.3      10 GLP5        0.0000 
      9 Zn         18.4025   24.2760   42.5190 Zn        4 ZIC7        0.0000 
     10 Zn         17.5250   24.1220   43.3040 Zn       14 ZIL7        0.0000 
     11 Zn         19.2800   24.4300   41.7340 Zn        9 ZIP7        0.0000 
     12 N          18.4400   24.0340   44.7045 N.am      2 SEC2        0.0000 
     13 N          17.5250   24.1220   43.3040 N.am     12 SEL2        0.0000 
     14 N          19.3550   23.9460   46.1050 N.am      7 SEP2        0.0000 
     15 N          14.7740   24.8930   41.6145 N.am      2 SEC2        0.0000 
     16 N          15.1020   24.4930   42.9240 N.am     12 SEL2        0.0000 
     17 N          14.4460   25.2930   40.3050 N.am      7 SEP2        0.0000 
     18 N          14.7835   25.7245   43.3815 N.am      2 SEC2        0.0000 
     19 N          14.4650   26.9560   43.8390 N.am      7 SEP2        0.0000 
     20 NZ         14.9275   24.0995   40.0820 N.4       3 LYC4        0.0000 
     21 NZ         15.4090   22.9060   39.8590 N.4      13 LYL4        0.0000 
     22 NZ         14.4460   25.2930   40.3050 N.4       8 LYP4        0.0000 
     23 N          14.2650   21.8830   39.6290 N.am      2 SEC2        0.0000 
     24 N          15.4090   22.9060   39.8590 N.am     12 SEL2        0.0000 
     25 N          13.1210   20.8600   39.3990 N.am      7 SEP2        0.0000 
     26 N          15.1655   22.0080   38.5425 N.am      2 SEC2        0.0000 
     27 N          14.9220   21.1100   37.2260 N.am      7 SEP2        0.0000 
     28 N          16.1415   22.9575   38.4205 N.am      2 SEC2        0.0000 
     29 N          16.8740   23.0090   36.9820 N.am      7 SEP2        0.0000 
     30 N          14.9275   24.0995   40.0820 N.am      2 SEC2        0.0000 
     31 Zn         18.5870   23.6670   41.0560 Zn        4 ZIC7        0.0000 
     32 Zn         17.8940   22.9040   40.3780 Zn       14 ZIL7        0.0000 
     33 N          18.7845   23.1900   39.2075 N.am      2 SEC2        0.0000 
     34 N          17.8940   22.9040   40.3780 N.am     12 SEL2        0.0000 
     35 N          19.6750   23.4760   38.0370 N.am      7 SEP2        0.0000 
     36 N          19.2185   22.0150   38.4690 N.am      2 SEC2        0.0000 
     37 N          18.7620   20.5540   38.9010 N.am     12 SEL2        0.0000 
     38 N          19.7775   20.9690   37.9075 N.am      2 SEC2        0.0000 
     39 N          20.7930   21.3840   36.9140 N.am      7 SEP2        0.0000 
     40 N          19.2130   19.7450   38.0290 N.am      2 SEC2        0.0000 
     41 N          19.6640   18.9360   37.1570 N.am      7 SEP2        0.0000 
     42 N          15.7570   20.9385   38.7420 N.am      2 SEC2        0.0000 
     43 N          16.5920   20.7670   40.2580 N.am     12 SEL2        0.0000 
     44 CA         15.1265   18.7460   40.8105 C.3       5 GLC5        0.0000 
     45 CA         16.4870   17.7180   40.1300 C.3      15 GLL5        0.0000 
     46 CA         13.7660   19.7740   41.4910 C.3      10 GLP5        0.0000 
     47 CA         16.0045   14.6345   40.0780 C.3       5 GLC5        0.0000 
     48 CA         16.9770   16.3000   39.9520 C.3      15 GLL5        0.0000 
     49 CA         15.0320   12.9690   40.2040 C.3      10 GLP5        0.0000 
     50 CA         19.1130   15.8290   41.9325 C.3       5 GLC5        0.0000 
     51 CA         18.4620   15.9880   39.8310 C.3      15 GLL5        0.0000 
     52 CA         19.7640   15.6700   44.0340 C.3      10 GLP5        0.0000 
     53 O          19.9050   14.1745   40.4580 O.2       1 ALC1        0.0000 
     54 O          18.6460   14.7600   40.4810 O.2      11 ALL1        0.0000 
     55 O          21.1640   13.5890   40.4350 O.2       6 ALP1        0.0000 
     56 CA         19.5700   16.8850   36.7220 C.3       5 GLC5        0.0000 
     57 CA         18.5960   15.6920   38.3340 C.3      15 GLL5        0.0000 
     58 CA         20.5440   18.0780   35.1100 C.3      10 GLP5        0.0000 
     59 CA         20.3980   14.3945   38.3365 C.3       5 GLC5        0.0000 
     60 CA         22.2000   13.0970   38.3390 C.3      10 GLP5        0.0000 
     61 O          21.0355   15.3125   37.7055 O.2       1 ALC1        0.0000 
     62 O          19.6990   14.8650   37.9570 O.2      11 ALL1        0.0000 
     63 O          22.3720   15.7600   37.4540 O.2       6 ALP1        0.0000 
     64 CA         16.1565   14.0395   39.0720 C.3       5 GLC5        0.0000 
     65 CA         17.2810   15.1100   37.9400 C.3      15 GLL5        0.0000 
     66 N          15.3365   17.8390   34.1815 N.am      2 SEC2        0.0000 
     67 N          16.3370   16.8860   34.9010 N.am     12 SEL2        0.0000 
     68 N          14.3360   18.7920   33.4620 N.am      7 SEP2        0.0000 
     69 CA         14.3235   15.7735   34.4860 C.3       5 GLC5        0.0000 
     70 CA         16.1210   15.5670   34.5480 C.3      15 GLL5        0.0000 
     71 CA         12.5260   15.9800   34.4240 C.3      10 GLP5        0.0000 
     72 CA         17.0415   17.2240   33.5465 C.3       5 GLC5        0.0000 
     73 CA         17.9620   18.8810   32.5450 C.3      10 GLP5        0.0000 
     74 N          16.2845   16.4920   31.5075 N.am      2 SEC2        0.0000 
     75 N          15.2760   15.5290   32.3000 N.am     12 SEL2        0.0000 
     76 N          17.2930   17.4550   30.7150 N.am      7 SEP2        0.0000 
     77 O          14.7165   13.0175   32.3635 O.2       1 ALC1        0.0000 
     78 O          15.5230   13.6460   33.4400 O.2      11 ALL1        0.0000 
     79 O          13.9100   12.3890   31.2870 O.2       6 ALP1        0.0000 
     80 O          15.3130   12.1425   32.6355 O.2       1 ALC1        0.0000 
     81 O          15.1030   10.6390   31.8310 O.2       6 ALP1        0.0000 
     82 O          15.3370   11.1365   33.1485 O.2       1 ALC1        0.0000 
     83 O          15.5710   11.6340   34.4660 O.2      11 ALL1        0.0000 
     84 CA         14.7330   15.6275   36.1880 C.3       5 GLC5        0.0000 
     85 CA         16.4280   14.7680   35.5870 C.3      15 GLL5        0.0000 
     86 CA         13.0380   16.4870   36.7890 C.3      10 GLP5        0.0000 
     87 CA         18.8593   14.8890   36.2190 C.3       5 GLC5        0.0000 
     88 CA         19.7800   14.3770   34.3010 C.3      10 GLP5        0.0000 
     89 CA         18.0272   14.7723   34.6843 C.3       5 GLC5        0.0000 
@<TRIPOS>BOND
@<TRIPOS>SUBSTRUCTURE
     1 ALC1       53 GROUP        1 X    ALC  0     ROOT ALC X 1
     2 SEC2        1 GROUP        1 X    SEC  0     **** SEC X 2
     3 LYC4       20 GROUP        1 X    LYC  0     **** LYC X 4
     4 ZIC7        9 GROUP        1 X    ZIC  0     **** ZIC X 5
     5 GLC5        4 GROUP        1 X    GLC  0     **** GLC X 6
     6 ALP1       55 GROUP        1 Y    ALP  0     ROOT ALP Y 8
     7 SEP2        3 GROUP        1 Y    SEP  0     **** SEP Y 9
     8 LYP4       22 GROUP        1 Y    LYP  0     **** LYP Y 11
     9 ZIP7       11 GROUP        1 Y    ZIP  0     **** ZIP Y 12
    10 GLP5        6 GROUP        1 Y    GLP  0     **** GLP Y 13
    11 ALL1       54 GROUP        1 Z    ALL  0     ROOT ALL Z 15
    12 SEL2        2 GROUP        1 Z    SEL  0     **** SEL Z 16
    13 LYL4       21 GROUP        1 Z    LYL  0     **** LYL Z 18
    14 ZIL7       10 GROUP        1 Z    ZIL  0     **** ZIL Z 19
    15 GLL5        5 GROUP        1 Z    GLL  0     **** GLL Z 20
@<TRIPOS>SET

