#    Name: 1azt_GSP_1_ligand
#    Modification time : Mon Mar 24 19:10:20 2014

@<TRIPOS>MOLECULE
1azt_GSP_1_ligand
   45    47     1     0     0
SMALL
NO_CHARGES


@<TRIPOS>ATOM
      1 PG         16.1580   23.5430   43.2970 P.3       1 GSP413      0.0000 
      2 O3B        16.1870   22.2700   42.1950 O.3       1 GSP413      0.0000 
      3 S1G        15.6270   22.7240   44.8640 S.2       1 GSP413      0.0000 
      4 O2G        17.5250   24.1220   43.3040 O.3       1 GSP413      0.0000 
      5 O3G        15.1020   24.4930   42.9240 O.3       1 GSP413      0.0000 
      6 PB         16.5660   22.3120   40.5910 P.3       1 GSP413      0.0000 
      7 O1B        15.4090   22.9060   39.8590 O.co2     1 GSP413      0.0000 
      8 O2B        17.8940   22.9040   40.3780 O.co2     1 GSP413      0.0000 
      9 PA         17.9140   19.8620   39.9120 P.3       1 GSP413      0.0000 
     10 O1A        18.7620   20.5540   38.9010 O.co2     1 GSP413      0.0000 
     11 O2A        18.5300   19.3420   41.1650 O.co2     1 GSP413      0.0000 
     12 O3A        16.5920   20.7670   40.2580 O.3       1 GSP413      0.0000 
     13 O5'        17.0710   18.6630   39.2060 O.3       1 GSP413      0.0000 
     14 C5'        16.4870   17.7180   40.1300 C.3       1 GSP413      0.0000 
     15 C4'        16.9770   16.3000   39.9520 C.3       1 GSP413      0.0000 
     16 O4'        16.3960   15.7550   38.8000 O.3       1 GSP413      0.0000 
     17 C3'        18.4620   15.9880   39.8310 C.3       1 GSP413      0.0000 
     18 O3'        18.6460   14.7600   40.4810 O.3       1 GSP413      0.0000 
     19 C2'        18.5960   15.6920   38.3340 C.3       1 GSP413      0.0000 
     20 O2'        19.6990   14.8650   37.9570 O.3       1 GSP413      0.0000 
     21 C1'        17.2810   15.1100   37.9400 C.3       1 GSP413      0.0000 
     22 N9         16.8480   15.5880   36.6150 N.pl3     1 GSP413      0.0000 
     23 C8         16.7640   16.8710   36.1260 C.2       1 GSP413      0.0000 
     24 N7         16.3370   16.8860   34.9010 N.2       1 GSP413      0.0000 
     25 C5         16.1210   15.5670   34.5480 C.2       1 GSP413      0.0000 
     26 C6         15.6280   15.0000   33.3500 C.2       1 GSP413      0.0000 
     27 O6         15.2760   15.5290   32.3000 O.2       1 GSP413      0.0000 
     28 N1         15.5230   13.6460   33.4400 N.am      1 GSP413      0.0000 
     29 C2         15.8430   12.9150   34.5350 C.2       1 GSP413      0.0000 
     30 N2         15.5710   11.6340   34.4660 N.pl3     1 GSP413      0.0000 
     31 N3         16.3220   13.4300   35.6590 N.2       1 GSP413      0.0000 
     32 C4         16.4280   14.7680   35.5870 C.2       1 GSP413      0.0000 
     33 H          15.3772   17.7122   40.0343 H         1 GSP413      0.0000 
     34 H          16.6913   18.0223   41.1819 H         1 GSP413      0.0000 
     35 H          16.5981   15.6968   40.8213 H         1 GSP413      0.0000 
     36 H          19.0284   16.7559   40.1064 H         1 GSP413      0.0000 
     37 H          18.6545   16.6826   37.8365 H         1 GSP413      0.0000 
     38 H          17.2630   14.0937   38.0256 H         1 GSP413      0.0000 
     39 H          17.0094   17.6583   36.6757 H         1 GSP413      0.0000 
     40 H          15.1594   13.1204   32.5781 H         1 GSP413      0.0000 
     41 H          15.8150   11.0885   35.2678 H         1 GSP413      0.0000 
     42 H          15.1445   11.3198   33.6179 H         1 GSP413      0.0000 
     43 H          14.5470   24.0101   42.2467 H         1 GSP413      0.0000 
     44 H          19.3510   14.2895   39.9503 H         1 GSP413      0.0000 
     45 H          20.4712   15.4927   37.8585 H         1 GSP413      0.0000 
@<TRIPOS>BOND
     1    2    1 1    
     2    3    1 2    
     3    4    1 1    
     4    5    1 1    
     5    6    2 1    
     6   43    5 1    
     7    7    6 ar   
     8    8    6 ar   
     9   12    6 1    
    10   10    9 ar   
    11   11    9 ar   
    12   12    9 1    
    13   13    9 1    
    14   14   13 1    
    15   15   14 1    
    16   33   14 1    
    17   34   14 1    
    18   16   15 1    
    19   17   15 1    
    20   35   15 1    
    21   21   16 1    
    22   18   17 1    
    23   19   17 1    
    24   36   17 1    
    25   44   18 1    
    26   20   19 1    
    27   21   19 1    
    28   37   19 1    
    29   45   20 1    
    30   22   21 1    
    31   38   21 1    
    32   23   22 1    
    33   32   22 1    
    34   24   23 2    
    35   39   23 1    
    36   25   24 1    
    37   26   25 1    
    38   32   25 2    
    39   27   26 2    
    40   28   26 am   
    41   29   28 1    
    42   40   28 1    
    43   30   29 1    
    44   31   29 2    
    45   41   30 1    
    46   42   30 1    
    47   32   31 1    
@<TRIPOS>SUBSTRUCTURE
     1 GSP413      1 GROUP   
@<TRIPOS>SET

