#    Name: 1YRY_1_CAVITY_N1_6.mol2
#    Modification time : Mon Mar 10 21:22:08 2014

@<TRIPOS>MOLECULE
1YRY_1_CAVITY_N1_6.mol2
   83     0     6     0     0
SMALL
NO_CHARGES


@<TRIPOS>ATOM
      1 N          54.9633   51.2702   33.3001 N.2       2 ALA2        0.0000 
      2 DU         53.6949   51.8246   33.8778 H         6 CUB7        0.0000 
      3 NZ         52.4264   52.3789   34.4555 N.2       3 LYS4        0.0000 
      4 CZ         54.2809   51.0875   31.9770 C.ar      4 PHE5        0.0000 
      5 CA         53.0124   51.6418   32.5547 C.3       5 GLY6        0.0000 
      6 CZ         54.0878   49.2478   25.5288 C.ar      4 PHE5        0.0000 
      7 N          52.8193   49.8021   26.1065 N.2       2 ALA2        0.0000 
      8 N          51.5509   50.3565   26.6842 N.2       2 ALA2        0.0000 
      9 CA         54.6737   48.5107   23.6279 C.3       5 GLY6        0.0000 
     10 N          53.4053   49.0651   24.2057 N.2       2 ALA2        0.0000 
     11 CA         55.2272   50.0712   35.0301 C.3       5 GLY6        0.0000 
     12 DU         53.9588   50.6255   35.6078 H         6 CUB7        0.0000 
     13 N          54.5448   49.8885   33.7069 N.2       2 ALA2        0.0000 
     14 DU         53.2763   50.4428   34.2846 H         6 CUB7        0.0000 
     15 N          55.1307   49.1514   31.8060 N.2       2 ALA2        0.0000 
     16 N          53.8623   49.7057   32.3837 N.2       2 ALA2        0.0000 
     17 CA         52.5938   50.2600   32.9614 C.3       5 GLY6        0.0000 
     18 CZ         53.1798   49.5230   31.0605 C.ar      4 PHE5        0.0000 
     19 CA         51.9113   50.0773   31.6382 C.3       5 GLY6        0.0000 
     20 NZ         55.6201   47.4945   26.6811 N.2       3 LYS4        0.0000 
     21 CZ         54.3517   48.0488   27.2588 C.ar      4 PHE5        0.0000 
     22 CZ         53.0832   48.6031   27.8365 C.ar      4 PHE5        0.0000 
     23 CZ         51.8148   49.1574   28.4142 C.ar      4 PHE5        0.0000 
     24 CZ         50.5463   49.7118   28.9919 C.ar      4 PHE5        0.0000 
     25 NZ         54.9376   47.3117   25.3579 N.2       3 LYS4        0.0000 
     26 O          53.6692   47.8660   25.9356 O.2       2 ALA2        0.0000 
     27 N          52.4007   48.4204   26.5133 N.2       2 ALA2        0.0000 
     28 OG         51.1323   48.9747   27.0910 O.2       1 SER1        0.0000 
     29 OG         49.8638   49.5290   27.6687 O.2       1 SER1        0.0000 
     30 O          52.9867   47.6833   24.6124 O.2       2 ALA2        0.0000 
     31 N          51.7182   48.2376   25.1901 N.2       2 ALA2        0.0000 
     32 OG         50.4498   48.7919   25.7678 O.2       1 SER1        0.0000 
     33 CZ         53.5402   49.2438   36.0145 C.ar      4 PHE5        0.0000 
     34 CZ         54.1262   48.5067   34.1137 C.ar      4 PHE5        0.0000 
     35 OG         52.8577   49.0610   34.6914 O.2       1 SER1        0.0000 
     36 O          51.5892   49.6153   35.2691 O.2       2 ALA2        0.0000 
     37 OG         53.4437   48.3239   32.7905 O.2       1 SER1        0.0000 
     38 OG         52.1752   48.8783   33.3682 O.2       1 SER1        0.0000 
     39 CA         54.0296   47.5868   30.8896 C.3       5 GLY6        0.0000 
     40 CZ         52.7612   48.1412   31.4673 C.ar      4 PHE5        0.0000 
     41 O          51.4927   48.6955   32.0450 O.2       2 ALA2        0.0000 
     42 CA         54.6156   46.8498   28.9887 C.3       5 GLY6        0.0000 
     43 CZ         53.3471   47.4041   29.5664 C.ar      4 PHE5        0.0000 
     44 CZ         52.0787   47.9584   30.1441 C.ar      4 PHE5        0.0000 
     45 O          50.8102   48.5127   30.7218 O.2       2 ALA2        0.0000 
     46 N          53.9331   46.6670   27.6655 N.2       2 ALA2        0.0000 
     47 CZ         52.6646   47.2213   28.2432 C.ar      4 PHE5        0.0000 
     48 DU         51.3962   47.7757   28.8209 H         6 CUB7        0.0000 
     49 DU         50.1277   48.3300   29.3987 H         6 CUB7        0.0000 
     50 CA         48.8593   48.8843   29.9764 C.3       5 GLY6        0.0000 
     51 N          53.2506   46.4843   26.3424 N.2       2 ALA2        0.0000 
     52 N          51.9821   47.0386   26.9201 N.2       2 ALA2        0.0000 
     53 OG         50.7137   47.5929   27.4978 O.2       1 SER1        0.0000 
     54 OG         49.4452   48.1472   28.0755 O.2       1 SER1        0.0000 
     55 O          51.2996   46.8558   25.5969 O.2       2 ALA2        0.0000 
     56 CA         53.6110   46.2051   31.2964 C.3       5 GLY6        0.0000 
     57 OG         52.3426   46.7594   31.8741 O.2       1 SER1        0.0000 
     58 O          51.0741   47.3137   32.4518 O.2       2 ALA2        0.0000 
     59 O          54.1970   45.4680   29.3955 O.2       2 ALA2        0.0000 
     60 CA         52.9285   46.0223   29.9732 C.3       5 GLY6        0.0000 
     61 DU         51.6601   46.5766   30.5509 H         6 CUB7        0.0000 
     62 OG         50.3916   47.1310   31.1286 O.2       1 SER1        0.0000 
     63 O          49.1232   47.6853   31.7063 O.2       2 ALA2        0.0000 
     64 CA         53.5145   45.2852   28.0723 C.3       5 GLY6        0.0000 
     65 N          52.2460   45.8396   28.6500 N.2       2 ALA2        0.0000 
     66 N          50.9776   46.3939   29.2277 N.2       2 ALA2        0.0000 
     67 CA         49.7091   46.9482   29.8054 C.3       5 GLY6        0.0000 
     68 CA         48.4407   47.5025   30.3831 C.3       5 GLY6        0.0000 
     69 CA         53.1924   44.8233   31.7031 C.3       5 GLY6        0.0000 
     70 OG         51.9240   45.3776   32.2808 O.2       1 SER1        0.0000 
     71 OG         50.6555   45.9319   32.8585 O.2       1 SER1        0.0000 
     72 O          52.5099   44.6405   30.3799 O.2       2 ALA2        0.0000 
     73 N          51.2415   45.1949   30.9576 N.2       2 ALA2        0.0000 
     74 OG         49.9730   45.7492   31.5354 O.2       1 SER1        0.0000 
     75 CA         49.2905   45.5664   30.2122 C.3       5 GLY6        0.0000 
     76 N          50.2369   44.5502   33.2653 N.2       2 ALA2        0.0000 
     77 OG         52.0913   43.2587   30.7867 O.2       1 SER1        0.0000 
     78 N          50.8229   43.8131   31.3644 N.2       2 ALA2        0.0000 
     79 OG         49.5544   44.3674   31.9421 O.2       1 SER1        0.0000 
     80 N          50.1404   43.6303   30.0412 N.2       2 ALA2        0.0000 
     81 O          48.8719   44.1846   30.6189 O.2       2 ALA2        0.0000 
     82 OG         50.4043   42.4313   31.7712 O.2       1 SER1        0.0000 
     83 O          49.1358   42.9856   32.3489 O.2       2 ALA2        0.0000 
@<TRIPOS>BOND
@<TRIPOS>SUBSTRUCTURE
     1 SER1       28 GROUP   
     2 ALA2        1 GROUP   
     3 LYS4        3 GROUP   
     4 PHE5        4 GROUP   
     5 GLY6        5 GROUP   
     6 CUB7        2 GROUP   
@<TRIPOS>SET

