#    Name: 1yry_MSG_1_INTS_M
#    Modification time : Mon Apr  7 15:54:00 2014

@<TRIPOS>MOLECULE
1yry_MSG_1_INTS_M
   54     0     9     0     0
SMALL
NO_CHARGES


@<TRIPOS>ATOM
      1 CA         50.0045   50.1955   31.7575 C.3       3 GLC5        0.0000 
      2 CA         50.3930   48.7570   31.0360 C.3       9 GLL5        0.0000 
      3 CA         49.6160   51.6340   32.4790 C.3       6 GLP5        0.0000 
      4 CA         48.6720   46.6170   31.7295 C.3       3 GLC5        0.0000 
      5 CA         50.6120   47.2550   31.2720 C.3       9 GLL5        0.0000 
      6 CA         46.7320   45.9790   32.1870 C.3       6 GLP5        0.0000 
      7 CA         49.6420   45.5335   28.5680 C.3       3 GLC5        0.0000 
      8 CA         51.6140   46.2070   29.2440 C.3       9 GLL5        0.0000 
      9 CA         47.6700   44.8600   27.8920 C.3       6 GLP5        0.0000 
     10 CA         51.0990   45.9840   26.1555 C.3       3 GLC5        0.0000 
     11 CA         51.0830   47.8470   27.4170 C.3       9 GLL5        0.0000 
     12 CA         51.1150   44.1210   24.8940 C.3       6 GLP5        0.0000 
     13 CA         51.0930   46.1170   24.9640 C.3       3 GLC5        0.0000 
     14 CA         51.0710   48.1130   25.0340 C.3       9 GLL5        0.0000 
     15 CA         51.7750   47.2885   23.6480 C.3       3 GLC5        0.0000 
     16 CA         52.4790   46.4640   22.2620 C.3       6 GLP5        0.0000 
     17 CA         49.0385   47.9295   25.0120 C.3       3 GLC5        0.0000 
     18 CA         47.0060   47.7460   24.9900 C.3       6 GLP5        0.0000 
     19 CA         50.2990   49.4710   23.4820 C.3       3 GLC5        0.0000 
     20 CA         49.5270   50.8290   21.9300 C.3       6 GLP5        0.0000 
     21 CA         55.2900   46.8640   24.2180 C.3       3 GLC5        0.0000 
     22 CA         54.1250   48.1710   25.3600 C.3       9 GLL5        0.0000 
     23 CA         56.4550   45.5570   23.0760 C.3       6 GLP5        0.0000 
     24 CA         53.2740   47.8825   23.1080 C.3       3 GLC5        0.0000 
     25 CA         54.0690   49.3010   23.9540 C.3       9 GLL5        0.0000 
     26 CA         54.8540   48.9430   22.4475 C.3       3 GLC5        0.0000 
     27 CA         55.6390   48.5850   20.9410 C.3       6 GLP5        0.0000 
     28 CA         56.6790   45.4955   25.7395 C.3       3 GLC5        0.0000 
     29 CA         55.3860   46.5350   26.7740 C.3       9 GLL5        0.0000 
     30 CA         57.9720   44.4560   24.7050 C.3       6 GLP5        0.0000 
     31 CA         55.1955   44.7800   27.0440 C.3       3 GLC5        0.0000 
     32 CA         55.0050   43.0250   27.3140 C.3       6 GLP5        0.0000 
     33 CA         56.1435   47.1090   28.3165 C.3       3 GLC5        0.0000 
     34 CA         56.9010   47.6830   29.8590 C.3       6 GLP5        0.0000 
     35 O          57.7230   46.5605   26.6680 O.2       1 ALC1        0.0000 
     36 O          56.6400   45.8250   27.0050 O.2       7 ALL1        0.0000 
     37 O          58.8060   47.2960   26.3310 O.2       4 ALP1        0.0000 
     38 CA         54.0995   45.0215   27.3240 C.3       3 GLC5        0.0000 
     39 CA         53.1940   47.0180   27.3340 C.3       9 GLL5        0.0000 
     40 N          54.3005   43.8555   30.0580 N.am      2 SEC2        0.0000 
     41 N          53.1680   44.8040   30.4380 N.am      8 SEL2        0.0000 
     42 N          55.4330   42.9070   29.6780 N.am      5 SEP2        0.0000 
     43 CA         53.5020   46.2665   33.1355 C.3       3 GLC5        0.0000 
     44 CA         52.0830   46.7890   31.6330 C.3       9 GLL5        0.0000 
     45 CA         54.9210   45.7440   34.6380 C.3       6 GLP5        0.0000 
     46 N          52.4165   46.0275   34.0165 N.am      2 SEC2        0.0000 
     47 N          52.1120   45.7500   32.6990 N.am      8 SEL2        0.0000 
     48 N          52.7210   46.3050   35.3340 N.am      5 SEP2        0.0000 
     49 CA         52.1167   45.7855   25.8580 C.3       3 GLC5        0.0000 
     50 CA         53.0315   47.2452   24.0485 C.3       3 GLC5        0.0000 
     51 CA         53.0430   47.8820   26.3100 C.3       9 GLL5        0.0000 
     52 CA         54.4475   46.6305   31.1415 C.3       3 GLC5        0.0000 
     53 CA         52.7190   46.1910   30.2950 C.3       9 GLL5        0.0000 
     54 CA         56.4940   46.7710   31.3190 C.3       6 GLP5        0.0000 
@<TRIPOS>BOND
@<TRIPOS>SUBSTRUCTURE
     1 ALC1       35 GROUP        1 X    ALC  0     ROOT ALC X 1
     2 SEC2       40 GROUP        1 X    SEC  0     **** SEC X 2
     3 GLC5        1 GROUP        1 X    GLC  0     **** GLC X 6
     4 ALP1       37 GROUP        1 Y    ALP  0     ROOT ALP Y 8
     5 SEP2       42 GROUP        1 Y    SEP  0     **** SEP Y 9
     6 GLP5        3 GROUP        1 Y    GLP  0     **** GLP Y 13
     7 ALL1       36 GROUP        1 Z    ALL  0     ROOT ALL Z 15
     8 SEL2       41 GROUP        1 Z    SEL  0     **** SEL Z 16
     9 GLL5        2 GROUP        1 Z    GLL  0     **** GLL Z 20
@<TRIPOS>SET

