#    Name: 1yry_MSG_1_ligand
#    Modification time : Mon Apr  7 15:54:00 2014

@<TRIPOS>MOLECULE
1yry_MSG_1_ligand
   36    38     1     0     0
SMALL
NO_CHARGES


@<TRIPOS>ATOM
      1 O5'        50.9490   49.2390   29.7760 O.3       1 MSG290      0.0000 
      2 C5'        50.3930   48.7570   31.0360 C.3       1 MSG290      0.0000 
      3 C4'        50.6120   47.2550   31.2720 C.3       1 MSG290      0.0000 
      4 O4'        50.3820   46.7710   29.8970 O.3       1 MSG290      0.0000 
      5 C1'        51.6140   46.2070   29.2440 C.3       1 MSG290      0.0000 
      6 N9         51.9390   46.9950   28.0520 N.pl3     1 MSG290      0.0000 
      7 C8         51.0830   47.8470   27.4170 C.ar      1 MSG290      0.0000 
      8 N7         51.7630   48.4430   26.2810 N.pl3     1 MSG290      0.0000 
      9 C1         51.0710   48.1130   25.0340 C.3       1 MSG290      0.0000 
     10 C5         53.0430   47.8820   26.3100 C.ar      1 MSG290      0.0000 
     11 C6         54.1250   48.1710   25.3600 C.ar      1 MSG290      0.0000 
     12 S6         54.0690   49.3010   23.9540 S.3       1 MSG290      0.0000 
     13 N1         55.2800   47.4250   25.6990 N.ar      1 MSG290      0.0000 
     14 C2         55.3860   46.5350   26.7740 C.ar      1 MSG290      0.0000 
     15 N2         56.6400   45.8250   27.0050 N.pl3     1 MSG290      0.0000 
     16 N3         54.3320   46.3300   27.5980 N.ar      1 MSG290      0.0000 
     17 C4         53.1940   47.0180   27.3340 C.ar      1 MSG290      0.0000 
     18 C2'        52.7190   46.1910   30.2950 C.3       1 MSG290      0.0000 
     19 O2'        53.1680   44.8040   30.4380 O.3       1 MSG290      0.0000 
     20 C3'        52.0830   46.7890   31.6330 C.3       1 MSG290      0.0000 
     21 O3'        52.1120   45.7500   32.6990 O.3       1 MSG290      0.0000 
     22 H          49.3026   48.9485   31.0814 H         1 MSG290      0.0000 
     23 H          50.8379   49.3000   31.8934 H         1 MSG290      0.0000 
     24 H          49.9157   46.8620   31.9104 H         1 MSG290      0.0000 
     25 H          51.3958   45.1773   28.9711 H         1 MSG290      0.0000 
     26 H          50.1846   48.0501   27.6413 H         1 MSG290      0.0000 
     27 H          56.5668   44.9424   27.4694 H         1 MSG290      0.0000 
     28 H          57.4694   46.2795   26.6799 H         1 MSG290      0.0000 
     29 H          53.4936   46.8410   29.9825 H         1 MSG290      0.0000 
     30 H          52.6519   47.6474   31.8911 H         1 MSG290      0.0000 
     31 H          51.5260   48.5146   24.2392 H         1 MSG290      0.0000 
     32 H          51.0316   47.1255   24.8812 H         1 MSG290      0.0000 
     33 H          50.1287   48.4477   25.0324 H         1 MSG290      0.0000 
     34 H          50.3168   48.9135   29.0729 H         1 MSG290      0.0000 
     35 H          52.3772   44.2483   30.1813 H         1 MSG290      0.0000 
     36 H          52.3858   44.9087   32.2328 H         1 MSG290      0.0000 
@<TRIPOS>BOND
     1    2    1 1    
     2   34    1 1    
     3    3    2 1    
     4   22    2 1    
     5   23    2 1    
     6    4    3 1    
     7   20    3 1    
     8   24    3 1    
     9    5    4 1    
    10    6    5 1    
    11   18    5 1    
    12   25    5 1    
    13    7    6 1    
    14   17    6 1    
    15    8    7 1    
    16   26    7 1    
    17    9    8 1    
    18   10    8 1    
    19   31    9 1    
    20   32    9 1    
    21   33    9 1    
    22   11   10 ar   
    23   17   10 ar   
    24   12   11 1    
    25   13   11 ar   
    26   14   13 ar   
    27   15   14 1    
    28   16   14 ar   
    29   27   15 1    
    30   28   15 1    
    31   17   16 ar   
    32   19   18 1    
    33   20   18 1    
    34   29   18 1    
    35   35   19 1    
    36   21   20 1    
    37   30   20 1    
    38   36   21 1    
@<TRIPOS>SUBSTRUCTURE
     1 MSG290      1 GROUP   
@<TRIPOS>SET

