#    Name: 3ml8_ML8_1_INTS_M
#    Modification time : Mon Mar 24 23:24:54 2014

@<TRIPOS>MOLECULE
3ml8_ML8_1_INTS_M
   92     0     9     0     0
SMALL
NO_CHARGES


@<TRIPOS>ATOM
      1 CA         40.4440   14.1015   34.5315 C.3       3 GLC5        0.0000 
      2 CA         40.2380   13.7910   32.4470 C.3       9 GLL5        0.0000 
      3 CA         40.6500   14.4120   36.6160 C.3       6 GLP5        0.0000 
      4 CA         38.5540   11.2440   32.9410 C.3       3 GLC5        0.0000 
      5 CA         39.6270   12.7330   31.7470 C.3       9 GLL5        0.0000 
      6 CA         37.4810    9.7550   34.1350 C.3       6 GLP5        0.0000 
      7 CA         42.7915   11.0450   30.8900 C.3       3 GLC5        0.0000 
      8 CA         41.6660   12.4480   30.4330 C.3       9 GLL5        0.0000 
      9 CA         43.9170    9.6420   31.3470 C.3       6 GLP5        0.0000 
     10 CA         49.7920   12.9485   29.8150 C.3       3 GLC5        0.0000 
     11 CA         48.5040   14.0890   28.8870 C.3       9 GLL5        0.0000 
     12 CA         51.0800   11.8080   30.7430 C.3       6 GLP5        0.0000 
     13 CA         49.0560   12.8365   27.2075 C.3       3 GLC5        0.0000 
     14 CA         49.6080   11.5840   25.5280 C.3       6 GLP5        0.0000 
     15 CA         48.1165   15.7095   28.1925 C.3       3 GLC5        0.0000 
     16 CA         47.7290   17.3300   27.4980 C.3       6 GLP5        0.0000 
     17 CA         43.4540   11.4700   28.9290 C.3       3 GLC5        0.0000 
     18 CA         44.5090   13.1680   29.9570 C.3       9 GLL5        0.0000 
     19 CA         42.3990    9.7720   27.9010 C.3       6 GLP5        0.0000 
     20 CA         43.6450   13.9780   28.2515 C.3       3 GLC5        0.0000 
     21 CA         42.7810   14.7880   26.5460 C.3       6 GLP5        0.0000 
     22 CA         43.1530   15.5905   29.5590 C.3       3 GLC5        0.0000 
     23 CA         43.7710   13.9470   30.7860 C.3       9 GLL5        0.0000 
     24 CA         42.5350   17.2340   28.3320 C.3       6 GLP5        0.0000 
     25 CA         47.3825   17.5710   35.1155 C.3       3 GLC5        0.0000 
     26 CA         46.7590   18.1170   33.3850 C.3       9 GLL5        0.0000 
     27 CA         48.0060   17.0250   36.8460 C.3       6 GLP5        0.0000 
     28 CA         45.9440   17.3920   29.2130 C.3       3 GLC5        0.0000 
     29 CA         45.8050   18.0450   31.1630 C.3       9 GLL5        0.0000 
     30 CA         46.0830   16.7390   27.2630 C.3       6 GLP5        0.0000 
     31 CA         44.1700   17.6395   29.7475 C.3       3 GLC5        0.0000 
     32 CA         46.7020   16.2725   34.9215 C.3       3 GLC5        0.0000 
     33 CA         46.8160   16.6580   32.9510 C.3       9 GLL5        0.0000 
     34 CA         46.5880   15.8870   36.8920 C.3       6 GLP5        0.0000 
     35 CA         48.8560   15.9720   33.2215 C.3       3 GLC5        0.0000 
     36 CA         50.8960   15.2860   33.4920 C.3       6 GLP5        0.0000 
     37 CA         46.6845   14.8140   33.4435 C.3       3 GLC5        0.0000 
     38 CA         46.5530   12.9700   33.9360 C.3       6 GLP5        0.0000 
     39 CA         47.1450   17.0215   29.4630 C.3       3 GLC5        0.0000 
     40 CA         46.5610   16.7130   31.4280 C.3       9 GLL5        0.0000 
     41 CA         45.0835   10.2420   27.2025 C.3       3 GLC5        0.0000 
     42 CA         46.1190   11.4020   28.0970 C.3       9 GLL5        0.0000 
     43 CA         44.0480    9.0820   26.3080 C.3       6 GLP5        0.0000 
     44 CA         45.0180   10.5220   29.7220 C.3       3 GLC5        0.0000 
     45 CA         45.8650   12.6630   26.4220 C.3       3 GLC5        0.0000 
     46 CA         45.6110   13.9240   24.7470 C.3       6 GLP5        0.0000 
     47 CA         51.3850   15.0635   31.1710 C.3       3 GLC5        0.0000 
     48 CA         50.6420   15.1800   29.4370 C.3       9 GLL5        0.0000 
     49 CA         52.1280   14.9470   32.9050 C.3       6 GLP5        0.0000 
     50 CA         50.8610   13.4940   30.0900 C.3       3 GLC5        0.0000 
     51 CA         50.7280   15.5300   27.2415 C.3       3 GLC5        0.0000 
     52 CA         50.8140   15.8800   25.0460 C.3       6 GLP5        0.0000 
     53 CA         49.1855   16.2550   28.4675 C.3       3 GLC5        0.0000 
     54 CA         38.1545    9.9695   29.7560 C.3       3 GLC5        0.0000 
     55 CA         39.6980   10.9430   29.9960 C.3       9 GLL5        0.0000 
     56 CA         36.6110    8.9960   29.5160 C.3       6 GLP5        0.0000 
     57 CA         41.0485   10.3575   28.9485 C.3       3 GLC5        0.0000 
     58 N          48.8080   11.8200   28.1135 N.am      2 SEC2        0.0000 
     59 N          47.9480   12.9570   28.3740 N.am      8 SEL2        0.0000 
     60 N          49.6680   10.6830   27.8530 N.am      5 SEP2        0.0000 
     61 O          50.7045   13.5135   28.0835 O.2       1 ALC1        0.0000 
     62 O          49.8400   14.3840   28.5160 O.2       7 ALL1        0.0000 
     63 O          51.5690   12.6430   27.6510 O.2       4 ALP1        0.0000 
     64 N          39.9430   11.5465   28.1270 N.am      2 SEC2        0.0000 
     65 N          38.9470   11.4880   28.9150 N.am      8 SEL2        0.0000 
     66 N          40.9390   11.6050   27.3390 N.am      5 SEP2        0.0000 
     67 N          38.9220   12.9095   28.6210 N.am      2 SEC2        0.0000 
     68 N          38.8970   14.3310   28.3270 N.am      5 SEP2        0.0000 
     69 O          37.8060   11.4185   29.3850 O.2       1 ALC1        0.0000 
     70 O          38.9470   11.4880   28.9150 O.2       7 ALL1        0.0000 
     71 O          36.6650   11.3490   29.8550 O.2       4 ALP1        0.0000 
     72 CA         39.5585   14.9623   31.1555 C.3       3 GLC5        0.0000 
     73 CA         38.2150   15.9370   30.0160 C.3       6 GLP5        0.0000 
     74 CA         41.7410   14.0710   29.0010 C.3       3 GLC5        0.0000 
     75 CA         41.4840   15.1550   27.2240 C.3       6 GLP5        0.0000 
     76 CA         41.8395   12.2159   32.7560 C.3       3 GLC5        0.0000 
     77 CA         42.3300   13.5260   31.1230 C.3       9 GLL5        0.0000 
     78 CA         42.0630   10.6750   33.8030 C.3       6 GLP5        0.0000 
     79 CA         46.3792   13.5025   31.8750 C.3       3 GLC5        0.0000 
     80 CA         45.8860   13.4610   29.5700 C.3       9 GLL5        0.0000 
     81 CA         47.9052   11.0330   29.2965 C.3       3 GLC5        0.0000 
     82 CA         46.6520   12.6540   28.7130 C.3       9 GLL5        0.0000 
     83 CA         49.4250   10.0380   30.1880 C.3       6 GLP5        0.0000 
     84 CA         47.3342   11.4555   26.8405 C.3       3 GLC5        0.0000 
     85 CA         48.2830   10.8830   25.2760 C.3       6 GLP5        0.0000 
     86 CA         46.2400   15.2861   28.4314 C.3       3 GLC5        0.0000 
     87 CA         45.3465   13.2637   32.1538 C.3       3 GLC5        0.0000 
     88 CA         44.0285   11.5998   30.8593 C.3       3 GLC5        0.0000 
     89 CA         40.9513   11.1721   32.2115 C.3       3 GLC5        0.0000 
     90 CA         38.8513   13.1606   29.9505 C.3       3 GLC5        0.0000 
     91 CA         40.3350   12.0580   30.7410 C.3       9 GLL5        0.0000 
     92 CA         37.8630   14.6520   29.2810 C.3       6 GLP5        0.0000 
@<TRIPOS>BOND
@<TRIPOS>SUBSTRUCTURE
     1 ALC1       61 GROUP        1 X    ALC  0     ROOT ALC X 1
     2 SEC2       58 GROUP        1 X    SEC  0     **** SEC X 2
     3 GLC5        1 GROUP        1 X    GLC  0     **** GLC X 6
     4 ALP1       63 GROUP        1 Y    ALP  0     ROOT ALP Y 8
     5 SEP2       60 GROUP        1 Y    SEP  0     **** SEP Y 9
     6 GLP5        3 GROUP        1 Y    GLP  0     **** GLP Y 13
     7 ALL1       62 GROUP        1 Z    ALL  0     ROOT ALL Z 15
     8 SEL2       59 GROUP        1 Z    SEL  0     **** SEL Z 16
     9 GLL5        2 GROUP        1 Z    GLL  0     **** GLL Z 20
@<TRIPOS>SET

