#    Name: 3ml8_ML8_1_ligand
#    Modification time : Mon Mar 24 23:24:55 2014

@<TRIPOS>MOLECULE
3ml8_ML8_1_ligand
   51    54     1     0     0
SMALL
NO_CHARGES


@<TRIPOS>ATOM
      1 C24        40.2380   13.7910   32.4470 C.ar      1 ML89999     0.0000 
      2 C25        41.5660   14.1840   32.1430 C.ar      1 ML89999     0.0000 
      3 C23        39.6270   12.7330   31.7470 C.ar      1 ML89999     0.0000 
      4 C21        41.6660   12.4480   30.4330 C.ar      1 ML89999     0.0000 
      5 C14        42.3300   13.5260   31.1230 C.ar      1 ML89999     0.0000 
      6 C1         45.8860   13.4610   29.5700 C.ar      1 ML89999     0.0000 
      7 C22        40.3350   12.0580   30.7410 C.ar      1 ML89999     0.0000 
      8 C6         46.6520   12.6540   28.7130 C.ar      1 ML89999     0.0000 
      9 C2         46.5250   14.6090   30.0580 C.ar      1 ML89999     0.0000 
     10 C4         48.5040   14.0890   28.8870 C.ar      1 ML89999     0.0000 
     11 C9         44.5090   13.1680   29.9570 C.2       1 ML89999     0.0000 
     12 C10        43.7710   13.9470   30.7860 C.2       1 ML89999     0.0000 
     13 C11        44.4530   15.2230   31.3380 C.2       1 ML89999     0.0000 
     14 C16        45.6370   18.7060   32.5290 C.3       1 ML89999     0.0000 
     15 C17        46.7590   18.1170   33.3850 C.3       1 ML89999     0.0000 
     16 C15        45.8050   18.0450   31.1630 C.3       1 ML89999     0.0000 
     17 C18        46.8160   16.6580   32.9510 C.3       1 ML89999     0.0000 
     18 C8         46.5610   16.7130   31.4280 C.3       1 ML89999     0.0000 
     19 C13        46.1190   11.4020   28.0970 C.3       1 ML89999     0.0000 
     20 C19        50.6420   15.1800   29.4370 C.3       1 ML89999     0.0000 
     21 C26        39.6980   10.9430   29.9960 C.3       1 ML89999     0.0000 
     22 N5         47.9480   12.9570   28.3740 N.ar      1 ML89999     0.0000 
     23 N3         47.8090   14.9120   29.7190 N.ar      1 ML89999     0.0000 
     24 N7         45.8060   15.4890   30.9410 N.am      1 ML89999     0.0000 
     25 N20        49.8400   14.3840   28.5160 N.pl3     1 ML89999     0.0000 
     26 O12        43.8320   15.9730   32.0960 O.2       1 ML89999     0.0000 
     27 O27        38.9470   11.4880   28.9150 O.3       1 ML89999     0.0000 
     28 H          39.7224   14.2836   33.1828 H         1 ML89999     0.0000 
     29 H          41.9981   14.9589   32.6625 H         1 ML89999     0.0000 
     30 H          38.6681   12.4584   31.9732 H         1 ML89999     0.0000 
     31 H          42.1817   11.9492   29.6930 H         1 ML89999     0.0000 
     32 H          44.1019   12.2890   29.5452 H         1 ML89999     0.0000 
     33 H          45.7687   19.7576   32.4392 H         1 ML89999     0.0000 
     34 H          44.6935   18.4424   32.9434 H         1 ML89999     0.0000 
     35 H          46.4969   18.1795   34.4105 H         1 ML89999     0.0000 
     36 H          47.6750   18.5990   33.1550 H         1 ML89999     0.0000 
     37 H          46.3991   18.6607   30.5284 H         1 ML89999     0.0000 
     38 H          44.8513   17.8249   30.7425 H         1 ML89999     0.0000 
     39 H          46.0396   16.1076   33.4162 H         1 ML89999     0.0000 
     40 H          47.7816   16.2607   33.1301 H         1 ML89999     0.0000 
     41 H          47.5222   16.7800   30.9403 H         1 ML89999     0.0000 
     42 H          39.0557   10.3791   30.6827 H         1 ML89999     0.0000 
     43 H          40.4805   10.2650   29.6353 H         1 ML89999     0.0000 
     44 H          50.2354   14.0662   27.6576 H         1 ML89999     0.0000 
     45 H          46.7980   10.9573   27.5129 H         1 ML89999     0.0000 
     46 H          45.8459   10.7344   28.7896 H         1 ML89999     0.0000 
     47 H          45.3155   11.5804   27.5290 H         1 ML89999     0.0000 
     48 H          51.5666   15.3325   29.0879 H         1 ML89999     0.0000 
     49 H          50.2376   16.0801   29.5990 H         1 ML89999     0.0000 
     50 H          50.7348   14.7357   30.3281 H         1 ML89999     0.0000 
     51 H          38.0665   11.0149   28.9472 H         1 ML89999     0.0000 
@<TRIPOS>BOND
     1    2    1 ar   
     2    3    1 ar   
     3   28    1 1    
     4    5    2 ar   
     5   29    2 1    
     6    7    3 ar   
     7   30    3 1    
     8    5    4 ar   
     9    7    4 ar   
    10   31    4 1    
    11   12    5 1    
    12    8    6 ar   
    13    9    6 ar   
    14   11    6 1    
    15   21    7 1    
    16   19    8 1    
    17   22    8 ar   
    18   23    9 ar   
    19   24    9 1    
    20   22   10 ar   
    21   23   10 ar   
    22   25   10 1    
    23   12   11 2    
    24   32   11 1    
    25   13   12 1    
    26   24   13 am   
    27   26   13 2    
    28   15   14 1    
    29   16   14 1    
    30   33   14 1    
    31   34   14 1    
    32   17   15 1    
    33   35   15 1    
    34   36   15 1    
    35   18   16 1    
    36   37   16 1    
    37   38   16 1    
    38   18   17 1    
    39   39   17 1    
    40   40   17 1    
    41   24   18 1    
    42   41   18 1    
    43   45   19 1    
    44   46   19 1    
    45   47   19 1    
    46   25   20 1    
    47   48   20 1    
    48   49   20 1    
    49   50   20 1    
    50   27   21 1    
    51   42   21 1    
    52   43   21 1    
    53   44   25 1    
    54   51   27 1    
@<TRIPOS>SUBSTRUCTURE
     1 ML89999     1 GROUP   
@<TRIPOS>SET

