#    Name: 4eo6_0S2_1_INTS_M
#    Modification time : Mon Mar 24 18:20:20 2014

@<TRIPOS>MOLECULE
4eo6_0S2_1_INTS_M
   68     0     6     0     0
SMALL
NO_CHARGES


@<TRIPOS>ATOM
      1 CA         10.2270   32.9335   76.8045 C.3       2 GLC5        0.0000 
      2 CA          8.3060   32.6710   77.5680 C.3       6 GLL5        0.0000 
      3 CA         12.1480   33.1960   76.0410 C.3       4 GLP5        0.0000 
      4 CA         11.6225   37.8595   72.2820 C.3       2 GLC5        0.0000 
      5 CA          9.8510   37.4110   73.5790 C.3       6 GLL5        0.0000 
      6 CA         13.3940   38.3080   70.9850 C.3       4 GLP5        0.0000 
      7 CA          6.4870   37.4720   71.5930 C.3       2 GLC5        0.0000 
      8 CA          7.4910   38.2220   73.1050 C.3       6 GLL5        0.0000 
      9 CA          5.4830   36.7220   70.0810 C.3       4 GLP5        0.0000 
     10 CA          7.7375   39.9095   74.3845 C.3       2 GLC5        0.0000 
     11 CA          7.9840   41.5970   75.6640 C.3       4 GLP5        0.0000 
     12 CA          4.7535   37.1055   74.3520 C.3       2 GLC5        0.0000 
     13 CA          6.9620   37.3880   74.2800 C.3       6 GLL5        0.0000 
     14 CA          2.5450   36.8230   74.4240 C.3       4 GLP5        0.0000 
     15 CA          9.2145   33.9425   71.6300 C.3       2 GLC5        0.0000 
     16 CA          9.2190   32.3240   72.8280 C.3       6 GLL5        0.0000 
     17 CA          9.2100   35.5610   70.4320 C.3       4 GLP5        0.0000 
     18 CA          8.5480   32.9395   70.4550 C.3       2 GLC5        0.0000 
     19 CA          7.7050   32.2560   72.0650 C.3       6 GLL5        0.0000 
     20 CA          9.3910   33.6230   68.8450 C.3       4 GLP5        0.0000 
     21 CA          6.8170   30.9175   71.1455 C.3       2 GLC5        0.0000 
     22 CA          5.9290   29.5790   70.2260 C.3       4 GLP5        0.0000 
     23 N           3.8655   32.8100   71.3250 N.am      1 SEC2        0.0000 
     24 N           4.8890   32.5390   72.2970 N.am      5 SEL2        0.0000 
     25 N           2.8420   33.0810   70.3530 N.am      3 SEP2        0.0000 
     26 N           3.5515   34.1685   73.4110 N.am      1 SEC2        0.0000 
     27 N           4.8530   34.0830   73.9350 N.am      5 SEL2        0.0000 
     28 N           2.2500   34.2540   72.8870 N.am      3 SEP2        0.0000 
     29 CA          9.3575   37.5135   71.3090 C.3       2 GLC5        0.0000 
     30 CA          9.5050   39.4660   72.1860 C.3       6 GLL5        0.0000 
     31 CA          9.7570   40.7420   70.9665 C.3       2 GLC5        0.0000 
     32 CA         10.0090   42.0180   69.7470 C.3       4 GLP5        0.0000 
     33 CA         11.4495   38.8870   71.5855 C.3       2 GLC5        0.0000 
     34 CA         10.0375   40.4075   73.6855 C.3       2 GLC5        0.0000 
     35 CA         10.5700   41.3490   75.1850 C.3       4 GLP5        0.0000 
     36 CA         14.0355   33.6640   71.7085 C.3       2 GLC5        0.0000 
     37 CA         13.8570   31.5240   71.6150 C.3       6 GLL5        0.0000 
     38 CA         14.2140   35.8040   71.8020 C.3       4 GLP5        0.0000 
     39 CA         15.2870   32.0865   70.1755 C.3       2 GLC5        0.0000 
     40 CA         16.7170   32.6490   68.7360 C.3       4 GLP5        0.0000 
     41 CA         14.1790   32.3830   73.4245 C.3       2 GLC5        0.0000 
     42 CA         14.5010   33.2420   75.2340 C.3       4 GLP5        0.0000 
     43 CA         10.7645   29.0120   70.3265 C.3       2 GLC5        0.0000 
     44 CA         12.6650   29.3400   71.1840 C.3       6 GLL5        0.0000 
     45 CA          8.8640   28.6840   69.4690 C.3       4 GLP5        0.0000 
     46 CA         13.1590   28.4930   69.4870 C.3       2 GLC5        0.0000 
     47 CA         13.6530   27.6460   67.7900 C.3       4 GLP5        0.0000 
     48 CA         10.9645   32.4230   69.1820 C.3       2 GLC5        0.0000 
     49 CA         12.5380   31.2230   69.5190 C.3       6 GLL5        0.0000 
     50 CA         10.7010   29.9535   69.4940 C.3       2 GLC5        0.0000 
     51 CA         12.7785   32.1325   68.0015 C.3       2 GLC5        0.0000 
     52 CA         13.0190   33.0420   66.4840 C.3       4 GLP5        0.0000 
     53 CA         13.4565   29.9545   68.2295 C.3       2 GLC5        0.0000 
     54 CA         14.3750   28.6860   66.9400 C.3       4 GLP5        0.0000 
     55 CA         14.6275   31.9360   69.1275 C.3       2 GLC5        0.0000 
     56 CA          8.8843   35.9460   72.5048 C.3       2 GLC5        0.0000 
     57 CA          9.2950   36.5260   74.6930 C.3       6 GLL5        0.0000 
     58 CA         11.4060   36.1822   74.8530 C.3       2 GLC5        0.0000 
     59 CA         13.2390   35.3960   75.5700 C.3       4 GLP5        0.0000 
     60 CA         10.1322   39.0044   74.8075 C.3       2 GLC5        0.0000 
     61 CA          8.9560   38.6350   73.3500 C.3       6 GLL5        0.0000 
     62 CA         11.0000   40.2070   75.8720 C.3       4 GLP5        0.0000 
     63 CA          8.8286   36.8418   71.8584 C.3       2 GLC5        0.0000 
     64 CA         10.1465   32.6152   70.4025 C.3       2 GLC5        0.0000 
     65 CA         10.4080   31.8220   72.2270 C.3       6 GLL5        0.0000 
     66 CA          9.8830   30.1457   70.7145 C.3       2 GLC5        0.0000 
     67 CA         10.8099   32.8432   74.6714 C.3       2 GLC5        0.0000 
     68 CA          9.1300   32.9080   74.0760 C.3       6 GLL5        0.0000 
@<TRIPOS>BOND
@<TRIPOS>SUBSTRUCTURE
     1 SEC2       23 GROUP        1 X    SEC  0     ROOT SEC X 2
     2 GLC5        1 GROUP        1 X    GLC  0     **** GLC X 6
     3 SEP2       25 GROUP        1 Y    SEP  0     ROOT SEP Y 9
     4 GLP5        3 GROUP        1 Y    GLP  0     **** GLP Y 13
     5 SEL2       24 GROUP        1 Z    SEL  0     ROOT SEL Z 16
     6 GLL5        2 GROUP        1 Z    GLL  0     **** GLL Z 20
@<TRIPOS>SET

