#    Name: 4eo6_0S2_1_ligand
#    Modification time : Mon Mar 24 18:20:20 2014

@<TRIPOS>MOLECULE
4eo6_0S2_1_ligand
   57    58     1     0     0
SMALL
NO_CHARGES


@<TRIPOS>ATOM
      1 C12         6.2450   31.8560   76.3870 C.3       1 0S2600      0.0000 
      2 C11         7.0450   33.0930   76.8020 C.3       1 0S2600      0.0000 
      3 C14         7.3940   35.3490   75.7000 C.2       1 0S2600      0.0000 
      4 C13         8.3060   32.6710   77.5680 C.3       1 0S2600      0.0000 
      5 C15         7.8220   36.1360   74.4620 C.3       1 0S2600      0.0000 
      6 C17         9.2950   36.5260   74.6930 C.3       1 0S2600      0.0000 
      7 C18         9.8510   37.4110   73.5790 C.3       1 0S2600      0.0000 
      8 C19         8.9560   38.6350   73.3500 C.3       1 0S2600      0.0000 
      9 C20         7.4910   38.2220   73.1050 C.3       1 0S2600      0.0000 
     10 C21         6.9620   37.3880   74.2800 C.3       1 0S2600      0.0000 
     11 C01        10.4080   31.8220   72.2270 C.1       1 0S2600      0.0000 
     12 C02         9.1300   32.9080   74.0760 C.2       1 0S2600      0.0000 
     13 C03         9.2190   32.3240   72.8280 C.2       1 0S2600      0.0000 
     14 S04         7.7050   32.2560   72.0650 S.3       1 0S2600      0.0000 
     15 C05         6.9090   33.0140   73.3750 C.2       1 0S2600      0.0000 
     16 C06         7.7950   33.3260   74.4100 C.2       1 0S2600      0.0000 
     17 N07         7.4080   33.9410   75.6300 N.am      1 0S2600      0.0000 
     18 C08         5.4830   33.2690   73.2770 C.2       1 0S2600      0.0000 
     19 O09         4.8890   32.5390   72.2970 O.co2     1 0S2600      0.0000 
     20 O10         4.8530   34.0830   73.9350 O.co2     1 0S2600      0.0000 
     21 O16         7.0780   35.9690   76.7210 O.2       1 0S2600      0.0000 
     22 C22         9.5050   39.4660   72.1860 C.3       1 0S2600      0.0000 
     23 C23        11.3960   31.3930   71.6930 C.1       1 0S2600      0.0000 
     24 C24        12.6020   30.8660   71.0190 C.3       1 0S2600      0.0000 
     25 C25        13.8570   31.5240   71.6150 C.3       1 0S2600      0.0000 
     26 C26        12.6650   29.3400   71.1840 C.3       1 0S2600      0.0000 
     27 C27        12.5380   31.2230   69.5190 C.3       1 0S2600      0.0000 
     28 H           6.4273   33.6763   77.4888 H         1 0S2600      0.0000 
     29 H           7.7623   35.5129   73.6088 H         1 0S2600      0.0000 
     30 H           9.8945   35.6121   74.7622 H         1 0S2600      0.0000 
     31 H           9.3734   37.0552   75.6487 H         1 0S2600      0.0000 
     32 H           9.9102   36.8352   72.6565 H         1 0S2600      0.0000 
     33 H          10.8510   37.7464   73.8500 H         1 0S2600      0.0000 
     34 H           8.9905   39.2494   74.2486 H         1 0S2600      0.0000 
     35 H           7.4357   37.6348   72.1939 H         1 0S2600      0.0000 
     36 H           6.8842   39.1153   72.9964 H         1 0S2600      0.0000 
     37 H           6.9974   37.9842   75.1849 H         1 0S2600      0.0000 
     38 H           5.9379   37.0953   74.0771 H         1 0S2600      0.0000 
     39 H           9.8763   33.0372   74.6890 H         1 0S2600      0.0000 
     40 H           6.7766   31.2519   75.7933 H         1 0S2600      0.0000 
     41 H           5.9618   31.3142   77.1783 H         1 0S2600      0.0000 
     42 H           5.4143   32.1014   75.8873 H         1 0S2600      0.0000 
     43 H           8.9012   32.0904   77.0124 H         1 0S2600      0.0000 
     44 H           8.8495   33.4608   77.8524 H         1 0S2600      0.0000 
     45 H           8.0829   32.1555   78.3953 H         1 0S2600      0.0000 
     46 H          10.4328   39.7920   72.3675 H         1 0S2600      0.0000 
     47 H           9.5405   38.9384   71.3373 H         1 0S2600      0.0000 
     48 H           8.9410   40.2720   72.0066 H         1 0S2600      0.0000 
     49 H          14.6932   31.1925   71.1782 H         1 0S2600      0.0000 
     50 H          13.8431   32.5178   71.5050 H         1 0S2600      0.0000 
     51 H          13.9443   31.3386   72.5938 H         1 0S2600      0.0000 
     52 H          13.4707   28.9511   70.7373 H         1 0S2600      0.0000 
     53 H          12.7055   29.0719   72.1465 H         1 0S2600      0.0000 
     54 H          11.8645   28.8902   70.7879 H         1 0S2600      0.0000 
     55 H          13.3371   30.8843   69.0222 H         1 0S2600      0.0000 
     56 H          11.7308   30.8307   69.0780 H         1 0S2600      0.0000 
     57 H          12.5000   32.2117   69.3738 H         1 0S2600      0.0000 
@<TRIPOS>BOND
     1    2    1 1    
     2   40    1 1    
     3   41    1 1    
     4   42    1 1    
     5    4    2 1    
     6   17    2 1    
     7   28    2 1    
     8    5    3 1    
     9   17    3 am   
    10   21    3 2    
    11   43    4 1    
    12   44    4 1    
    13   45    4 1    
    14    6    5 1    
    15   10    5 1    
    16   29    5 1    
    17    7    6 1    
    18   30    6 1    
    19   31    6 1    
    20    8    7 1    
    21   32    7 1    
    22   33    7 1    
    23    9    8 1    
    24   22    8 1    
    25   34    8 1    
    26   10    9 1    
    27   35    9 1    
    28   36    9 1    
    29   37   10 1    
    30   38   10 1    
    31   13   11 1    
    32   23   11 3    
    33   13   12 2    
    34   16   12 1    
    35   39   12 1    
    36   14   13 1    
    37   15   14 1    
    38   16   15 2    
    39   18   15 1    
    40   17   16 1    
    41   19   18 ar   
    42   20   18 ar   
    43   46   22 1    
    44   47   22 1    
    45   48   22 1    
    46   24   23 1    
    47   25   24 1    
    48   26   24 1    
    49   27   24 1    
    50   49   25 1    
    51   50   25 1    
    52   51   25 1    
    53   52   26 1    
    54   53   26 1    
    55   54   26 1    
    56   55   27 1    
    57   56   27 1    
    58   57   27 1    
@<TRIPOS>SUBSTRUCTURE
     1 0S2600      1 GROUP   
@<TRIPOS>SET

