#    Name: 3u6h_03X_1_INTS_M
#    Modification time : Mon Mar 24 21:42:08 2014

@<TRIPOS>MOLECULE
3u6h_03X_1_INTS_M
  106     0     6     0     0
SMALL
NO_CHARGES


@<TRIPOS>ATOM
      1 N          24.2700    4.9105  -24.9655 N.am      1 SEC2        0.0000 
      2 N          23.4690    5.3680  -23.8500 N.am      5 SEL2        0.0000 
      3 N          25.0710    4.4530  -26.0810 N.am      3 SEP2        0.0000 
      4 CA         23.6850    6.8675  -22.6820 C.3       2 GLC5        0.0000 
      5 CA         22.1700    5.7340  -23.8730 C.3       6 GLL5        0.0000 
      6 CA         25.2000    8.0010  -21.4910 C.3       4 GLP5        0.0000 
      7 CA         25.5010    5.4090  -24.0695 C.3       2 GLC5        0.0000 
      8 CA         24.0650    4.9630  -22.7220 C.3       6 GLL5        0.0000 
      9 CA         26.9370    5.8550  -25.4170 C.3       4 GLP5        0.0000 
     10 CA         24.2180    3.3845  -23.7095 C.3       2 GLC5        0.0000 
     11 CA         24.3710    1.8060  -24.6970 C.3       4 GLP5        0.0000 
     12 CA         20.8870    2.1165  -20.5720 C.3       2 GLC5        0.0000 
     13 CA         21.7170    3.2360  -19.1050 C.3       6 GLL5        0.0000 
     14 CA         20.0570    0.9970  -22.0390 C.3       4 GLP5        0.0000 
     15 CA         25.7040   -0.7810  -14.5915 C.3       2 GLC5        0.0000 
     16 CA         24.0060   -1.0200  -13.8340 C.3       6 GLL5        0.0000 
     17 CA         27.4020   -0.5420  -15.3490 C.3       4 GLP5        0.0000 
     18 CA         22.0695   -1.0180  -14.2865 C.3       2 GLC5        0.0000 
     19 CA         20.1330   -1.0160  -14.7390 C.3       4 GLP5        0.0000 
     20 CA         24.4305   -2.6070  -14.6085 C.3       2 GLC5        0.0000 
     21 CA         24.8550   -4.1940  -15.3830 C.3       4 GLP5        0.0000 
     22 CA         26.0860    4.6075  -11.3935 C.3       2 GLC5        0.0000 
     23 CA         25.5010    2.5350  -10.9570 C.3       6 GLL5        0.0000 
     24 CA         26.6710    6.6800  -11.8300 C.3       4 GLP5        0.0000 
     25 CA         29.2940    4.5060  -10.4355 C.3       2 GLC5        0.0000 
     26 CA         27.6730    3.2190  -10.0790 C.3       6 GLL5        0.0000 
     27 CA         30.9150    5.7930  -10.7920 C.3       4 GLP5        0.0000 
     28 CA         22.0875    7.7975  -27.8915 C.3       2 GLC5        0.0000 
     29 CA         20.4320    7.0050  -27.4480 C.3       6 GLL5        0.0000 
     30 CA         23.7430    8.5900  -28.3350 C.3       4 GLP5        0.0000 
     31 CA         19.7570    5.1405  -27.1760 C.3       2 GLC5        0.0000 
     32 CA         19.0820    3.2760  -26.9040 C.3       4 GLP5        0.0000 
     33 CA         18.9695    8.2010  -23.2190 C.3       2 GLC5        0.0000 
     34 CA         17.3670    6.8220  -22.8260 C.3       6 GLL5        0.0000 
     35 CA         20.5720    9.5800  -23.6120 C.3       4 GLP5        0.0000 
     36 CA         16.9095    8.6275  -23.1210 C.3       2 GLC5        0.0000 
     37 CA         16.4520   10.4330  -23.4160 C.3       4 GLP5        0.0000 
     38 CA         17.4780    5.7010  -21.3670 C.3       2 GLC5        0.0000 
     39 CA         17.5890    4.5800  -19.9080 C.3       4 GLP5        0.0000 
     40 CA         20.4580    5.3815  -17.4505 C.3       2 GLC5        0.0000 
     41 CA         22.5560    4.8690  -16.9910 C.3       6 GLL5        0.0000 
     42 CA         18.3600    5.8940  -17.9100 C.3       4 GLP5        0.0000 
     43 CA         22.2575    6.1155  -15.4120 C.3       2 GLC5        0.0000 
     44 CA         21.9590    7.3620  -13.8330 C.3       4 GLP5        0.0000 
     45 CA         20.2000    6.3260  -18.1080 C.3       2 GLC5        0.0000 
     46 CA         22.0400    6.7580  -18.3060 C.3       6 GLL5        0.0000 
     47 CA         22.8045    7.7695  -16.7310 C.3       2 GLC5        0.0000 
     48 CA         23.5690    8.7810  -15.1560 C.3       4 GLP5        0.0000 
     49 CA         22.0660    0.6620  -18.2685 C.3       2 GLC5        0.0000 
     50 CA         22.1870    2.6710  -17.9060 C.3       6 GLL5        0.0000 
     51 CA         21.9450   -1.3470  -18.6310 C.3       4 GLP5        0.0000 
     52 N          21.9370   -0.2885  -15.8885 N.am      1 SEC2        0.0000 
     53 N          22.8570    0.7750  -15.9190 N.am      5 SEL2        0.0000 
     54 N          21.0170   -1.3520  -15.8580 N.am      3 SEP2        0.0000 
     55 CA         26.5585   -0.3015  -12.3850 C.3       2 GLC5        0.0000 
     56 CA         25.3870   -0.3120  -11.1710 C.3       6 GLL5        0.0000 
     57 CA         27.7300   -0.2910  -13.5990 C.3       4 GLP5        0.0000 
     58 CA         25.6155   -2.2900  -12.1775 C.3       2 GLC5        0.0000 
     59 CA         25.8440   -4.2680  -13.1840 C.3       4 GLP5        0.0000 
     60 CA         28.5265    3.0035  -12.5240 C.3       2 GLC5        0.0000 
     61 CA         26.8930    2.6440  -11.0770 C.3       6 GLL5        0.0000 
     62 CA         30.1600    3.3630  -13.9710 C.3       4 GLP5        0.0000 
     63 CA         27.0555    4.0420  -12.4885 C.3       2 GLC5        0.0000 
     64 CA         27.2180    5.4400  -13.9000 C.3       4 GLP5        0.0000 
     65 CA         25.2775    1.6660   -8.1995 C.3       2 GLC5        0.0000 
     66 CA         24.8710    3.0090   -9.8080 C.3       6 GLL5        0.0000 
     67 CA         25.6840    0.3230   -6.5910 C.3       4 GLP5        0.0000 
     68 CA         20.6520    7.7345  -23.1680 C.3       2 GLC5        0.0000 
     69 CA         21.4070    5.7030  -22.7050 C.3       6 GLL5        0.0000 
     70 CA         21.2240    7.7585  -24.0427 C.3       2 GLC5        0.0000 
     71 CA         22.7295    4.2270  -25.1363 C.3       2 GLC5        0.0000 
     72 CA         21.5820    6.1400  -25.0740 C.3       6 GLL5        0.0000 
     73 CA         23.5830    2.5170  -25.7990 C.3       4 GLP5        0.0000 
     74 CA         21.0670    4.1690  -23.8017 C.3       2 GLC5        0.0000 
     75 CA         20.2580    2.4010  -23.1300 C.3       4 GLP5        0.0000 
     76 CA         21.4657    3.7508  -22.3215 C.3       2 GLC5        0.0000 
     77 CA         23.3510    4.9180  -21.5210 C.3       6 GLL5        0.0000 
     78 CA         21.2383    7.8025  -18.2357 C.3       2 GLC5        0.0000 
     79 CA         22.0870    5.4280  -18.1770 C.3       6 GLL5        0.0000 
     80 CA         20.4130    9.5120  -18.2300 C.3       4 GLP5        0.0000 
     81 CA         24.0540    4.6215  -17.2458 C.3       2 GLC5        0.0000 
     82 CA         22.5960    3.4850  -16.8400 C.3       6 GLL5        0.0000 
     83 CA         25.5320    5.0660  -17.5760 C.3       4 GLP5        0.0000 
     84 CA         20.0796    5.0135  -18.4083 C.3       2 GLC5        0.0000 
     85 CA         21.6760    4.6320  -19.2390 C.3       6 GLL5        0.0000 
     86 CA         23.4946    2.0115  -18.7620 C.3       2 GLC5        0.0000 
     87 CA         24.9350    0.8660  -19.2850 C.3       4 GLP5        0.0000 
     88 CA         23.7420    4.0098  -18.0407 C.3       2 GLC5        0.0000 
     89 CA         25.9027    0.3500  -13.6030 C.3       2 GLC5        0.0000 
     90 CA         23.8940    1.5860  -13.9110 C.3       6 GLL5        0.0000 
     91 CA         26.9635    1.1493  -12.3080 C.3       2 GLC5        0.0000 
     92 CA         29.0800    2.5895   -9.0888 C.3       2 GLC5        0.0000 
     93 CA         27.0410    3.6950   -8.9360 C.3       6 GLL5        0.0000 
     94 CA         30.8030    1.7220   -8.6700 C.3       4 GLP5        0.0000 
     95 CA         26.7533    2.2745   -7.8309 C.3       2 GLC5        0.0000 
     96 CA         27.0010    1.0270   -6.5060 C.3       4 GLP5        0.0000 
     97 CA         26.5883    5.1010  -10.4929 C.3       2 GLC5        0.0000 
     98 CA         25.6540    3.5870   -8.8040 C.3       6 GLL5        0.0000 
     99 CA         20.2135    8.0395  -24.0700 C.3       2 GLC5        0.0000 
    100 CA         19.4730    6.4810  -23.9470 C.3       6 GLL5        0.0000 
    101 CA         19.6366    4.8404  -25.7116 C.3       2 GLC5        0.0000 
    102 CA         20.2370    6.5170  -25.1090 C.3       6 GLL5        0.0000 
    103 CA         20.1802    4.2930  -23.2327 C.3       2 GLC5        0.0000 
    104 CA         24.0260    6.5564  -21.6521 C.3       2 GLC5        0.0000 
    105 CA         21.9960    5.2830  -21.5050 C.3       6 GLL5        0.0000 
    106 CA         23.7464    5.4800  -18.0415 C.3       2 GLC5        0.0000 
@<TRIPOS>BOND
@<TRIPOS>SUBSTRUCTURE
     1 SEC2        1 GROUP        1 X    SEC  0     ROOT SEC X 2
     2 GLC5        4 GROUP        1 X    GLC  0     **** GLC X 6
     3 SEP2        3 GROUP        1 Y    SEP  0     ROOT SEP Y 9
     4 GLP5        6 GROUP        1 Y    GLP  0     **** GLP Y 13
     5 SEL2        2 GROUP        1 Z    SEL  0     ROOT SEL Z 16
     6 GLL5        5 GROUP        1 Z    GLL  0     **** GLL Z 20
@<TRIPOS>SET

