#    Name: 3u6h_03X_1_ligand
#    Modification time : Mon Mar 24 21:42:08 2014

@<TRIPOS>MOLECULE
3u6h_03X_1_ligand
   64    68     1     0     0
SMALL
NO_CHARGES


@<TRIPOS>ATOM
      1 N1         23.4690    5.3680  -23.8500 N.ar      1 03X1        0.0000 
      2 N3         24.8570    0.7100  -12.1500 N.pl3     1 03X1        0.0000 
      3 C4         20.0570    6.0750  -22.7430 C.ar      1 03X1        0.0000 
      4 C5         21.4070    5.7030  -22.7050 C.ar      1 03X1        0.0000 
      5 C6         22.1700    5.7340  -23.8730 C.ar      1 03X1        0.0000 
      6 C7         24.0650    4.9630  -22.7220 C.ar      1 03X1        0.0000 
      7 C8         23.3510    4.9180  -21.5210 C.ar      1 03X1        0.0000 
      8 C10        21.6760    4.6320  -19.2390 C.ar      1 03X1        0.0000 
      9 C13        22.0870    5.4280  -18.1770 C.ar      1 03X1        0.0000 
     10 C15        22.5960    3.4850  -16.8400 C.ar      1 03X1        0.0000 
     11 C17        21.7170    3.2360  -19.1050 C.ar      1 03X1        0.0000 
     12 C20        24.2570    0.3960  -13.3030 C.2       1 03X1        0.0000 
     13 C21        24.3470    2.5760  -13.0460 C.2       1 03X1        0.0000 
     14 C22        24.0060   -1.0200  -13.8340 C.3       1 03X1        0.0000 
     15 C24        25.5010    2.5350  -10.9570 C.ar      1 03X1        0.0000 
     16 C26        27.6730    3.2190  -10.0790 C.ar      1 03X1        0.0000 
     17 C28        25.6540    3.5870   -8.8040 C.ar      1 03X1        0.0000 
     18 C11        20.4320    7.0050  -27.4480 C.3       1 03X1        0.0000 
     19 O3         19.6150    6.9250  -26.2600 O.3       1 03X1        0.0000 
     20 C2         20.2370    6.5170  -25.1090 C.ar      1 03X1        0.0000 
     21 C3         21.5820    6.1400  -25.0740 C.ar      1 03X1        0.0000 
     22 C1         19.4730    6.4810  -23.9470 C.ar      1 03X1        0.0000 
     23 O2         18.1610    6.8700  -24.0390 O.3       1 03X1        0.0000 
     24 C12        17.3670    6.8220  -22.8260 C.3       1 03X1        0.0000 
     25 C9         21.9960    5.2830  -21.5050 C.ar      1 03X1        0.0000 
     26 O1         21.2250    5.2650  -20.3720 O.3       1 03X1        0.0000 
     27 C14        22.5560    4.8690  -16.9910 C.ar      1 03X1        0.0000 
     28 F1         22.0400    6.7580  -18.3060 F         1 03X1        0.0000 
     29 C16        22.1870    2.6710  -17.9060 C.ar      1 03X1        0.0000 
     30 N2         23.0950    3.0270  -15.6790 N.am      1 03X1        0.0000 
     31 C18        23.2090    1.7580  -15.2730 C.2       1 03X1        0.0000 
     32 O4         22.8570    0.7750  -15.9190 O.2       1 03X1        0.0000 
     33 C19        23.8940    1.5860  -13.9110 C.2       1 03X1        0.0000 
     34 O5         24.2280    3.7940  -13.2070 O.2       1 03X1        0.0000 
     35 C23        25.3870   -0.3120  -11.1710 C.3       1 03X1        0.0000 
     36 N4         24.8900    1.9470  -11.9880 N.am      1 03X1        0.0000 
     37 C25        26.8930    2.6440  -11.0770 C.ar      1 03X1        0.0000 
     38 C27        27.0410    3.6950   -8.9360 C.ar      1 03X1        0.0000 
     39 C29        24.8710    3.0090   -9.8080 C.ar      1 03X1        0.0000 
     40 H          19.4956    6.0491  -21.8838 H         1 03X1        0.0000 
     41 H          25.0632    4.6749  -22.7114 H         1 03X1        0.0000 
     42 H          23.8112    4.6211  -20.6577 H         1 03X1        0.0000 
     43 H          21.4092    2.6354  -19.8690 H         1 03X1        0.0000 
     44 H          28.6827    3.2894  -10.1836 H         1 03X1        0.0000 
     45 H          25.1967    3.9419   -7.9458 H         1 03X1        0.0000 
     46 H          22.1420    6.1614  -25.9362 H         1 03X1        0.0000 
     47 H          22.8730    5.4783  -16.2261 H         1 03X1        0.0000 
     48 H          22.2306    1.6467  -17.8115 H         1 03X1        0.0000 
     49 H          23.4540    3.7945  -14.9762 H         1 03X1        0.0000 
     50 H          27.3513    2.2838  -11.9376 H         1 03X1        0.0000 
     51 H          27.5926    4.1282   -8.1839 H         1 03X1        0.0000 
     52 H          23.8623    2.9370   -9.6997 H         1 03X1        0.0000 
     53 H          24.8589   -1.5276  -13.9558 H         1 03X1        0.0000 
     54 H          23.4335   -1.5539  -13.2118 H         1 03X1        0.0000 
     55 H          23.5432   -1.0076  -14.7204 H         1 03X1        0.0000 
     56 H          21.1913    7.6457  -27.3341 H         1 03X1        0.0000 
     57 H          20.8295    6.1187  -27.6858 H         1 03X1        0.0000 
     58 H          19.9056    7.3123  -28.2407 H         1 03X1        0.0000 
     59 H          17.3181    5.8965  -22.4505 H         1 03X1        0.0000 
     60 H          17.7460    7.4089  -22.1105 H         1 03X1        0.0000 
     61 H          16.4270    7.1238  -22.9852 H         1 03X1        0.0000 
     62 H          26.0906   -0.8910  -11.5830 H         1 03X1        0.0000 
     63 H          25.7967    0.1206  -10.3679 H         1 03X1        0.0000 
     64 H          24.6645   -0.9191  -10.8403 H         1 03X1        0.0000 
@<TRIPOS>BOND
     1    5    1 ar   
     2    6    1 ar   
     3   12    2 1    
     4   35    2 1    
     5   36    2 1    
     6    4    3 ar   
     7   22    3 ar   
     8   40    3 1    
     9    5    4 ar   
    10   25    4 ar   
    11   21    5 ar   
    12    7    6 ar   
    13   41    6 1    
    14   25    7 ar   
    15   42    7 1    
    16    9    8 ar   
    17   11    8 ar   
    18   26    8 1    
    19   27    9 ar   
    20   28    9 1    
    21   27   10 ar   
    22   29   10 ar   
    23   30   10 1    
    24   29   11 ar   
    25   43   11 1    
    26   14   12 1    
    27   33   12 2    
    28   33   13 1    
    29   34   13 2    
    30   36   13 am   
    31   53   14 1    
    32   54   14 1    
    33   55   14 1    
    34   36   15 1    
    35   37   15 ar   
    36   39   15 ar   
    37   37   16 ar   
    38   38   16 ar   
    39   44   16 1    
    40   38   17 ar   
    41   39   17 ar   
    42   45   17 1    
    43   19   18 1    
    44   56   18 1    
    45   57   18 1    
    46   58   18 1    
    47   20   19 1    
    48   21   20 ar   
    49   22   20 ar   
    50   46   21 1    
    51   23   22 1    
    52   24   23 1    
    53   59   24 1    
    54   60   24 1    
    55   61   24 1    
    56   26   25 1    
    57   47   27 1    
    58   48   29 1    
    59   31   30 am   
    60   49   30 1    
    61   32   31 2    
    62   33   31 1    
    63   62   35 1    
    64   63   35 1    
    65   64   35 1    
    66   50   37 1    
    67   51   38 1    
    68   52   39 1    
@<TRIPOS>SUBSTRUCTURE
     1 03X1        1 GROUP   
@<TRIPOS>SET

