#    Name: 1ppl_1Z7_1_INTS_M
#    Modification time : Mon Mar 24 22:02:18 2014

@<TRIPOS>MOLECULE
1ppl_1Z7_1_INTS_M
   84     0     9     0     0
SMALL
NO_CHARGES


@<TRIPOS>ATOM
      1 CA         16.5725    4.0370   15.8405 C.3       3 GLC5        0.0000 
      2 CA         15.9420    4.1260   17.4870 C.3       9 GLL5        0.0000 
      3 CA         17.2030    3.9480   14.1940 C.3       6 GLP5        0.0000 
      4 CA         15.7975    6.0475   16.9645 C.3       3 GLC5        0.0000 
      5 CA         15.6530    7.9690   16.4420 C.3       6 GLP5        0.0000 
      6 CA         14.9840    6.4050   17.7645 C.3       3 GLC5        0.0000 
      7 CA         14.3150    4.8410   19.0870 C.3       9 GLL5        0.0000 
      8 CA         12.8840    6.1125   19.3500 C.3       3 GLC5        0.0000 
      9 CA         11.4530    7.3840   19.6130 C.3       6 GLP5        0.0000 
     10 CA         12.3950    3.8045   15.7390 C.3       3 GLC5        0.0000 
     11 CA         13.4600    3.5320   17.2680 C.3       9 GLL5        0.0000 
     12 CA         11.3300    4.0770   14.2100 C.3       6 GLP5        0.0000 
     13 CA         11.5390    3.4500   17.6275 C.3       3 GLC5        0.0000 
     14 CA          9.6180    3.3680   17.9870 C.3       6 GLP5        0.0000 
     15 O          17.4125    6.3475   17.3690 O.2       1 ALC1        0.0000 
     16 O          17.8820    5.4490   18.3940 O.2       7 ALL1        0.0000 
     17 O          16.9430    7.2460   16.3440 O.2       4 ALP1        0.0000 
     18 N          17.5650    8.8260   18.5095 N.am      2 SEC2        0.0000 
     19 N          18.1180    7.8830   19.5600 N.am      8 SEL2        0.0000 
     20 N          17.0120    9.7690   17.4590 N.am      5 SEP2        0.0000 
     21 O          20.4860    5.8910   21.4315 O.2       1 ALC1        0.0000 
     22 O          19.6870    7.0590   21.0610 O.2       7 ALL1        0.0000 
     23 O          21.2850    4.7230   21.8020 O.2       4 ALP1        0.0000 
     24 CA         18.2545    9.8435   21.1350 C.3       3 GLC5        0.0000 
     25 CA         19.6540    8.3980   21.7970 C.3       9 GLL5        0.0000 
     26 CA         16.8550   11.2890   20.4730 C.3       6 GLP5        0.0000 
     27 N          21.5530    7.2680   24.1240 N.am      2 SEC2        0.0000 
     28 N          21.7700    8.0720   22.8770 N.am      8 SEL2        0.0000 
     29 N          21.3360    6.4640   25.3710 N.am      5 SEP2        0.0000 
     30 CA         17.8515   10.4765   22.1400 C.3       3 GLC5        0.0000 
     31 CA         18.8480    9.6640   23.8070 C.3       9 GLL5        0.0000 
     32 CA         16.9860   10.2610   23.8405 C.3       3 GLC5        0.0000 
     33 CA         15.1240   10.8580   23.8740 C.3       6 GLP5        0.0000 
     34 CA         17.1950    9.5365   21.6790 C.3       3 GLC5        0.0000 
     35 CA         17.5350    7.7840   22.8850 C.3       9 GLL5        0.0000 
     36 CA         16.3295    9.3210   23.3795 C.3       3 GLC5        0.0000 
     37 CA         25.8540    9.4470   18.9585 C.3       3 GLC5        0.0000 
     38 CA         23.8890    9.3340   19.9240 C.3       9 GLL5        0.0000 
     39 CA         27.8190    9.5600   17.9930 C.3       6 GLP5        0.0000 
     40 CA         22.9420   10.6930   18.4130 C.3       3 GLC5        0.0000 
     41 CA         21.9950   12.0520   16.9020 C.3       6 GLP5        0.0000 
     42 CA         25.1800    8.5735   21.0505 C.3       3 GLC5        0.0000 
     43 CA         23.7360    7.8390   19.5170 C.3       9 GLL5        0.0000 
     44 CA         26.6240    9.3080   22.5840 C.3       6 GLP5        0.0000 
     45 CA         25.9770    8.5880   18.0265 C.3       3 GLC5        0.0000 
     46 CA         24.1350    7.6160   18.0600 C.3       9 GLL5        0.0000 
     47 CA         25.3380    7.4545   21.8330 C.3       3 GLC5        0.0000 
     48 CA         24.1760    6.8870   20.5840 C.3       9 GLL5        0.0000 
     49 CA         26.5000    8.0220   23.0820 C.3       6 GLP5        0.0000 
     50 CA         25.8415    5.6490   20.3175 C.3       3 GLC5        0.0000 
     51 CA         27.5070    4.4110   20.0510 C.3       6 GLP5        0.0000 
     52 O          21.4270    9.8095   19.5520 O.2       1 ALC1        0.0000 
     53 O          21.7090    9.5240   21.1100 O.2       7 ALL1        0.0000 
     54 O          21.1450   10.0950   17.9940 O.2       4 ALP1        0.0000 
     55 O          20.4510   10.6090   20.9655 O.2       1 ALC1        0.0000 
     56 O          19.1930   11.6940   20.8210 O.2       4 ALP1        0.0000 
     57 N          21.4950   13.3380   20.7685 N.am      2 SEC2        0.0000 
     58 N          22.4510   12.2770   20.2720 N.am      8 SEL2        0.0000 
     59 N          20.5390   14.3990   21.2650 N.am      5 SEP2        0.0000 
     60 CA         23.7645   15.6400   24.6335 C.3       3 GLC5        0.0000 
     61 CA         22.5800   14.0210   24.1290 C.3       9 GLL5        0.0000 
     62 CA         24.9490   17.2590   25.1380 C.3       6 GLP5        0.0000 
     63 CA         18.1780   13.3410   26.4920 C.3       3 GLC5        0.0000 
     64 CA         19.9430   12.2840   27.0690 C.3       9 GLL5        0.0000 
     65 CA         16.4130   14.3980   25.9150 C.3       6 GLP5        0.0000 
     66 N          23.7455    9.9270   25.3030 N.am      2 SEC2        0.0000 
     67 N          24.3280   11.1650   24.8400 N.am      8 SEL2        0.0000 
     68 N          23.1630    8.6890   25.7660 N.am      5 SEP2        0.0000 
     69 CA         20.3700    8.8202   24.9057 C.3       3 GLC5        0.0000 
     70 CA         18.9620    8.2550   23.1180 C.3       9 GLL5        0.0000 
     71 CA         21.8350    8.6810   26.3490 C.3       6 GLP5        0.0000 
     72 CA         19.3317    6.4571   23.3011 C.3       3 GLC5        0.0000 
     73 CA         20.2420    4.8590   23.9310 C.3       6 GLP5        0.0000 
     74 CA         25.0602    9.4632   21.5592 C.3       3 GLC5        0.0000 
     75 CA         23.1040    9.9030   21.1450 C.3       9 GLL5        0.0000 
     76 CA         23.7925   14.8630   22.2608 C.3       3 GLC5        0.0000 
     77 CA         23.5860   13.0410   23.4660 C.3       9 GLL5        0.0000 
     78 CA         24.5020   16.1950   20.7240 C.3       6 GLP5        0.0000 
     79 CA         21.4435   15.5753   24.2007 C.3       3 GLC5        0.0000 
     80 CA         20.7770   17.4160   23.7510 C.3       6 GLP5        0.0000 
     81 CA         18.6415   13.5895   24.9737 C.3       3 GLC5        0.0000 
     82 CA         20.4620   12.7950   24.7960 C.3       9 GLL5        0.0000 
     83 CA         17.2080   14.7000   24.6790 C.3       6 GLP5        0.0000 
     84 CA         20.9689   10.5371   26.4258 C.3       3 GLC5        0.0000 
@<TRIPOS>BOND
@<TRIPOS>SUBSTRUCTURE
     1 ALC1       15 GROUP        1 X    ALC  0     ROOT ALC X 1
     2 SEC2       18 GROUP        1 X    SEC  0     **** SEC X 2
     3 GLC5        1 GROUP        1 X    GLC  0     **** GLC X 6
     4 ALP1       17 GROUP        1 Y    ALP  0     ROOT ALP Y 8
     5 SEP2       20 GROUP        1 Y    SEP  0     **** SEP Y 9
     6 GLP5        3 GROUP        1 Y    GLP  0     **** GLP Y 13
     7 ALL1       16 GROUP        1 Z    ALL  0     ROOT ALL Z 15
     8 SEL2       19 GROUP        1 Z    SEL  0     **** SEL Z 16
     9 GLL5        2 GROUP        1 Z    GLL  0     **** GLL Z 20
@<TRIPOS>SET

