#    Name: 1ppl_1Z7_1_ligand
#    Modification time : Mon Mar 24 22:02:18 2014

@<TRIPOS>MOLECULE
1ppl_1Z7_1_ligand
   91    91     1     0     0
SMALL
NO_CHARGES


@<TRIPOS>ATOM
      1 CA         15.9420    4.1260   17.4870 C.3       1 1Z7324      0.0000 
      2 CB         14.6430    3.6540   18.1870 C.3       1 1Z7324      0.0000 
      3 CG1        14.3150    4.8410   19.0870 C.3       1 1Z7324      0.0000 
      4 CG2        13.4600    3.5320   17.2680 C.3       1 1Z7324      0.0000 
      5 C          17.0680    4.4480   18.4850 C.2       1 1Z7324      0.0000 
      6 O          17.1950    3.6450   19.4790 O.2       1 1Z7324      0.0000 
      7 N          17.8820    5.4490   18.3940 N.am      1 1Z7324      0.0000 
      8 CA1        19.0160    5.6420   19.2870 C.3       1 1Z7324      0.0000 
      9 C1         18.9210    6.9900   19.9870 C.2       1 1Z7324      0.0000 
     10 O1         18.1180    7.8830   19.5600 O.2       1 1Z7324      0.0000 
     11 CB1        20.2910    5.6330   18.3540 C.3       1 1Z7324      0.0000 
     12 CG11       20.4610    4.2100   17.8010 C.3       1 1Z7324      0.0000 
     13 CG21       20.2290    6.5910   17.1820 C.3       1 1Z7324      0.0000 
     14 N1         19.6870    7.0590   21.0610 N.am      1 1Z7324      0.0000 
     15 CA2        19.6540    8.3980   21.7970 C.3       1 1Z7324      0.0000 
     16 C2         21.1900    8.6890   21.9870 C.2       1 1Z7324      0.0000 
     17 O2         21.7700    8.0720   22.8770 O.2       1 1Z7324      0.0000 
     18 CB2        18.9620    8.2550   23.1180 C.3       1 1Z7324      0.0000 
     19 CG12       18.8480    9.6640   23.8070 C.3       1 1Z7324      0.0000 
     20 CG22       17.5350    7.7840   22.8850 C.3       1 1Z7324      0.0000 
     21 CA3        23.1040    9.9030   21.1450 C.3       1 1Z7324      0.0000 
     22 CB3        23.8890    9.3340   19.9240 C.3       1 1Z7324      0.0000 
     23 CG         23.7360    7.8390   19.5170 C.3       1 1Z7324      0.0000 
     24 CD1        24.1350    7.6160   18.0600 C.3       1 1Z7324      0.0000 
     25 CD2        24.1760    6.8870   20.5840 C.3       1 1Z7324      0.0000 
     26 N2         21.7090    9.5240   21.1100 N.am      1 1Z7324      0.0000 
     27 P          23.3210   11.6840   21.2810 P.3       1 1Z7324      0.0000 
     28 O11        24.7520   12.0150   21.1000 O.co2     1 1Z7324      0.0000 
     29 O21        22.4510   12.2770   20.2720 O.co2     1 1Z7324      0.0000 
     30 CA4        23.5860   13.0410   23.4660 C.3       1 1Z7324      0.0000 
     31 CB4        22.5800   14.0210   24.1290 C.3       1 1Z7324      0.0000 
     32 CG3        21.6400   13.4480   25.1720 C.ar      1 1Z7324      0.0000 
     33 CD11       21.9520   13.5400   26.5200 C.ar      1 1Z7324      0.0000 
     34 CD21       20.4620   12.7950   24.7960 C.ar      1 1Z7324      0.0000 
     35 CE1        21.0920   12.9630   27.4590 C.ar      1 1Z7324      0.0000 
     36 CE2        19.6880   12.1630   25.7410 C.ar      1 1Z7324      0.0000 
     37 CZ         19.9430   12.2840   27.0690 C.ar      1 1Z7324      0.0000 
     38 C3         24.3990   12.3760   24.6000 C.2       1 1Z7324      0.0000 
     39 CS         25.9890   12.6670   26.3900 C.3       1 1Z7324      0.0000 
     40 OP         22.9280   11.9630   22.7000 O.3       1 1Z7324      0.0000 
     41 OS         25.1990   13.2320   25.3720 O.3       1 1Z7324      0.0000 
     42 O3         24.3280   11.1650   24.8400 O.2       1 1Z7324      0.0000 
     43 H          15.7189    5.0188   16.8976 H         1 1Z7324      0.0000 
     44 H          16.2796    3.3404   16.8064 H         1 1Z7324      0.0000 
     45 H          14.8094    2.8245   18.7627 H         1 1Z7324      0.0000 
     46 H          17.7762    6.2018   17.6564 H         1 1Z7324      0.0000 
     47 H          19.1173    4.8616   19.9780 H         1 1Z7324      0.0000 
     48 H          21.1522    5.8485   18.9648 H         1 1Z7324      0.0000 
     49 H          20.2710    6.3604   21.4420 H         1 1Z7324      0.0000 
     50 H          19.2517    9.1282   21.1851 H         1 1Z7324      0.0000 
     51 H          19.4619    7.6040   23.7598 H         1 1Z7324      0.0000 
     52 H          23.5995    9.5526   22.0598 H         1 1Z7324      0.0000 
     53 H          24.9834    9.5363   20.0934 H         1 1Z7324      0.0000 
     54 H          23.6348    9.9647   19.0268 H         1 1Z7324      0.0000 
     55 H          22.5498    7.7334   19.4938 H         1 1Z7324      0.0000 
     56 H          21.1404    9.9555   20.3442 H         1 1Z7324      0.0000 
     57 H          24.2644   13.5948   22.8614 H         1 1Z7324      0.0000 
     58 H          21.9804   14.4944   23.3161 H         1 1Z7324      0.0000 
     59 H          23.1661   14.8547   24.5827 H         1 1Z7324      0.0000 
     60 H          22.7984   14.0223   26.8282 H         1 1Z7324      0.0000 
     61 H          20.1813   12.7931   23.8035 H         1 1Z7324      0.0000 
     62 H          21.3188   13.0449   28.4678 H         1 1Z7324      0.0000 
     63 H          18.8823   11.5745   25.4200 H         1 1Z7324      0.0000 
     64 H          19.3169   11.8920   27.7749 H         1 1Z7324      0.0000 
     65 H          15.1112    5.1391   19.6135 H         1 1Z7324      0.0000 
     66 H          13.9996    5.6304   18.5603 H         1 1Z7324      0.0000 
     67 H          13.5946    4.6206   19.7446 H         1 1Z7324      0.0000 
     68 H          13.2362    4.4041   16.8329 H         1 1Z7324      0.0000 
     69 H          13.6258    2.8726   16.5347 H         1 1Z7324      0.0000 
     70 H          12.6410    3.2288   17.7551 H         1 1Z7324      0.0000 
     71 H          21.2580    4.1373   17.2015 H         1 1Z7324      0.0000 
     72 H          20.5825    3.5393   18.5327 H         1 1Z7324      0.0000 
     73 H          19.6658    3.9213   17.2678 H         1 1Z7324      0.0000 
     74 H          21.0574    6.5486   16.6234 H         1 1Z7324      0.0000 
     75 H          19.4577    6.3897   16.5782 H         1 1Z7324      0.0000 
     76 H          20.1264    7.5393   17.4825 H         1 1Z7324      0.0000 
     77 H          19.7464   10.0732   23.9666 H         1 1Z7324      0.0000 
     78 H          18.3270   10.3095   23.2485 H         1 1Z7324      0.0000 
     79 H          18.3898    9.6077   24.6941 H         1 1Z7324      0.0000 
     80 H          17.5072    6.9011   22.4163 H         1 1Z7324      0.0000 
     81 H          17.0347    7.6757   23.7441 H         1 1Z7324      0.0000 
     82 H          17.0176    8.4301   22.3239 H         1 1Z7324      0.0000 
     83 H          25.0853    7.8774   17.8910 H         1 1Z7324      0.0000 
     84 H          24.0428    6.6569   17.7923 H         1 1Z7324      0.0000 
     85 H          23.5680    8.1510   17.4336 H         1 1Z7324      0.0000 
     86 H          25.1383    7.0164   20.8234 H         1 1Z7324      0.0000 
     87 H          23.6469    7.0012   21.4248 H         1 1Z7324      0.0000 
     88 H          24.0705    5.9345   20.2984 H         1 1Z7324      0.0000 
     89 H          26.6439   12.0041   26.0272 H         1 1Z7324      0.0000 
     90 H          26.5159   13.3615   26.8799 H         1 1Z7324      0.0000 
     91 H          25.4328   12.1879   27.0690 H         1 1Z7324      0.0000 
@<TRIPOS>BOND
     1    2    1 1    
     2    5    1 1    
     3   43    1 1    
     4   44    1 1    
     5    3    2 1    
     6    4    2 1    
     7   45    2 1    
     8   65    3 1    
     9   66    3 1    
    10   67    3 1    
    11   68    4 1    
    12   69    4 1    
    13   70    4 1    
    14    6    5 2    
    15    7    5 am   
    16    8    7 1    
    17   46    7 1    
    18    9    8 1    
    19   11    8 1    
    20   47    8 1    
    21   10    9 2    
    22   14    9 am   
    23   12   11 1    
    24   13   11 1    
    25   48   11 1    
    26   71   12 1    
    27   72   12 1    
    28   73   12 1    
    29   74   13 1    
    30   75   13 1    
    31   76   13 1    
    32   15   14 1    
    33   49   14 1    
    34   16   15 1    
    35   18   15 1    
    36   50   15 1    
    37   17   16 2    
    38   26   16 am   
    39   19   18 1    
    40   20   18 1    
    41   51   18 1    
    42   77   19 1    
    43   78   19 1    
    44   79   19 1    
    45   80   20 1    
    46   81   20 1    
    47   82   20 1    
    48   22   21 1    
    49   26   21 1    
    50   27   21 1    
    51   52   21 1    
    52   23   22 1    
    53   53   22 1    
    54   54   22 1    
    55   24   23 1    
    56   25   23 1    
    57   55   23 1    
    58   83   24 1    
    59   84   24 1    
    60   85   24 1    
    61   86   25 1    
    62   87   25 1    
    63   88   25 1    
    64   56   26 1    
    65   28   27 ar   
    66   29   27 ar   
    67   40   27 1    
    68   31   30 1    
    69   38   30 1    
    70   40   30 1    
    71   57   30 1    
    72   32   31 1    
    73   58   31 1    
    74   59   31 1    
    75   33   32 ar   
    76   34   32 ar   
    77   35   33 ar   
    78   60   33 1    
    79   36   34 ar   
    80   61   34 1    
    81   37   35 ar   
    82   62   35 1    
    83   37   36 ar   
    84   63   36 1    
    85   64   37 1    
    86   41   38 1    
    87   42   38 2    
    88   41   39 1    
    89   89   39 1    
    90   90   39 1    
    91   91   39 1    
@<TRIPOS>SUBSTRUCTURE
     1 1Z7324      1 GROUP   
@<TRIPOS>SET

