#    Name: 1c0u_BM5_1_INTS_M
#    Modification time : Mon Mar 24 20:06:17 2014

@<TRIPOS>MOLECULE
1c0u_BM5_1_INTS_M
   54     0     3     0     0
SMALL
NO_CHARGES


@<TRIPOS>ATOM
      1 CA          2.0295  -38.2955   22.9165 C.3       1 GLC5        0.0000 
      2 CA          0.9310  -36.8340   24.2120 C.3       3 GLL5        0.0000 
      3 CA          3.1280  -39.7570   21.6210 C.3       2 GLP5        0.0000 
      4 CA          2.3245  -36.7975   25.6995 C.3       1 GLC5        0.0000 
      5 CA          3.7180  -36.7610   27.1870 C.3       2 GLP5        0.0000 
      6 CA         -4.1940  -31.6010   23.9830 C.3       1 GLC5        0.0000 
      7 CA         -3.8340  -33.3460   22.9120 C.3       3 GLL5        0.0000 
      8 CA         -4.5540  -29.8560   25.0540 C.3       2 GLP5        0.0000 
      9 CA         -2.5450  -31.8310   24.6215 C.3       1 GLC5        0.0000 
     10 CA         -2.9940  -33.8490   23.9320 C.3       3 GLL5        0.0000 
     11 CA         -2.0960  -29.8130   25.3110 C.3       2 GLP5        0.0000 
     12 CA         -0.2575  -32.8485   23.7220 C.3       1 GLC5        0.0000 
     13 CA         -0.1530  -34.1930   25.4060 C.3       3 GLL5        0.0000 
     14 CA         -0.3620  -31.5040   22.0380 C.3       2 GLP5        0.0000 
     15 CA          3.4300  -31.8290   24.9380 C.3       1 GLC5        0.0000 
     16 CA          1.6730  -32.5680   25.8220 C.3       3 GLL5        0.0000 
     17 CA          5.1870  -31.0900   24.0540 C.3       2 GLP5        0.0000 
     18 CA          2.6855  -33.9045   22.1635 C.3       1 GLC5        0.0000 
     19 CA          3.4710  -35.3090   22.7670 C.3       3 GLL5        0.0000 
     20 CA          1.9000  -32.5000   21.5600 C.3       2 GLP5        0.0000 
     21 CA          5.0035  -34.8570   21.9970 C.3       1 GLC5        0.0000 
     22 CA          6.5360  -34.4050   21.2270 C.3       2 GLP5        0.0000 
     23 CA         -2.8535  -36.3635   25.3430 C.3       1 GLC5        0.0000 
     24 CA         -0.8010  -35.2680   24.4540 C.3       3 GLL5        0.0000 
     25 CA         -4.6480  -36.6680   25.8110 C.3       2 GLP5        0.0000 
     26 CA         -0.4542  -36.9123   26.8398 C.3       1 GLC5        0.0000 
     27 CA         -1.3170  -36.8500   25.2960 C.3       3 GLL5        0.0000 
     28 CA         -0.2410  -36.5090   28.7550 C.3       2 GLP5        0.0000 
     29 CA         -1.0802  -39.0003   25.8963 C.3       1 GLC5        0.0000 
     30 CA         -1.4930  -40.6850   26.8680 C.3       2 GLP5        0.0000 
     31 CA         -1.7997  -38.8192   24.1617 C.3       1 GLC5        0.0000 
     32 CA         -0.0180  -37.7810   24.5530 C.3       3 GLL5        0.0000 
     33 CA         -2.9320  -40.3230   23.3990 C.3       2 GLP5        0.0000 
     34 CA         -1.2083  -33.1153   21.8905 C.3       1 GLC5        0.0000 
     35 CA         -1.6380  -34.9780   22.2540 C.3       3 GLL5        0.0000 
     36 CA         -3.7938  -35.6698   22.5970 C.3       1 GLC5        0.0000 
     37 CA         -2.4710  -34.4750   21.2320 C.3       3 GLL5        0.0000 
     38 CA         -5.5330  -36.6130   23.4510 C.3       2 GLP5        0.0000 
     39 CA         -3.5450  -35.4625   24.7870 C.3       1 GLC5        0.0000 
     40 CA         -1.8900  -34.6650   23.5940 C.3       3 GLL5        0.0000 
     41 CA         -2.0322  -32.5025   22.1373 C.3       1 GLC5        0.0000 
     42 CA         -3.0029  -35.9551   20.7300 C.3       1 GLC5        0.0000 
     43 CA         -3.5710  -33.6560   21.5610 C.3       3 GLL5        0.0000 
     44 CA         -3.1930  -37.7190   19.8080 C.3       2 GLP5        0.0000 
     45 CA         -4.6178  -35.0570   22.8438 C.3       1 GLC5        0.0000 
     46 CA         -5.6227  -33.8760   21.7207 C.3       1 GLC5        0.0000 
     47 CA         -7.5430  -34.2510   21.2050 C.3       2 GLP5        0.0000 
     48 CA         -1.2659  -32.9559   23.0080 C.3       1 GLC5        0.0000 
     49 CA          1.6267  -32.7717   23.4880 C.3       1 GLC5        0.0000 
     50 CA          1.0340  -33.5190   25.0100 C.3       3 GLL5        0.0000 
     51 CA         -0.7923  -31.2075   26.2975 C.3       1 GLC5        0.0000 
     52 CA          1.1010  -32.2780   27.0740 C.3       3 GLL5        0.0000 
     53 CA         -0.2469  -34.9950   27.7599 C.3       1 GLC5        0.0000 
     54 CA         -0.0780  -32.9260   27.4940 C.3       3 GLL5        0.0000 
@<TRIPOS>BOND
@<TRIPOS>SUBSTRUCTURE
     1 GLC5        1 GROUP        1 X    GLC  0     ROOT GLC X 6
     2 GLP5        3 GROUP        1 Y    GLP  0     ROOT GLP Y 13
     3 GLL5        2 GROUP        1 Z    GLL  0     ROOT GLL Z 20
@<TRIPOS>SET

