#    Name: 1c0u_BM5_1_ligand
#    Modification time : Mon Mar 24 20:06:17 2014

@<TRIPOS>MOLECULE
1c0u_BM5_1_ligand
   38    41     1     0     0
SMALL
NO_CHARGES


@<TRIPOS>ATOM
      1 S1         -1.3170  -36.8500   25.2960 S.3       1 BM5999      0.0000 
      2 C2         -0.0180  -37.7810   24.5530 C.3       1 BM5999      0.0000 
      3 C3          0.9310  -36.8340   24.2120 C.3       1 BM5999      0.0000 
      4 C5         -0.8010  -35.2680   24.4540 C.3       1 BM5999      0.0000 
      5 N4          0.1250  -35.8040   23.4430 N.am      1 BM5999      0.0000 
      6 C6         -0.4810  -35.8620   22.1810 C.2       1 BM5999      0.0000 
      7 OE         -0.1070  -36.5310   21.2480 O.2       1 BM5999      0.0000 
      8 C7         -1.6380  -34.9780   22.2540 C.ar      1 BM5999      0.0000 
      9 C12        -1.8900  -34.6650   23.5940 C.ar      1 BM5999      0.0000 
     10 C8         -2.4710  -34.4750   21.2320 C.ar      1 BM5999      0.0000 
     11 C9         -3.5710  -33.6560   21.5610 C.ar      1 BM5999      0.0000 
     12 C10        -3.8340  -33.3460   22.9120 C.ar      1 BM5999      0.0000 
     13 C11        -2.9940  -33.8490   23.9320 C.ar      1 BM5999      0.0000 
     14 C13        -0.1530  -34.1930   25.4060 C.ar      1 BM5999      0.0000 
     15 C14         1.0340  -33.5190   25.0100 C.ar      1 BM5999      0.0000 
     16 C15         1.6730  -32.5680   25.8220 C.ar      1 BM5999      0.0000 
     17 C16         1.1010  -32.2780   27.0740 C.ar      1 BM5999      0.0000 
     18 C17        -0.0780  -32.9260   27.4940 C.ar      1 BM5999      0.0000 
     19 C18        -0.7020  -33.8790   26.6650 C.ar      1 BM5999      0.0000 
     20 CA          2.3890  -37.0520   23.7850 C.2       1 BM5999      0.0000 
     21 OB          3.2110  -37.6690   24.4210 O.2       1 BM5999      0.0000 
     22 OC          2.6490  -36.4650   22.6050 O.3       1 BM5999      0.0000 
     23 CD          3.4710  -35.3090   22.7670 C.3       1 BM5999      0.0000 
     24 H          -0.5296  -38.2590   23.7508 H         1 BM5999      0.0000 
     25 H           0.2365  -38.4557   25.3365 H         1 BM5999      0.0000 
     26 H           1.0567  -36.1915   25.2611 H         1 BM5999      0.0000 
     27 H          -2.2774  -34.7038   20.2562 H         1 BM5999      0.0000 
     28 H          -4.1743  -33.2890   20.8251 H         1 BM5999      0.0000 
     29 H          -4.6328  -32.7569   23.1552 H         1 BM5999      0.0000 
     30 H          -3.1837  -33.6241   24.9076 H         1 BM5999      0.0000 
     31 H           1.4405  -33.7443   24.0794 H         1 BM5999      0.0000 
     32 H           2.5169  -32.1061   25.5176 H         1 BM5999      0.0000 
     33 H           1.5466  -31.5866   27.6897 H         1 BM5999      0.0000 
     34 H          -0.4838  -32.7024   28.4083 H         1 BM5999      0.0000 
     35 H          -1.5580  -34.3454   26.9787 H         1 BM5999      0.0000 
     36 H           4.3507  -35.5345   23.1855 H         1 BM5999      0.0000 
     37 H           3.6675  -34.8674   21.8916 H         1 BM5999      0.0000 
     38 H           3.0362  -34.6229   23.3503 H         1 BM5999      0.0000 
@<TRIPOS>BOND
     1    2    1 1    
     2    4    1 1    
     3    3    2 1    
     4   24    2 1    
     5   25    2 1    
     6    5    3 1    
     7   20    3 1    
     8   26    3 1    
     9    5    4 1    
    10    9    4 1    
    11   14    4 1    
    12    6    5 am   
    13    7    6 2    
    14    8    6 1    
    15    9    8 ar   
    16   10    8 ar   
    17   13    9 ar   
    18   11   10 ar   
    19   27   10 1    
    20   12   11 ar   
    21   28   11 1    
    22   13   12 ar   
    23   29   12 1    
    24   30   13 1    
    25   15   14 ar   
    26   19   14 ar   
    27   16   15 ar   
    28   31   15 1    
    29   17   16 ar   
    30   32   16 1    
    31   18   17 ar   
    32   33   17 1    
    33   19   18 ar   
    34   34   18 1    
    35   35   19 1    
    36   21   20 2    
    37   22   20 1    
    38   23   22 1    
    39   36   23 1    
    40   37   23 1    
    41   38   23 1    
@<TRIPOS>SUBSTRUCTURE
     1 BM5999      1 GROUP   
@<TRIPOS>SET

