#    Name: 3vsp_EK8_1_INTS_M
#    Modification time : Tue Mar 25 01:30:35 2014

@<TRIPOS>MOLECULE
3vsp_EK8_1_INTS_M
   98     0     6     0     0
SMALL
NO_CHARGES


@<TRIPOS>ATOM
      1 CA         19.7930   75.0845    9.1965 C.3       2 GLC5        0.0000 
      2 CA         18.0840   75.7290    8.7520 C.3       6 GLL5        0.0000 
      3 CA         21.5020   74.4400    9.6410 C.3       4 GLP5        0.0000 
      4 CA         19.0220   75.2555    4.8565 C.3       2 GLC5        0.0000 
      5 CA         17.5790   74.7850    6.4300 C.3       6 GLL5        0.0000 
      6 CA         20.4650   75.7260    3.2830 C.3       4 GLP5        0.0000 
      7 CA         18.6420   73.0855    5.6130 C.3       2 GLC5        0.0000 
      8 CA         19.7050   71.3860    4.7960 C.3       4 GLP5        0.0000 
      9 CA         19.7525   72.1355    8.7490 C.3       2 GLC5        0.0000 
     10 CA         17.6060   72.2010    8.5870 C.3       6 GLL5        0.0000 
     11 CA         21.8990   72.0700    8.9110 C.3       4 GLP5        0.0000 
     12 CA         16.6535   71.5585    6.6840 C.3       2 GLC5        0.0000 
     13 CA         15.7010   70.9160    4.7810 C.3       4 GLP5        0.0000 
     14 CA         18.6555   71.7935    6.6915 C.3       2 GLC5        0.0000 
     15 CA         18.3785   70.6920   10.6655 C.3       2 GLC5        0.0000 
     16 CA         16.9930   71.0040    9.1630 C.3       6 GLL5        0.0000 
     17 CA         19.7640   70.3800   12.1680 C.3       4 GLP5        0.0000 
     18 CA         16.3615   69.7060    7.8905 C.3       2 GLC5        0.0000 
     19 CA         15.7300   68.4080    6.6180 C.3       4 GLP5        0.0000 
     20 CA         16.5670   69.6025   12.7415 C.3       2 GLC5        0.0000 
     21 CA         15.5000   67.9610   11.7570 C.3       6 GLL5        0.0000 
     22 CA         17.6340   71.2440   13.7260 C.3       4 GLP5        0.0000 
     23 CA         14.0180   68.6630   12.4410 C.3       2 GLC5        0.0000 
     24 CA         12.5360   69.3650   13.1250 C.3       4 GLP5        0.0000 
     25 CA         18.8175   68.6925   12.1000 C.3       2 GLC5        0.0000 
     26 CA         17.8710   67.0050   12.0320 C.3       6 GLL5        0.0000 
     27 CA         19.2075   65.5870   11.4410 C.3       2 GLC5        0.0000 
     28 CA         20.5440   64.1690   10.8500 C.3       4 GLP5        0.0000 
     29 CA         17.4640   68.2780    7.1865 C.3       2 GLC5        0.0000 
     30 CA         19.1980   68.1480    7.7550 C.3       6 GLL5        0.0000 
     31 CA         19.9655   69.1325    6.5875 C.3       2 GLC5        0.0000 
     32 CA         20.7330   70.1170    5.4200 C.3       4 GLP5        0.0000 
     33 CA         16.0475   65.3855   17.0810 C.3       2 GLC5        0.0000 
     34 CA         17.2620   67.0350   16.4650 C.3       6 GLL5        0.0000 
     35 CA         14.8330   63.7360   17.6970 C.3       4 GLP5        0.0000 
     36 CA         17.9540   70.9400   17.2330 C.3       2 GLC5        0.0000 
     37 CA         18.5820   69.0950   17.2700 C.3       6 GLL5        0.0000 
     38 CA         17.3260   72.7850   17.1960 C.3       4 GLP5        0.0000 
     39 CA         17.5085   69.5165   18.0960 C.3       2 GLC5        0.0000 
     40 CA         19.7310   69.7150   18.0670 C.3       6 GLL5        0.0000 
     41 CA         15.2860   69.3180   18.1250 C.3       4 GLP5        0.0000 
     42 CA         20.4470   72.3195   21.8775 C.3       2 GLC5        0.0000 
     43 CA         20.5710   70.9390   20.1070 C.3       6 GLL5        0.0000 
     44 CA         20.3230   73.7000   23.6480 C.3       4 GLP5        0.0000 
     45 CA         14.4760   68.4235   13.6025 C.3       2 GLC5        0.0000 
     46 CA         16.4160   67.4820   14.0800 C.3       6 GLL5        0.0000 
     47 N          16.6945   68.1145   19.4640 N.am      1 SEC2        0.0000 
     48 N          18.0010   67.7800   19.6980 N.am      5 SEL2        0.0000 
     49 N          15.3880   68.4490   19.2300 N.am      3 SEP2        0.0000 
     50 N          17.6920   66.9890   21.0535 N.am      1 SEC2        0.0000 
     51 N          17.3830   66.1980   22.4090 N.am      3 SEP2        0.0000 
     52 CA         17.4718   75.5222   10.3803 C.3       2 GLC5        0.0000 
     53 CA         17.3090   74.6910   12.1510 C.3       4 GLP5        0.0000 
     54 CA         15.4863   74.8438    5.6240 C.3       2 GLC5        0.0000 
     55 CA         13.8130   74.2990    4.9840 C.3       4 GLP5        0.0000 
     56 CA         17.2625   73.7605   10.3338 C.3       2 GLC5        0.0000 
     57 CA         16.8260   73.4590    8.4460 C.3       6 GLL5        0.0000 
     58 CA         16.2080   73.7770   10.6740 C.3       2 GLC5        0.0000 
     59 CA         15.4110   73.4640    8.9090 C.3       6 GLL5        0.0000 
     60 CA         14.8555   70.4303    7.9102 C.3       2 GLC5        0.0000 
     61 CA         14.8030   72.2620    9.4850 C.3       6 GLL5        0.0000 
     62 CA         14.5130   69.2220    6.2670 C.3       4 GLP5        0.0000 
     63 CA         16.3255   65.2997   12.0323 C.3       2 GLC5        0.0000 
     64 CA         16.5970   67.4820   12.6130 C.3       6 GLL5        0.0000 
     65 CA         15.4170   63.3560   11.7420 C.3       4 GLP5        0.0000 
     66 CA         19.5637   69.0010   10.8592 C.3       2 GLC5        0.0000 
     67 CA         19.0550   67.9000   10.1690 C.3       6 GLL5        0.0000 
     68 CA         19.9537   65.8955   10.2003 C.3       2 GLC5        0.0000 
     69 CA         18.8765   66.2815    7.5612 C.3       2 GLC5        0.0000 
     70 CA         19.6720   67.3440    8.9320 C.3       6 GLL5        0.0000 
     71 CA         18.3180   64.8170    6.7790 C.3       4 GLP5        0.0000 
     72 CA         20.8760   66.9430    7.6877 C.3       2 GLC5        0.0000 
     73 CA         22.3170   66.1400    7.0320 C.3       4 GLP5        0.0000 
     74 CA         18.8855   68.4735   13.7200 C.3       2 GLC5        0.0000 
     75 CA         18.9420   66.5320   12.9510 C.3       6 GLL5        0.0000 
     76 CA         18.9180   70.4160   13.7650 C.3       4 GLP5        0.0000 
     77 CA         18.1040   64.5435   13.3980 C.3       2 GLC5        0.0000 
     78 CA         18.7640   66.5300   14.3990 C.3       6 GLL5        0.0000 
     79 CA         17.3550   62.5560   13.1210 C.3       4 GLP5        0.0000 
     80 CA         20.2260   65.7305   12.8870 C.3       2 GLC5        0.0000 
     81 CA         21.5990   64.9300   12.0990 C.3       4 GLP5        0.0000 
     82 CA         17.9591   68.8307   13.9631 C.3       2 GLC5        0.0000 
     83 CA         17.4940   67.0090   14.9760 C.3       6 GLL5        0.0000 
     84 CA         16.3320   68.1700   16.9228 C.3       2 GLC5        0.0000 
     85 CA         16.9028   68.8145   17.7127 C.3       2 GLC5        0.0000 
     86 CA         18.4570   67.5270   17.3310 C.3       6 GLL5        0.0000 
     87 CA         19.6133   71.8200   18.3457 C.3       2 GLC5        0.0000 
     88 CA         19.6110   73.6050   17.9900 C.3       4 GLP5        0.0000 
     89 CA         18.5847   71.2785   20.4202 C.3       2 GLC5        0.0000 
     90 CA         19.5000   70.3550   19.3360 C.3       6 GLL5        0.0000 
     91 CA         17.1340   71.9100   21.1190 C.3       4 GLP5        0.0000 
     92 CA         20.4275   72.2605   18.9220 C.3       2 GLC5        0.0000 
     93 CA         20.6253   71.7802   17.9590 C.3       2 GLC5        0.0000 
     94 CA         22.1840   70.2480   18.3130 C.3       6 GLL5        0.0000 
     95 CA         22.6560   70.0870   20.7238 C.3       2 GLC5        0.0000 
     96 CA         23.5980   69.5920   22.3640 C.3       4 GLP5        0.0000 
     97 CA         19.5219   69.9750   15.6854 C.3       2 GLC5        0.0000 
     98 CA         21.0950   69.6630   17.5430 C.3       6 GLL5        0.0000 
@<TRIPOS>BOND
@<TRIPOS>SUBSTRUCTURE
     1 SEC2       47 GROUP        1 X    SEC  0     ROOT SEC X 2
     2 GLC5        1 GROUP        1 X    GLC  0     **** GLC X 6
     3 SEP2       49 GROUP        1 Y    SEP  0     ROOT SEP Y 9
     4 GLP5        3 GROUP        1 Y    GLP  0     **** GLP Y 13
     5 SEL2       48 GROUP        1 Z    SEL  0     ROOT SEL Z 16
     6 GLL5        2 GROUP        1 Z    GLL  0     **** GLL Z 20
@<TRIPOS>SET

