#    Name: 3vsp_EK8_1_ligand
#    Modification time : Tue Mar 25 01:30:35 2014

@<TRIPOS>MOLECULE
3vsp_EK8_1_ligand
   75    78     1     0     0
SMALL
NO_CHARGES


@<TRIPOS>ATOM
      1 N89        17.4410   74.6010    7.8970 N.3       1 EK8501      0.0000 
      2 C80        18.0840   75.7290    8.7520 C.3       1 EK8501      0.0000 
      3 C81        17.1850   76.9780    8.4670 C.3       1 EK8501      0.0000 
      4 C82        17.2020   77.2670    6.9570 C.3       1 EK8501      0.0000 
      5 C83        16.7400   75.9920    6.0980 C.3       1 EK8501      0.0000 
      6 C84        17.5790   74.7850    6.4300 C.3       1 EK8501      0.0000 
      7 C99        17.6060   72.2010    8.5870 C.ar      1 EK8501      0.0000 
      8 C98        16.8260   73.4590    8.4460 C.ar      1 EK8501      0.0000 
      9 C19        15.4110   73.4640    8.9090 C.ar      1 EK8501      0.0000 
     10 C17        14.8030   72.2620    9.4850 C.ar      1 EK8501      0.0000 
     11 C87        15.5930   71.0150    9.6220 C.ar      1 EK8501      0.0000 
     12 C22        16.9930   71.0040    9.1630 C.ar      1 EK8501      0.0000 
     13 C97        15.0130   69.8620   10.1790 C.2       1 EK8501      0.0000 
     14 O99        13.8410   69.4980    9.8960 O.2       1 EK8501      0.0000 
     15 N99        15.8790   69.1880   11.0600 N.am      1 EK8501      0.0000 
     16 C15        15.5000   67.9610   11.7570 C.3       1 EK8501      0.0000 
     17 C8         16.5970   67.4820   12.6130 C.ar      1 EK8501      0.0000 
     18 C9         17.8710   67.0050   12.0320 C.ar      1 EK8501      0.0000 
     19 O3         18.0420   67.0070   10.6290 O.3       1 EK8501      0.0000 
     20 C12        19.0550   67.9000   10.1690 C.3       1 EK8501      0.0000 
     21 C13        19.6720   67.3440    8.9320 C.3       1 EK8501      0.0000 
     22 C14        19.1980   68.1480    7.7550 C.3       1 EK8501      0.0000 
     23 C10        18.9420   66.5320   12.9510 C.ar      1 EK8501      0.0000 
     24 C11        18.7640   66.5300   14.3990 C.ar      1 EK8501      0.0000 
     25 C6         17.4940   67.0090   14.9760 C.ar      1 EK8501      0.0000 
     26 C5         17.2620   67.0350   16.4650 C.3       1 EK8501      0.0000 
     27 C2         18.4570   67.5270   17.3310 C.3       1 EK8501      0.0000 
     28 C3         18.5820   69.0950   17.2700 C.3       1 EK8501      0.0000 
     29 C4         19.7310   69.7150   18.0670 C.ar      1 EK8501      0.0000 
     30 C51        19.5000   70.3550   19.3360 C.ar      1 EK8501      0.0000 
     31 C52        20.5710   70.9390   20.1070 C.ar      1 EK8501      0.0000 
     32 C53        21.9170   70.8930   19.6010 C.ar      1 EK8501      0.0000 
     33 C54        22.1840   70.2480   18.3130 C.ar      1 EK8501      0.0000 
     34 C55        21.0950   69.6630   17.5430 C.ar      1 EK8501      0.0000 
     35 C7         16.4160   67.4820   14.0800 C.ar      1 EK8501      0.0000 
     36 C1         18.1570   66.9340   18.6380 C.2       1 EK8501      0.0000 
     37 O1         18.0390   65.7320   18.8430 O.co2     1 EK8501      0.0000 
     38 O2         18.0010   67.7800   19.6980 O.co2     1 EK8501      0.0000 
     39 H          19.0624   75.9196    8.4102 H         1 EK8501      0.0000 
     40 H          18.0197   75.4803    9.7740 H         1 EK8501      0.0000 
     41 H          17.5845   77.8198    9.0035 H         1 EK8501      0.0000 
     42 H          16.1813   76.7599    8.7848 H         1 EK8501      0.0000 
     43 H          18.2047   77.5284    6.6379 H         1 EK8501      0.0000 
     44 H          16.5228   78.0796    6.7244 H         1 EK8501      0.0000 
     45 H          16.8414   76.2593    5.0524 H         1 EK8501      0.0000 
     46 H          15.6960   75.8143    6.3291 H         1 EK8501      0.0000 
     47 H          17.1990   73.9279    5.9067 H         1 EK8501      0.0000 
     48 H          18.6031   74.9764    6.1702 H         1 EK8501      0.0000 
     49 H          18.5630   72.1833    8.2806 H         1 EK8501      0.0000 
     50 H          14.8731   74.3101    8.8207 H         1 EK8501      0.0000 
     51 H          13.8476   72.2750    9.7906 H         1 EK8501      0.0000 
     52 H          17.5336   70.1556    9.2492 H         1 EK8501      0.0000 
     53 H          16.8281   69.5588   11.2364 H         1 EK8501      0.0000 
     54 H          15.2353   67.1793   11.0254 H         1 EK8501      0.0000 
     55 H          14.6031   68.1403   12.3733 H         1 EK8501      0.0000 
     56 H          19.8402   68.0347   10.9242 H         1 EK8501      0.0000 
     57 H          18.6396   68.8901    9.9409 H         1 EK8501      0.0000 
     58 H          19.3771   66.3058    8.8043 H         1 EK8501      0.0000 
     59 H          20.7552   67.4027    8.9986 H         1 EK8501      0.0000 
     60 H          19.8127   66.2054   12.5484 H         1 EK8501      0.0000 
     61 H          19.4932   66.2077   15.0017 H         1 EK8501      0.0000 
     62 H          16.9861   66.0184   16.8168 H         1 EK8501      0.0000 
     63 H          16.3894   67.6824   16.6947 H         1 EK8501      0.0000 
     64 H          19.3386   67.0788   16.9064 H         1 EK8501      0.0000 
     65 H          17.6211   69.5215   17.6196 H         1 EK8501      0.0000 
     66 H          18.6780   69.3822   16.2042 H         1 EK8501      0.0000 
     67 H          18.5429   70.3979   19.7054 H         1 EK8501      0.0000 
     68 H          20.3752   71.3760   20.9944 H         1 EK8501      0.0000 
     69 H          22.6773   71.2974   20.1190 H         1 EK8501      0.0000 
     70 H          23.1274   70.2108   17.9612 H         1 EK8501      0.0000 
     71 H          21.2769   69.2268   16.6590 H         1 EK8501      0.0000 
     72 H          15.5507   67.8070   14.4739 H         1 EK8501      0.0000 
     73 H          19.4561   69.1108    7.8348 H         1 EK8501      0.0000 
     74 H          19.5835   67.8114    6.8959 H         1 EK8501      0.0000 
     75 H          18.2028   68.1181    7.6613 H         1 EK8501      0.0000 
@<TRIPOS>BOND
     1    2    1 1    
     2    6    1 1    
     3    8    1 1    
     4    3    2 1    
     5   39    2 1    
     6   40    2 1    
     7    4    3 1    
     8   41    3 1    
     9   42    3 1    
    10    5    4 1    
    11   43    4 1    
    12   44    4 1    
    13    6    5 1    
    14   45    5 1    
    15   46    5 1    
    16   47    6 1    
    17   48    6 1    
    18    8    7 ar   
    19   12    7 ar   
    20   49    7 1    
    21    9    8 ar   
    22   10    9 ar   
    23   50    9 1    
    24   11   10 ar   
    25   51   10 1    
    26   12   11 ar   
    27   13   11 1    
    28   52   12 1    
    29   14   13 2    
    30   15   13 am   
    31   16   15 1    
    32   53   15 1    
    33   17   16 1    
    34   54   16 1    
    35   55   16 1    
    36   18   17 ar   
    37   35   17 ar   
    38   19   18 1    
    39   23   18 ar   
    40   20   19 1    
    41   21   20 1    
    42   56   20 1    
    43   57   20 1    
    44   22   21 1    
    45   58   21 1    
    46   59   21 1    
    47   73   22 1    
    48   74   22 1    
    49   75   22 1    
    50   24   23 ar   
    51   60   23 1    
    52   25   24 ar   
    53   61   24 1    
    54   26   25 1    
    55   35   25 ar   
    56   27   26 1    
    57   62   26 1    
    58   63   26 1    
    59   28   27 1    
    60   36   27 1    
    61   64   27 1    
    62   29   28 1    
    63   65   28 1    
    64   66   28 1    
    65   30   29 ar   
    66   34   29 ar   
    67   31   30 ar   
    68   67   30 1    
    69   32   31 ar   
    70   68   31 1    
    71   33   32 ar   
    72   69   32 1    
    73   34   33 ar   
    74   70   33 1    
    75   71   34 1    
    76   72   35 1    
    77   37   36 ar   
    78   38   36 ar   
@<TRIPOS>SUBSTRUCTURE
     1 EK8501      1 GROUP   
@<TRIPOS>SET

