#    Name: 4dbw_511_1_INTS_M
#    Modification time : Tue Mar 25 09:35:04 2014

@<TRIPOS>MOLECULE
4dbw_511_1_INTS_M
   41     0     6     0     0
SMALL
NO_CHARGES


@<TRIPOS>ATOM
      1 CA         19.8775   24.5725   29.9670 C.3       2 GLC5        0.0000 
      2 CA         20.1760   22.9760   29.1670 C.3       6 GLL5        0.0000 
      3 CA         19.5790   26.1690   30.7670 C.3       4 GLP5        0.0000 
      4 CA         20.4935   22.5895   30.9220 C.3       2 GLC5        0.0000 
      5 CA         20.8110   22.2030   32.6770 C.3       4 GLP5        0.0000 
      6 N          17.6205   17.4830   20.9385 N.am      1 SEC2        0.0000 
      7 N          18.6070   17.8440   21.6310 N.am      5 SEL2        0.0000 
      8 N          16.6340   17.1220   20.2460 N.am      3 SEP2        0.0000 
      9 N          18.2740   19.2300   21.2815 N.am      1 SEC2        0.0000 
     10 N          17.9410   20.6160   20.9320 N.am      3 SEP2        0.0000 
     11 CA         19.4985   16.9455   20.6345 C.3       2 GLC5        0.0000 
     12 CA         20.5580   16.7390   22.5880 C.3       6 GLL5        0.0000 
     13 CA         18.4390   17.1520   18.6810 C.3       4 GLP5        0.0000 
     14 CA         21.4715   16.6060   24.1520 C.3       2 GLC5        0.0000 
     15 CA         22.3850   16.4730   25.7160 C.3       4 GLP5        0.0000 
     16 CA         19.2635   16.9665   23.6950 C.3       2 GLC5        0.0000 
     17 CA         17.9690   17.1940   24.8020 C.3       4 GLP5        0.0000 
     18 CA         24.3970   19.4570   17.7705 C.3       2 GLC5        0.0000 
     19 CA         25.9490   18.0370   18.4830 C.3       6 GLL5        0.0000 
     20 CA         22.8450   20.8770   17.0580 C.3       4 GLP5        0.0000 
     21 CA         25.8785   16.9840   20.3590 C.3       2 GLC5        0.0000 
     22 CA         25.8080   15.9310   22.2350 C.3       4 GLP5        0.0000 
     23 CA         22.5018   18.9663   19.6902 C.3       2 GLC5        0.0000 
     24 CA         23.0840   17.5760   20.7770 C.3       6 GLL5        0.0000 
     25 CA         21.3750   20.1000   18.9490 C.3       4 GLP5        0.0000 
     26 CA         22.8260   19.9485   19.9288 C.3       2 GLC5        0.0000 
     27 CA         24.5880   19.4090   20.4270 C.3       6 GLL5        0.0000 
     28 CA         21.8693   19.5080   20.5376 C.3       2 GLC5        0.0000 
     29 CA         22.8560   19.6380   22.0810 C.3       6 GLL5        0.0000 
     30 CA         20.0640   24.5980   24.7332 C.3       2 GLC5        0.0000 
     31 CA         21.1190   23.0740   25.2860 C.3       6 GLL5        0.0000 
     32 CA         19.2250   25.9350   23.5460 C.3       4 GLP5        0.0000 
     33 CA         18.7454   23.6299   27.3736 C.3       2 GLC5        0.0000 
     34 CA         20.6870   23.4480   26.5550 C.3       6 GLL5        0.0000 
     35 CA         16.9350   24.1660   27.2810 C.3       4 GLP5        0.0000 
     36 CA         21.7105   24.5525   26.7836 C.3       2 GLC5        0.0000 
     37 CA         20.6730   22.5030   27.5880 C.3       6 GLL5        0.0000 
     38 CA         22.6330   26.2230   26.8130 C.3       4 GLP5        0.0000 
     39 CA         22.0757   19.5410   27.9190 C.3       2 GLC5        0.0000 
     40 CA         21.0790   21.1890   27.3570 C.3       6 GLL5        0.0000 
     41 CA         22.8540   18.0790   29.1180 C.3       4 GLP5        0.0000 
@<TRIPOS>BOND
@<TRIPOS>SUBSTRUCTURE
     1 SEC2        6 GROUP        1 X    SEC  0     ROOT SEC X 2
     2 GLC5        1 GROUP        1 X    GLC  0     **** GLC X 6
     3 SEP2        8 GROUP        1 Y    SEP  0     ROOT SEP Y 9
     4 GLP5        3 GROUP        1 Y    GLP  0     **** GLP Y 13
     5 SEL2        7 GROUP        1 Z    SEL  0     ROOT SEL Z 16
     6 GLL5        2 GROUP        1 Z    GLL  0     **** GLL Z 20
@<TRIPOS>SET

