#    Name: 4dbw_511_1_ligand
#    Modification time : Tue Mar 25 09:35:04 2014

@<TRIPOS>MOLECULE
4dbw_511_1_ligand
   37    39     1     0     0
SMALL
NO_CHARGES


@<TRIPOS>ATOM
      1 CL1        20.1760   22.9760   29.1670 Cl        1 511402      0.0000 
      2 N01        22.0120   20.1370   23.0910 N.am      1 511402      0.0000 
      3 C02        21.0790   19.1260   23.3740 C.2       1 511402      0.0000 
      4 O01        18.6810   15.6090   21.7360 O.co2     1 511402      0.0000 
      5 C03        21.3090   18.0360   22.5860 C.2       1 511402      0.0000 
      6 O02        18.6070   17.8440   21.6310 O.co2     1 511402      0.0000 
      7 C04        23.0840   17.5760   20.7770 C.ar      1 511402      0.0000 
      8 O03        24.8370   17.4190   19.0840 O.3       1 511402      0.0000 
      9 C05        24.1730   18.0890   20.0860 C.ar      1 511402      0.0000 
     10 O04        22.6070   22.3100   23.0870 O.2       1 511402      0.0000 
     11 C06        24.5880   19.4090   20.4270 C.ar      1 511402      0.0000 
     12 C07        23.9660   20.1850   21.3900 C.ar      1 511402      0.0000 
     13 C08        22.4330   18.3520   21.7570 C.ar      1 511402      0.0000 
     14 C09        22.8560   19.6380   22.0810 C.ar      1 511402      0.0000 
     15 C10        20.5580   16.7390   22.5880 C.3       1 511402      0.0000 
     16 C11        19.2190   16.8320   21.8860 C.2       1 511402      0.0000 
     17 C12        25.9490   18.0370   18.4830 C.3       1 511402      0.0000 
     18 C13        22.0580   21.3960   23.7000 C.2       1 511402      0.0000 
     19 C14        21.5260   21.7530   25.0440 C.ar      1 511402      0.0000 
     20 C15        21.1190   23.0740   25.2860 C.ar      1 511402      0.0000 
     21 C16        20.6870   23.4480   26.5550 C.ar      1 511402      0.0000 
     22 C17        20.6730   22.5030   27.5880 C.ar      1 511402      0.0000 
     23 C18        21.0790   21.1890   27.3570 C.ar      1 511402      0.0000 
     24 C19        21.5160   20.8170   26.0830 C.ar      1 511402      0.0000 
     25 H          20.3827   19.2116   24.0358 H         1 511402      0.0000 
     26 H          22.7434   16.6263   20.5799 H         1 511402      0.0000 
     27 H          25.4137   19.8002   19.9093 H         1 511402      0.0000 
     28 H          24.2847   21.1222   21.6066 H         1 511402      0.0000 
     29 H          20.3937   16.4102   23.6273 H         1 511402      0.0000 
     30 H          21.1651   15.9612   22.0965 H         1 511402      0.0000 
     31 H          21.1418   23.7605   24.5237 H         1 511402      0.0000 
     32 H          20.3803   24.4080   26.7360 H         1 511402      0.0000 
     33 H          21.0575   20.5012   28.1143 H         1 511402      0.0000 
     34 H          21.8303   19.8554   25.9090 H         1 511402      0.0000 
     35 H          26.6699   18.2321   19.1480 H         1 511402      0.0000 
     36 H          26.3540   17.4623   17.7719 H         1 511402      0.0000 
     37 H          25.7037   18.9060   18.0532 H         1 511402      0.0000 
@<TRIPOS>BOND
     1   22    1 1    
     2    3    2 1    
     3   14    2 1    
     4   18    2 am   
     5    5    3 2    
     6   25    3 1    
     7   16    4 ar   
     8   13    5 1    
     9   15    5 1    
    10   16    6 ar   
    11    9    7 ar   
    12   13    7 ar   
    13   26    7 1    
    14    9    8 1    
    15   17    8 1    
    16   11    9 ar   
    17   18   10 2    
    18   12   11 ar   
    19   27   11 1    
    20   14   12 ar   
    21   28   12 1    
    22   14   13 ar   
    23   16   15 1    
    24   29   15 1    
    25   30   15 1    
    26   35   17 1    
    27   36   17 1    
    28   37   17 1    
    29   19   18 1    
    30   20   19 ar   
    31   24   19 ar   
    32   21   20 ar   
    33   31   20 1    
    34   22   21 ar   
    35   32   21 1    
    36   23   22 ar   
    37   24   23 ar   
    38   33   23 1    
    39   34   24 1    
@<TRIPOS>SUBSTRUCTURE
     1 511402      1 GROUP   
@<TRIPOS>SET

