#    Name: 1pk9_2FA_2_INTS_M
#    Modification time : Mon Mar 24 21:48:31 2014

@<TRIPOS>MOLECULE
1pk9_2FA_2_INTS_M
   46     0     9     0     0
SMALL
NO_CHARGES


@<TRIPOS>ATOM
      1 CA         72.0735   33.7605   -4.0570 C.3       3 GLC5        0.0000 
      2 CA         72.9280   32.1550   -4.4600 C.3       9 GLL5        0.0000 
      3 CA         71.2190   35.3660   -3.6540 C.3       6 GLP5        0.0000 
      4 CA         76.8260   35.3870   -3.7190 C.3       3 GLC5        0.0000 
      5 CA         75.2300   35.2230   -5.0160 C.3       9 GLL5        0.0000 
      6 CA         78.4220   35.5510   -2.4220 C.3       6 GLP5        0.0000 
      7 CA         76.4155   36.0725   -2.9185 C.3       3 GLC5        0.0000 
      8 CA         74.4090   36.5940   -3.4150 C.3       9 GLL5        0.0000 
      9 CA         74.5060   37.5050   -0.1850 C.3       3 GLC5        0.0000 
     10 CA         74.0350   36.8540   -2.1910 C.3       9 GLL5        0.0000 
     11 CA         74.9770   38.1560    1.8210 C.3       6 GLP5        0.0000 
     12 CA         72.6270   36.1100   -2.9225 C.3       3 GLC5        0.0000 
     13 O          74.5615   39.1330   -7.9140 O.2       1 ALC1        0.0000 
     14 O          74.5050   38.4800   -6.3800 O.2       7 ALL1        0.0000 
     15 O          74.6180   39.7860   -9.4480 O.2       4 ALP1        0.0000 
     16 CA         77.1845   36.1980   -6.5830 C.3       3 GLC5        0.0000 
     17 CA         75.1400   36.2150   -5.9770 C.3       9 GLL5        0.0000 
     18 CA         79.2290   36.1810   -7.1890 C.3       6 GLP5        0.0000 
     19 CA         77.2970   34.0080   -3.0325 C.3       3 GLC5        0.0000 
     20 CA         76.1720   32.4650   -3.6430 C.3       9 GLL5        0.0000 
     21 CA         76.0180   32.6715   -1.6825 C.3       3 GLC5        0.0000 
     22 CA         75.8640   32.8780    0.2780 C.3       6 GLP5        0.0000 
     23 N          77.6920   33.0190   -1.9525 N.am      2 SEC2        0.0000 
     24 N          77.5160   32.2140   -3.1460 N.am      8 SEL2        0.0000 
     25 N          77.8680   33.8240   -0.7590 N.am      5 SEP2        0.0000 
     26 O          78.1260   31.2820   -2.2730 O.2       1 ALC1        0.0000 
     27 O          77.5160   32.2140   -3.1460 O.2       7 ALL1        0.0000 
     28 O          78.7360   30.3500   -1.4000 O.2       4 ALP1        0.0000 
     29 CA         73.9050   29.6140   -2.9495 C.3       3 GLC5        0.0000 
     30 CA         75.1320   31.3450   -3.3380 C.3       9 GLL5        0.0000 
     31 CA         72.6780   27.8830   -2.5610 C.3       6 GLP5        0.0000 
     32 O          76.2835   29.7835   -2.0380 O.2       1 ALC1        0.0000 
     33 O          75.7680   30.0760   -3.2410 O.2       7 ALL1        0.0000 
     34 O          76.7990   29.4910   -0.8350 O.2       4 ALP1        0.0000 
     35 CA         72.4890   30.2925   -3.9777 C.3       3 GLC5        0.0000 
     36 CA         74.2260   31.3430   -4.5870 C.3       9 GLL5        0.0000 
     37 CA         71.4010   28.8360   -3.4320 C.3       6 GLP5        0.0000 
     38 CA         75.5270   38.2370   -2.4030 C.3       3 GLC5        0.0000 
     39 CA         76.8320   39.7500   -2.0030 C.3       6 GLP5        0.0000 
     40 CA         74.5495   35.3365   -1.4980 C.3       3 GLC5        0.0000 
     41 CA         74.8770   33.9490   -0.1930 C.3       6 GLP5        0.0000 
     42 CA         76.2022   38.1753   -6.7837 C.3       3 GLC5        0.0000 
     43 CA         74.6350   37.4620   -5.5480 C.3       9 GLL5        0.0000 
     44 CA         77.5170   39.5120   -7.8050 C.3       6 GLP5        0.0000 
     45 CA         73.8093   32.4165   -2.3234 C.3       3 GLC5        0.0000 
     46 CA         73.2640   33.2860   -0.7160 C.3       6 GLP5        0.0000 
@<TRIPOS>BOND
@<TRIPOS>SUBSTRUCTURE
     1 ALC1       13 GROUP        1 X    ALC  0     ROOT ALC X 1
     2 SEC2       23 GROUP        1 X    SEC  0     **** SEC X 2
     3 GLC5        1 GROUP        1 X    GLC  0     **** GLC X 6
     4 ALP1       15 GROUP        1 Y    ALP  0     ROOT ALP Y 8
     5 SEP2       25 GROUP        1 Y    SEP  0     **** SEP Y 9
     6 GLP5        3 GROUP        1 Y    GLP  0     **** GLP Y 13
     7 ALL1       14 GROUP        1 Z    ALL  0     ROOT ALL Z 15
     8 SEL2       24 GROUP        1 Z    SEL  0     **** SEL Z 16
     9 GLL5        2 GROUP        1 Z    GLL  0     **** GLL Z 20
@<TRIPOS>SET

