#    Name: 1pk9_2FA_2_ligand
#    Modification time : Mon Mar 24 21:48:31 2014

@<TRIPOS>MOLECULE
1pk9_2FA_2_ligand
   32    34     1     0     0
SMALL
NO_CHARGES


@<TRIPOS>ATOM
      1 O5'        72.1310   32.1220   -5.6650 O.3       1 2FA307      0.0000 
      2 C5'        72.9280   32.1550   -4.4600 C.3       1 2FA307      0.0000 
      3 C4'        74.2260   31.3430   -4.5870 C.3       1 2FA307      0.0000 
      4 O4'        75.0980   31.7860   -5.6780 O.3       1 2FA307      0.0000 
      5 C1'        76.0830   32.6980   -5.1940 C.3       1 2FA307      0.0000 
      6 N9         75.7540   34.0860   -5.6780 N.pl3     1 2FA307      0.0000 
      7 C4         75.2300   35.2230   -5.0160 C.ar      1 2FA307      0.0000 
      8 N3         74.8720   35.3600   -3.6990 N.ar      1 2FA307      0.0000 
      9 C2         74.4090   36.5940   -3.4150 C.ar      1 2FA307      0.0000 
     10 F          74.0350   36.8540   -2.1910 F         1 2FA307      0.0000 
     11 N1         74.2760   37.6260   -4.2560 N.ar      1 2FA307      0.0000 
     12 C6         74.6350   37.4620   -5.5480 C.ar      1 2FA307      0.0000 
     13 N6         74.5050   38.4800   -6.3800 N.pl3     1 2FA307      0.0000 
     14 C5         75.1400   36.2150   -5.9770 C.ar      1 2FA307      0.0000 
     15 N7         75.5810   35.7570   -7.2110 N.2       1 2FA307      0.0000 
     16 C8         75.9190   34.5200   -6.9510 C.2       1 2FA307      0.0000 
     17 C2'        76.1720   32.4650   -3.6430 C.3       1 2FA307      0.0000 
     18 O2'        77.5160   32.2140   -3.1460 O.3       1 2FA307      0.0000 
     19 C3'        75.1320   31.3450   -3.3380 C.3       1 2FA307      0.0000 
     20 O3'        75.7680   30.0760   -3.2410 O.3       1 2FA307      0.0000 
     21 H          72.3655   31.7508   -3.5986 H         1 2FA307      0.0000 
     22 H          73.2081   33.1910   -4.1953 H         1 2FA307      0.0000 
     23 H          73.9642   30.2858   -4.7714 H         1 2FA307      0.0000 
     24 H          77.0614   32.3977   -5.6063 H         1 2FA307      0.0000 
     25 H          74.8028   38.3199   -7.3211 H         1 2FA307      0.0000 
     26 H          74.1206   39.3182   -5.9931 H         1 2FA307      0.0000 
     27 H          76.2967   33.8848   -7.6682 H         1 2FA307      0.0000 
     28 H          75.7471   33.3879   -3.1938 H         1 2FA307      0.0000 
     29 H          74.5658   31.6243   -2.5123 H         1 2FA307      0.0000 
     30 H          72.7647   32.3603   -6.4009 H         1 2FA307      0.0000 
     31 H          77.4284   31.4100   -2.5579 H         1 2FA307      0.0000 
     32 H          76.0904   30.0198   -2.2961 H         1 2FA307      0.0000 
@<TRIPOS>BOND
     1    2    1 1    
     2   30    1 1    
     3    3    2 1    
     4   21    2 1    
     5   22    2 1    
     6    4    3 1    
     7   19    3 1    
     8   23    3 1    
     9    5    4 1    
    10    6    5 1    
    11   17    5 1    
    12   24    5 1    
    13    7    6 1    
    14   16    6 1    
    15    8    7 ar   
    16   14    7 ar   
    17    9    8 ar   
    18   10    9 1    
    19   11    9 ar   
    20   12   11 ar   
    21   13   12 1    
    22   14   12 ar   
    23   25   13 1    
    24   26   13 1    
    25   15   14 1    
    26   16   15 2    
    27   27   16 1    
    28   18   17 1    
    29   19   17 1    
    30   28   17 1    
    31   31   18 1    
    32   20   19 1    
    33   29   19 1    
    34   32   20 1    
@<TRIPOS>SUBSTRUCTURE
     1 2FA307      1 GROUP   
@<TRIPOS>SET

