#    Name: 4ev0_CMP_1_INTS_M
#    Modification time : Mon Mar 24 18:42:11 2014

@<TRIPOS>MOLECULE
4ev0_CMP_1_INTS_M
   40     0     6     0     0
SMALL
NO_CHARGES


@<TRIPOS>ATOM
      1 N          42.1530   43.3880   47.0725 N.am      1 SEC2        0.0000 
      2 N          40.9270   42.6120   46.6330 N.am      5 SEL2        0.0000 
      3 N          43.3790   44.1640   47.5120 N.am      3 SEP2        0.0000 
      4 N          41.4410   42.4200   45.2035 N.am      1 SEC2        0.0000 
      5 N          41.9550   42.2280   43.7740 N.am      3 SEP2        0.0000 
      6 N          40.0840   40.3210   49.2405 N.am      1 SEC2        0.0000 
      7 N          39.8740   41.6620   48.8190 N.am      5 SEL2        0.0000 
      8 N          40.2940   38.9800   49.6620 N.am      3 SEP2        0.0000 
      9 N          39.1165   41.1640   49.9490 N.am      1 SEC2        0.0000 
     10 N          38.3590   40.6660   51.0790 N.am      3 SEP2        0.0000 
     11 CA         38.1415   39.4100   45.3400 C.3       2 GLC5        0.0000 
     12 CA         37.7160   40.4530   46.7830 C.3       6 GLL5        0.0000 
     13 CA         38.5670   38.3670   43.8970 C.3       4 GLP5        0.0000 
     14 CA         37.6810   40.6390   45.0520 C.3       2 GLC5        0.0000 
     15 CA         36.8570   41.6640   46.8550 C.3       6 GLL5        0.0000 
     16 CA         38.5050   39.6140   43.2490 C.3       4 GLP5        0.0000 
     17 N          39.7315   44.5685   47.4405 N.am      1 SEC2        0.0000 
     18 N          38.5890   43.2590   47.3470 N.am      5 SEL2        0.0000 
     19 N          40.8740   45.8780   47.5340 N.am      3 SEP2        0.0000 
     20 N          36.8670   44.1900   45.3155 N.am      1 SEC2        0.0000 
     21 N          36.0880   44.3430   46.5620 N.am      5 SEL2        0.0000 
     22 N          37.6460   44.0370   44.0690 N.am      3 SEP2        0.0000 
     23 N          36.5310   45.4955   46.2875 N.am      1 SEC2        0.0000 
     24 N          36.9740   46.6480   46.0130 N.am      3 SEP2        0.0000 
     25 CA         33.7340   41.9325   46.6740 C.3       2 GLC5        0.0000 
     26 CA         35.0240   42.6370   47.8610 C.3       6 GLL5        0.0000 
     27 CA         32.4440   41.2280   45.4870 C.3       4 GLP5        0.0000 
     28 CA         32.1460   45.4980   50.2310 C.3       2 GLC5        0.0000 
     29 CA         31.1500   43.6670   49.9460 C.3       6 GLL5        0.0000 
     30 CA         33.1420   47.3290   50.5160 C.3       4 GLP5        0.0000 
     31 CA         36.4672   39.4177   47.6700 C.3       2 GLC5        0.0000 
     32 CA         35.6480   37.7770   48.5210 C.3       4 GLP5        0.0000 
     33 CA         38.0902   42.9750   45.6773 C.3       2 GLC5        0.0000 
     34 CA         39.0720   43.7600   44.0320 C.3       4 GLP5        0.0000 
     35 CA         38.2968   43.8885   48.9087 C.3       2 GLC5        0.0000 
     36 CA         37.3600   42.7160   47.7900 C.3       6 GLL5        0.0000 
     37 CA         39.8250   44.5890   50.0220 C.3       4 GLP5        0.0000 
     38 CA         32.8566   40.7662   50.4863 C.3       2 GLC5        0.0000 
     39 CA         33.2720   42.3690   51.0990 C.3       6 GLL5        0.0000 
     40 CA         32.7240   38.8770   50.3800 C.3       4 GLP5        0.0000 
@<TRIPOS>BOND
@<TRIPOS>SUBSTRUCTURE
     1 SEC2        1 GROUP        1 X    SEC  0     ROOT SEC X 2
     2 GLC5       11 GROUP        1 X    GLC  0     **** GLC X 6
     3 SEP2        3 GROUP        1 Y    SEP  0     ROOT SEP Y 9
     4 GLP5       13 GROUP        1 Y    GLP  0     **** GLP Y 13
     5 SEL2        2 GROUP        1 Z    SEL  0     ROOT SEL Z 16
     6 GLL5       12 GROUP        1 Z    GLL  0     **** GLL Z 20
@<TRIPOS>SET

