#    Name: 4ev0_CMP_1_ligand
#    Modification time : Mon Mar 24 18:42:11 2014

@<TRIPOS>MOLECULE
4ev0_CMP_1_ligand
   33    36     1     0     0
SMALL
NO_CHARGES


@<TRIPOS>ATOM
      1 P          39.7230   42.0750   47.3610 P.3       1 CMP301      0.0000 
      2 O1P        40.9270   42.6120   46.6330 O.co2     1 CMP301      0.0000 
      3 O2P        39.8740   41.6620   48.8190 O.co2     1 CMP301      0.0000 
      4 O5'        39.0620   40.8620   46.5300 O.3       1 CMP301      0.0000 
      5 C5'        37.7160   40.4530   46.7830 C.3       1 CMP301      0.0000 
      6 C4'        36.8570   41.6640   46.8550 C.3       1 CMP301      0.0000 
      7 O4'        35.5430   41.3980   47.3780 O.3       1 CMP301      0.0000 
      8 C3'        37.3600   42.7160   47.7900 C.3       1 CMP301      0.0000 
      9 O3'        38.5890   43.2590   47.3470 O.3       1 CMP301      0.0000 
     10 C2'        36.1770   43.6600   47.8010 C.3       1 CMP301      0.0000 
     11 O2'        36.0880   44.3430   46.5620 O.3       1 CMP301      0.0000 
     12 C1'        35.0240   42.6370   47.8610 C.3       1 CMP301      0.0000 
     13 N9         34.5180   42.4400   49.2300 N.pl3     1 CMP301      0.0000 
     14 C8         35.1790   41.8180   50.2180 C.2       1 CMP301      0.0000 
     15 N7         34.4420   41.7750   51.3560 N.2       1 CMP301      0.0000 
     16 C5         33.2720   42.3690   51.0990 C.ar      1 CMP301      0.0000 
     17 C6         32.0490   42.6410   51.8830 C.ar      1 CMP301      0.0000 
     18 N6         31.9640   42.2580   53.1880 N.pl3     1 CMP301      0.0000 
     19 N1         31.0470   43.2890   51.2420 N.ar      1 CMP301      0.0000 
     20 C2         31.1500   43.6670   49.9460 C.ar      1 CMP301      0.0000 
     21 N3         32.2360   43.4410   49.1780 N.ar      1 CMP301      0.0000 
     22 C4         33.3180   42.8060   49.6940 C.ar      1 CMP301      0.0000 
     23 H          37.6389   39.9066   47.7295 H         1 CMP301      0.0000 
     24 H          37.3433   39.8006   45.9856 H         1 CMP301      0.0000 
     25 H          36.7581   42.1217   45.8742 H         1 CMP301      0.0000 
     26 H          37.4139   42.2596   48.7690 H         1 CMP301      0.0000 
     27 H          36.1706   44.2254   48.6464 H         1 CMP301      0.0000 
     28 H          34.2389   42.9912   47.2168 H         1 CMP301      0.0000 
     29 H          36.0841   41.4383   50.1357 H         1 CMP301      0.0000 
     30 H          32.7871   41.8477   53.5807 H         1 CMP301      0.0000 
     31 H          31.0860   42.4210   53.6381 H         1 CMP301      0.0000 
     32 H          30.3191   44.1755   49.5061 H         1 CMP301      0.0000 
     33 H          35.2484   44.0025   46.1386 H         1 CMP301      0.0000 
@<TRIPOS>BOND
     1    2    1 ar   
     2    3    1 ar   
     3    4    1 1    
     4    9    1 1    
     5    5    4 1    
     6    6    5 1    
     7   23    5 1    
     8   24    5 1    
     9    7    6 1    
    10    8    6 1    
    11   25    6 1    
    12   12    7 1    
    13    9    8 1    
    14   10    8 1    
    15   26    8 1    
    16   11   10 1    
    17   12   10 1    
    18   27   10 1    
    19   33   11 1    
    20   13   12 1    
    21   28   12 1    
    22   14   13 1    
    23   22   13 1    
    24   15   14 2    
    25   29   14 1    
    26   16   15 1    
    27   17   16 ar   
    28   22   16 ar   
    29   18   17 1    
    30   19   17 ar   
    31   30   18 1    
    32   31   18 1    
    33   20   19 ar   
    34   21   20 ar   
    35   32   20 1    
    36   22   21 ar   
@<TRIPOS>SUBSTRUCTURE
     1 CMP301      1 GROUP   
@<TRIPOS>SET

