#    Name: 1OBG_1_CAVITY_N1_6.mol2
#    Modification time : Mon Mar 10 21:44:25 2014

@<TRIPOS>MOLECULE
1OBG_1_CAVITY_N1_6.mol2
   55     0     5     0     0
SMALL
NO_CHARGES


@<TRIPOS>ATOM
      1 CA          2.2991   17.4971   15.3945 C.3       4 GLY6        0.0000 
      2 CA          3.2338   16.3644   15.0889 C.3       4 GLY6        0.0000 
      3 CA          2.9741   19.7337   16.5312 C.3       4 GLY6        0.0000 
      4 CA          3.9087   18.6009   16.2257 C.3       4 GLY6        0.0000 
      5 CA          4.8433   17.4682   15.9201 C.3       4 GLY6        0.0000 
      6 DU          3.3053   18.4719   14.8584 H         5 CUB7        0.0000 
      7 CA          4.2399   17.3392   14.5529 C.3       4 GLY6        0.0000 
      8 OD1         4.9149   19.5757   15.6896 O.3       2 ASP3        0.0000 
      9 CA          5.8495   18.4430   15.3840 C.3       4 GLY6        0.0000 
     10 O           3.3769   20.5795   14.6280 O.2       1 ALA2        0.0000 
     11 O           4.3115   19.4467   14.3224 O.2       1 ALA2        0.0000 
     12 CA          5.2461   18.3140   14.0168 C.3       4 GLY6        0.0000 
     13 O           5.9211   20.5505   15.1535 O.2       1 ALA2        0.0000 
     14 O           6.8557   19.4178   14.8480 O.2       1 ALA2        0.0000 
     15 O           5.3177   20.4215   13.7863 O.2       1 ALA2        0.0000 
     16 O           6.2523   19.2888   13.4808 O.2       1 ALA2        0.0000 
     17 NZ          2.8451   22.5580   13.0303 N.2       3 LYS4        0.0000 
     18 O           3.7797   21.4252   12.7247 O.2       1 ALA2        0.0000 
     19 DU          4.7143   20.2925   12.4191 H         5 CUB7        0.0000 
     20 DU          5.6489   19.1597   12.1135 H         5 CUB7        0.0000 
     21 NZ          2.2417   22.4290   11.6631 N.2       3 LYS4        0.0000 
     22 O           6.9273   21.5253   14.6175 O.2       1 ALA2        0.0000 
     23 O           7.8619   20.3926   14.3119 O.2       1 ALA2        0.0000 
     24 O           6.3239   21.3963   13.2503 O.2       1 ALA2        0.0000 
     25 O           7.2585   20.2635   12.9447 O.2       1 ALA2        0.0000 
     26 O           8.1931   19.1308   12.6391 O.2       1 ALA2        0.0000 
     27 NZ          3.8513   23.5328   12.4942 N.2       3 LYS4        0.0000 
     28 O           4.7859   22.4000   12.1886 O.2       1 ALA2        0.0000 
     29 DU          5.7205   21.2673   11.8831 H         5 CUB7        0.0000 
     30 CA          6.6551   20.1345   11.5775 C.3       4 GLY6        0.0000 
     31 CA          7.5897   19.0018   11.2719 C.3       4 GLY6        0.0000 
     32 CA          3.2479   23.4037   11.1270 C.3       4 GLY6        0.0000 
     33 CA          4.1825   22.2710   10.8214 C.3       4 GLY6        0.0000 
     34 DU          5.1171   21.1382   10.5159 H         5 CUB7        0.0000 
     35 O           7.9335   22.5001   14.0814 O.2       1 ALA2        0.0000 
     36 CA          8.8681   21.3674   13.7759 C.3       4 GLY6        0.0000 
     37 O           5.4609   24.6366   13.3254 O.2       1 ALA2        0.0000 
     38 O           6.3955   23.5038   13.0198 O.2       1 ALA2        0.0000 
     39 O           7.3301   22.3711   12.7142 O.2       1 ALA2        0.0000 
     40 CA          8.2647   21.2383   12.4086 C.3       4 GLY6        0.0000 
     41 CA          4.8575   24.5076   11.9582 C.3       4 GLY6        0.0000 
     42 DU          5.7921   23.3748   11.6526 H         5 CUB7        0.0000 
     43 DU          6.7267   22.2421   11.3470 H         5 CUB7        0.0000 
     44 CA          7.6613   21.1093   11.0414 C.3       4 GLY6        0.0000 
     45 CA          5.1887   23.2458   10.2854 C.3       4 GLY6        0.0000 
     46 DU          6.1233   22.1130    9.9798 H         5 CUB7        0.0000 
     47 NZ          8.9397   23.4749   13.5454 N.2       3 LYS4        0.0000 
     48 CA          9.8743   22.3422   13.2398 C.3       4 GLY6        0.0000 
     49 NZ          7.4017   24.4786   12.4837 N.2       3 LYS4        0.0000 
     50 CA          8.3363   23.3459   12.1782 C.3       4 GLY6        0.0000 
     51 CA          9.2709   22.2131   11.8726 C.3       4 GLY6        0.0000 
     52 CA          5.8637   25.4824   11.4221 C.3       4 GLY6        0.0000 
     53 N           6.7983   24.3496   11.1165 N.2       1 ALA2        0.0000 
     54 N           7.7329   23.2169   10.8110 N.2       1 ALA2        0.0000 
     55 CA          8.6675   22.0841   10.5054 C.3       4 GLY6        0.0000 
@<TRIPOS>BOND
@<TRIPOS>SUBSTRUCTURE
     1 ALA2       10 GROUP   
     2 ASP3        8 GROUP   
     3 LYS4       17 GROUP   
     4 GLY6        1 GROUP   
     5 CUB7        6 GROUP   
@<TRIPOS>SET

