#    Name: 1obg_AMP_1_INTS_M
#    Modification time : Mon Mar 24 19:54:11 2014

@<TRIPOS>MOLECULE
1obg_AMP_1_INTS_M
   42     0    12     0     0
SMALL
NO_CHARGES


@<TRIPOS>ATOM
      1 NZ          5.1645   21.7840   15.9170 N.4       3 LYC4        0.0000 
      2 NZ          4.7920   21.0660   14.8590 N.4      11 LYL4        0.0000 
      3 NZ          5.5370   22.5020   16.9750 N.4       7 LYP4        0.0000 
      4 NZ          5.2430   20.6635   16.4815 N.4       3 LYC4        0.0000 
      5 NZ          4.9490   18.8250   15.9880 N.4      11 LYL4        0.0000 
      6 N          -1.9515   21.6275   13.9300 N.am      2 SEC2        0.0000 
      7 N          -1.3130   21.9310   15.2360 N.am     10 SEL2        0.0000 
      8 N          -2.5900   21.3240   12.6240 N.am      6 SEP2        0.0000 
      9 O          -0.9385   23.1410   14.8535 O.2       1 ALC1        0.0000 
     10 O          -1.3130   21.9310   15.2360 O.2       9 ALL1        0.0000 
     11 O          -0.5640   24.3510   14.4710 O.2       5 ALP1        0.0000 
     12 N           0.2030   24.8495   19.4910 N.am      2 SEC2        0.0000 
     13 N          -0.4050   23.4850   19.7910 N.am     10 SEL2        0.0000 
     14 N           0.8110   26.2140   19.1910 N.am      6 SEP2        0.0000 
     15 CA         -3.3400   22.1150   23.1000 C.3       4 GLC5        0.0000 
     16 CA         -2.3000   22.9400   21.3810 C.3      12 GLL5        0.0000 
     17 CA         -4.3800   21.2900   24.8190 C.3       8 GLP5        0.0000 
     18 O          -2.5120   23.7835   23.7385 O.2       1 ALC1        0.0000 
     19 O          -2.0230   23.8130   22.3560 O.2       9 ALL1        0.0000 
     20 O          -3.0010   23.7540   25.1210 O.2       5 ALP1        0.0000 
     21 N          -4.5575   22.2660   22.4035 N.am      2 SEC2        0.0000 
     22 N          -3.3260   22.0300   21.5720 N.am     10 SEL2        0.0000 
     23 N          -5.7890   22.5020   23.2350 N.am      6 SEP2        0.0000 
     24 CA         -2.2390   19.9120   21.9915 C.3       4 GLC5        0.0000 
     25 CA         -3.5270   20.9850   20.6980 C.3      12 GLL5        0.0000 
     26 CA         -0.9510   18.8390   23.2850 C.3       8 GLP5        0.0000 
     27 CA         -4.0705   19.9600   22.2535 C.3       4 GLC5        0.0000 
     28 CA         -4.6140   18.9350   23.8090 C.3       8 GLP5        0.0000 
     29 CA         -4.2290   22.2295   19.3675 C.3       4 GLC5        0.0000 
     30 CA         -4.9310   23.4740   18.0370 C.3       8 GLP5        0.0000 
     31 CA          2.4442   18.2070   17.6480 C.3       4 GLC5        0.0000 
     32 CA          0.5890   19.1740   16.4120 C.3      12 GLL5        0.0000 
     33 CA          3.5590   17.3890   18.8570 C.3       8 GLP5        0.0000 
     34 CA         -2.4848   21.4303   16.4337 C.3       4 GLC5        0.0000 
     35 CA         -0.7070   20.8220   17.3020 C.3      12 GLL5        0.0000 
     36 CA         -4.4930   21.7610   16.2380 C.3       8 GLP5        0.0000 
     37 CA         -0.8800   24.2080   21.7422 C.3       4 GLC5        0.0000 
     38 CA         -1.4660   22.7920   20.2680 C.3      12 GLL5        0.0000 
     39 CA          0.1230   25.5500   22.6600 C.3       8 GLP5        0.0000 
     40 CA         -1.9700   24.7325   20.3577 C.3       4 GLC5        0.0000 
     41 CA         -2.0570   26.5990   19.8910 C.3       8 GLP5        0.0000 
     42 CA         -3.3588   22.8858   19.0739 C.3       4 GLC5        0.0000 
@<TRIPOS>BOND
@<TRIPOS>SUBSTRUCTURE
     1 ALC1        9 GROUP        1 X    ALC  0     ROOT ALC X 1
     2 SEC2        6 GROUP        1 X    SEC  0     **** SEC X 2
     3 LYC4        1 GROUP        1 X    LYC  0     **** LYC X 4
     4 GLC5       15 GROUP        1 X    GLC  0     **** GLC X 6
     5 ALP1       11 GROUP        1 Y    ALP  0     ROOT ALP Y 8
     6 SEP2        8 GROUP        1 Y    SEP  0     **** SEP Y 9
     7 LYP4        3 GROUP        1 Y    LYP  0     **** LYP Y 11
     8 GLP5       17 GROUP        1 Y    GLP  0     **** GLP Y 13
     9 ALL1       10 GROUP        1 Z    ALL  0     ROOT ALL Z 15
    10 SEL2        7 GROUP        1 Z    SEL  0     **** SEL Z 16
    11 LYL4        2 GROUP        1 Z    LYL  0     **** LYL Z 18
    12 GLL5       16 GROUP        1 Z    GLL  0     **** GLL Z 20
@<TRIPOS>SET

