#    Name: 1obg_AMP_1_ligand
#    Modification time : Mon Mar 24 19:54:11 2014

@<TRIPOS>MOLECULE
1obg_AMP_1_ligand
   35    37     1     0     0
SMALL
NO_CHARGES


@<TRIPOS>ATOM
      1 P           4.1110   19.7210   15.1480 P.3       1 AMP307      0.0000 
      2 O1P         4.7920   21.0660   14.8590 O.co2     1 AMP307      0.0000 
      3 O2P         4.9490   18.8250   15.9880 O.co2     1 AMP307      0.0000 
      4 O3P         3.7360   18.9870   13.7580 O.co2     1 AMP307      0.0000 
      5 O5'         2.7620   19.9900   15.9740 O.3       1 AMP307      0.0000 
      6 C5'         2.0700   18.8760   16.4660 C.3       1 AMP307      0.0000 
      7 C4'         0.5890   19.1740   16.4120 C.3       1 AMP307      0.0000 
      8 O4'         0.2070   19.8080   17.6170 O.3       1 AMP307      0.0000 
      9 C3'         0.2510   20.1240   15.2620 C.3       1 AMP307      0.0000 
     10 O3'        -0.7830   19.5490   14.5010 O.3       1 AMP307      0.0000 
     11 C2'        -0.2460   21.3770   15.9570 C.3       1 AMP307      0.0000 
     12 O2'        -1.3130   21.9310   15.2360 O.3       1 AMP307      0.0000 
     13 C1'        -0.7070   20.8220   17.3020 C.3       1 AMP307      0.0000 
     14 N9         -0.7610   21.8030   18.4050 N.pl3     1 AMP307      0.0000 
     15 C8          0.0430   22.8910   18.6540 C.2       1 AMP307      0.0000 
     16 N7         -0.4050   23.4850   19.7910 N.2       1 AMP307      0.0000 
     17 C5         -1.4660   22.7920   20.2680 C.ar      1 AMP307      0.0000 
     18 C6         -2.3000   22.9400   21.3810 C.ar      1 AMP307      0.0000 
     19 N6         -2.0230   23.8130   22.3560 N.pl3     1 AMP307      0.0000 
     20 N1         -3.3260   22.0300   21.5720 N.ar      1 AMP307      0.0000 
     21 C2         -3.5270   20.9850   20.6980 C.ar      1 AMP307      0.0000 
     22 N3         -2.6930   20.8430   19.6020 N.ar      1 AMP307      0.0000 
     23 C4         -1.6900   21.7290   19.3970 C.ar      1 AMP307      0.0000 
     24 H           2.3293   18.6506   17.5063 H         1 AMP307      0.0000 
     25 H           2.2530   17.9752   15.8699 H         1 AMP307      0.0000 
     26 H           0.0495   18.2591   16.2638 H         1 AMP307      0.0000 
     27 H           1.1242   20.3370   14.7325 H         1 AMP307      0.0000 
     28 H           0.5708   22.0148   16.1193 H         1 AMP307      0.0000 
     29 H          -1.6960   20.3853   17.1471 H         1 AMP307      0.0000 
     30 H           0.7813   23.1706   18.1178 H         1 AMP307      0.0000 
     31 H          -1.9442   24.7708   22.0797 H         1 AMP307      0.0000 
     32 H          -1.9196   23.4295   23.2737 H         1 AMP307      0.0000 
     33 H          -4.2895   20.3136   20.8551 H         1 AMP307      0.0000 
     34 H          -1.4912   20.2534   14.4528 H         1 AMP307      0.0000 
     35 H          -0.9827   22.8240   14.9304 H         1 AMP307      0.0000 
@<TRIPOS>BOND
     1    2    1 ar   
     2    3    1 ar   
     3    4    1 ar   
     4    5    1 1    
     5    6    5 1    
     6    7    6 1    
     7   24    6 1    
     8   25    6 1    
     9    8    7 1    
    10    9    7 1    
    11   26    7 1    
    12   13    8 1    
    13   10    9 1    
    14   11    9 1    
    15   27    9 1    
    16   34   10 1    
    17   12   11 1    
    18   13   11 1    
    19   28   11 1    
    20   35   12 1    
    21   14   13 1    
    22   29   13 1    
    23   15   14 1    
    24   23   14 1    
    25   16   15 2    
    26   30   15 1    
    27   17   16 1    
    28   18   17 ar   
    29   23   17 ar   
    30   19   18 1    
    31   20   18 ar   
    32   31   19 1    
    33   32   19 1    
    34   21   20 ar   
    35   22   21 ar   
    36   33   21 1    
    37   23   22 ar   
@<TRIPOS>SUBSTRUCTURE
     1 AMP307      1 GROUP   
@<TRIPOS>SET

