#    Name: 1b8v_NAD_1_INTS_M
#    Modification time : Mon Mar 24 19:28:08 2014

@<TRIPOS>MOLECULE
1b8v_NAD_1_INTS_M
   82     0     9     0     0
SMALL
NO_CHARGES


@<TRIPOS>ATOM
      1 N          27.9035    7.4520   29.0975 N.am      2 SEC2        0.0000 
      2 N          28.3150    8.2430   27.9410 N.am      8 SEL2        0.0000 
      3 N          27.4920    6.6610   30.2540 N.am      5 SEP2        0.0000 
      4 CA         24.3110   12.1210   30.3470 C.3       3 GLC5        0.0000 
      5 CA         25.2290   11.6400   28.8940 C.3       9 GLL5        0.0000 
      6 CA         23.3930   12.6020   31.8000 C.3       6 GLP5        0.0000 
      7 O          22.6000   10.4815   28.7445 O.2       1 ALC1        0.0000 
      8 O          23.6040   10.1490   27.8790 O.2       7 ALL1        0.0000 
      9 O          21.5960   10.8140   29.6100 O.2       4 ALP1        0.0000 
     10 O          21.5510   12.1835   27.2895 O.2       1 ALC1        0.0000 
     11 O          22.6460   12.2420   26.3040 O.2       7 ALL1        0.0000 
     12 O          20.4560   12.1250   28.2750 O.2       4 ALP1        0.0000 
     13 CA         23.5220   12.8800   30.0700 C.3       3 GLC5        0.0000 
     14 CA         23.6510   13.1580   28.3400 C.3       9 GLL5        0.0000 
     15 CA         24.6905   14.3780   29.7820 C.3       3 GLC5        0.0000 
     16 CA         25.7300   15.5980   31.2240 C.3       6 GLP5        0.0000 
     17 CA         23.0095   19.5250   29.2565 C.3       3 GLC5        0.0000 
     18 CA         22.0050   17.5980   28.8880 C.3       9 GLL5        0.0000 
     19 CA         24.0140   21.4520   29.6250 C.3       6 GLP5        0.0000 
     20 CA         21.9260   16.1460   32.4320 C.3       3 GLC5        0.0000 
     21 CA         21.1860   16.1490   30.5450 C.3       9 GLL5        0.0000 
     22 CA         22.6660   16.1430   34.3190 C.3       6 GLP5        0.0000 
     23 CA         22.2895   14.3755   31.1725 C.3       3 GLC5        0.0000 
     24 CA         19.5785   16.2765   31.7995 C.3       3 GLC5        0.0000 
     25 CA         17.9710   16.4040   33.0540 C.3       6 GLP5        0.0000 
     26 CA         19.8110   14.6785   30.3675 C.3       3 GLC5        0.0000 
     27 CA         18.4360   13.2080   30.1900 C.3       6 GLP5        0.0000 
     28 N          22.2730   14.3360   31.3345 N.am      2 SEC2        0.0000 
     29 N          21.8400   15.1100   30.0170 N.am      8 SEL2        0.0000 
     30 N          22.7060   13.5620   32.6520 N.am      5 SEP2        0.0000 
     31 CA         22.9985   13.9545   30.3555 C.3       3 GLC5        0.0000 
     32 CA         22.6040   15.3070   28.9110 C.3       9 GLL5        0.0000 
     33 N          29.3225    8.3700   31.7755 N.am      2 SEC2        0.0000 
     34 N          29.3320    9.5300   30.9450 N.am      8 SEL2        0.0000 
     35 N          29.3130    7.2100   32.6060 N.am      5 SEP2        0.0000 
     36 N          32.1800   16.7485   30.2565 N.am      2 SEC2        0.0000 
     37 N          31.5980   15.6050   29.3480 N.am      8 SEL2        0.0000 
     38 N          32.7620   17.8920   31.1650 N.am      5 SEP2        0.0000 
     39 N          35.1840   15.0710   29.8360 N.am      2 SEC2        0.0000 
     40 N          34.0120   14.0820   29.0070 N.am      8 SEL2        0.0000 
     41 N          36.3560   16.0600   30.6650 N.am      5 SEP2        0.0000 
     42 CA         32.5565   12.3190   32.3410 C.3       3 GLC5        0.0000 
     43 CA         33.1480   14.0240   31.3670 C.3       9 GLL5        0.0000 
     44 CA         31.9650   10.6140   33.3150 C.3       6 GLP5        0.0000 
     45 CA         32.0475   15.6315   31.9955 C.3       3 GLC5        0.0000 
     46 CA         30.9470   17.2390   32.6240 C.3       6 GLP5        0.0000 
     47 CA         34.0255   15.9240   30.6715 C.3       3 GLC5        0.0000 
     48 CA         34.9030   17.8240   29.9760 C.3       6 GLP5        0.0000 
     49 CA         35.4925   13.4920   36.0765 C.3       3 GLC5        0.0000 
     50 CA         35.8150   13.7940   34.0010 C.3       9 GLL5        0.0000 
     51 CA         35.1700   13.1900   38.1520 C.3       6 GLP5        0.0000 
     52 CA         37.1520   15.3150   34.1045 C.3       3 GLC5        0.0000 
     53 CA         38.4890   16.8360   34.2080 C.3       6 GLP5        0.0000 
     54 N          38.0105   14.5000   37.1460 N.am      2 SEC2        0.0000 
     55 N          37.0770   14.1060   36.0180 N.am      8 SEL2        0.0000 
     56 N          38.9440   14.8940   38.2740 N.am      5 SEP2        0.0000 
     57 O          34.3960   16.1170   34.7995 O.2       1 ALC1        0.0000 
     58 O          35.7200   15.7930   35.3980 O.2       7 ALL1        0.0000 
     59 O          33.0720   16.4410   34.2010 O.2       4 ALP1        0.0000 
     60 CA         37.6490   11.6230   34.8445 C.3       3 GLC5        0.0000 
     61 CA         36.4950   12.6420   33.6120 C.3       9 GLL5        0.0000 
     62 CA         38.8030   10.6040   36.0770 C.3       6 GLP5        0.0000 
     63 CA         25.3166    9.6076   29.0960 C.3       3 GLC5        0.0000 
     64 CA         26.7240   11.6590   28.7340 C.3       9 GLL5        0.0000 
     65 CA         25.3680    7.8030   29.9800 C.3       6 GLP5        0.0000 
     66 CA         24.1818   15.7583   29.9273 C.3       3 GLC5        0.0000 
     67 CA         22.6630   16.5300   28.3500 C.3       9 GLL5        0.0000 
     68 CA         21.2880   16.0098   27.4070 C.3       3 GLC5        0.0000 
     69 CA         20.1070   15.8340   26.0490 C.3       6 GLP5        0.0000 
     70 CA         31.2248   11.9013   32.0725 C.3       3 GLC5        0.0000 
     71 CA         30.0760   12.5500   30.7280 C.3       9 GLL5        0.0000 
     72 CA         29.4232   12.8453   32.4420 C.3       3 GLC5        0.0000 
     73 CA         28.3620   12.5020   34.0540 C.3       6 GLP5        0.0000 
     74 CA         31.1028   15.6273   31.4548 C.3       3 GLC5        0.0000 
     75 CA         30.8930   13.8270   30.9320 C.3       9 GLL5        0.0000 
     76 CA         33.6955   13.9418   34.7398 C.3       3 GLC5        0.0000 
     77 CA         34.7250   14.2090   33.2460 C.3       9 GLL5        0.0000 
     78 CA         32.1210   13.8820   35.8560 C.3       6 GLP5        0.0000 
     79 CA         35.6653   10.8330   34.4513 C.3       3 GLC5        0.0000 
     80 CA         35.0330    9.3840   35.8570 C.3       6 GLP5        0.0000 
     81 CA         33.7620   11.3763   32.7048 C.3       3 GLC5        0.0000 
     82 CA         36.1000   11.9220   32.4790 C.3       9 GLL5        0.0000 
@<TRIPOS>BOND
@<TRIPOS>SUBSTRUCTURE
     1 ALC1        7 GROUP        1 X    ALC  0     ROOT ALC X 1
     2 SEC2        1 GROUP        1 X    SEC  0     **** SEC X 2
     3 GLC5        4 GROUP        1 X    GLC  0     **** GLC X 6
     4 ALP1        9 GROUP        1 Y    ALP  0     ROOT ALP Y 8
     5 SEP2        3 GROUP        1 Y    SEP  0     **** SEP Y 9
     6 GLP5        6 GROUP        1 Y    GLP  0     **** GLP Y 13
     7 ALL1        8 GROUP        1 Z    ALL  0     ROOT ALL Z 15
     8 SEL2        2 GROUP        1 Z    SEL  0     **** SEL Z 16
     9 GLL5        5 GROUP        1 Z    GLL  0     **** GLL Z 20
@<TRIPOS>SET

