#    Name: 1b8v_NAD_1_ligand
#    Modification time : Mon Mar 24 19:28:08 2014

@<TRIPOS>MOLECULE
1b8v_NAD_1_ligand
   70    74     1     0     0
SMALL
NO_CHARGES


@<TRIPOS>ATOM
      1 PA         28.2770    9.7240   27.8270 P.3       1 NAD334      0.0000 
      2 O1A        28.2610   10.3200   26.4610 O.co2     1 NAD334      0.0000 
      3 O2A        28.3150    8.2430   27.9410 O.co2     1 NAD334      0.0000 
      4 O5B        27.0580   10.2830   28.6790 O.3       1 NAD334      0.0000 
      5 C5B        26.7240   11.6590   28.7340 C.3       1 NAD334      0.0000 
      6 C4B        25.2290   11.6400   28.8940 C.3       1 NAD334      0.0000 
      7 O4B        24.8540   13.0040   29.0970 O.3       1 NAD334      0.0000 
      8 C3B        24.5540   11.1750   27.6100 C.3       1 NAD334      0.0000 
      9 O3B        23.6040   10.1490   27.8790 O.3       1 NAD334      0.0000 
     10 C2B        23.8690   12.4160   27.0520 C.3       1 NAD334      0.0000 
     11 O2B        22.6460   12.2420   26.3040 O.3       1 NAD334      0.0000 
     12 C1B        23.6510   13.1580   28.3400 C.3       1 NAD334      0.0000 
     13 N9A        23.3690   14.5790   28.0990 N.pl3     1 NAD334      0.0000 
     14 C8A        23.8030   15.3370   27.0640 C.2       1 NAD334      0.0000 
     15 N7A        23.3460   16.5800   27.2050 N.2       1 NAD334      0.0000 
     16 C5A        22.6630   16.5300   28.3500 C.ar      1 NAD334      0.0000 
     17 C6A        22.0050   17.5980   28.8880 C.ar      1 NAD334      0.0000 
     18 N6A        22.1690   18.7850   28.3120 N.pl3     1 NAD334      0.0000 
     19 N1A        21.2620   17.3670   29.9940 N.ar      1 NAD334      0.0000 
     20 C2A        21.1860   16.1490   30.5450 C.ar      1 NAD334      0.0000 
     21 N3A        21.8400   15.1100   30.0170 N.ar      1 NAD334      0.0000 
     22 C4A        22.6040   15.3070   28.9110 C.ar      1 NAD334      0.0000 
     23 O3         29.5270   10.3560   28.5900 O.3       1 NAD334      0.0000 
     24 PN         30.2720   10.0100   29.9220 P.3       1 NAD334      0.0000 
     25 O1N        31.4190    9.1410   29.5690 O.co2     1 NAD334      0.0000 
     26 O2N        29.3320    9.5300   30.9450 O.co2     1 NAD334      0.0000 
     27 O5D        30.9020   11.4330   30.3220 O.3       1 NAD334      0.0000 
     28 C5D        30.0760   12.5500   30.7280 C.3       1 NAD334      0.0000 
     29 C4D        30.8930   13.8270   30.9320 C.3       1 NAD334      0.0000 
     30 O4D        31.9020   13.5820   31.9440 O.3       1 NAD334      0.0000 
     31 C3D        31.6240   14.2040   29.6390 C.3       1 NAD334      0.0000 
     32 O3D        31.5980   15.6050   29.3480 O.3       1 NAD334      0.0000 
     33 C2D        33.0040   13.6310   29.9060 C.3       1 NAD334      0.0000 
     34 O2D        34.0120   14.0820   29.0070 O.3       1 NAD334      0.0000 
     35 C1D        33.1480   14.0240   31.3670 C.3       1 NAD334      0.0000 
     36 N1N        34.3170   13.5020   32.1090 N.pl3     1 NAD334      0.0000 
     37 C2N        34.7250   14.2090   33.2460 C.ar      1 NAD334      0.0000 
     38 C3N        35.8150   13.7940   34.0010 C.ar      1 NAD334      0.0000 
     39 C7N        36.2740   14.5950   35.2260 C.2       1 NAD334      0.0000 
     40 O7N        37.0770   14.1060   36.0180 O.2       1 NAD334      0.0000 
     41 N7N        35.7200   15.7930   35.3980 N.am      1 NAD334      0.0000 
     42 C4N        36.4950   12.6420   33.6120 C.ar      1 NAD334      0.0000 
     43 C5N        36.1000   11.9220   32.4790 C.ar      1 NAD334      0.0000 
     44 C6N        35.0180   12.3550   31.7100 C.ar      1 NAD334      0.0000 
     45 H          26.9671   12.1744   27.8240 H         1 NAD334      0.0000 
     46 H          27.1559   12.1498   29.5857 H         1 NAD334      0.0000 
     47 H          24.9511   11.0303   29.6957 H         1 NAD334      0.0000 
     48 H          25.3132   10.8766   26.9237 H         1 NAD334      0.0000 
     49 H          24.6273   12.9749   26.5105 H         1 NAD334      0.0000 
     50 H          22.8247   12.6945   28.8569 H         1 NAD334      0.0000 
     51 H          24.3622   15.0115   26.3357 H         1 NAD334      0.0000 
     52 H          22.7566   18.8041   27.5031 H         1 NAD334      0.0000 
     53 H          21.6900   19.5516   28.7397 H         1 NAD334      0.0000 
     54 H          20.6004   16.0085   31.4094 H         1 NAD334      0.0000 
     55 H          29.5506   12.3316   31.6736 H         1 NAD334      0.0000 
     56 H          29.2995   12.7638   29.9735 H         1 NAD334      0.0000 
     57 H          30.2491   14.6210   31.2111 H         1 NAD334      0.0000 
     58 H          31.1797   13.5955   28.8554 H         1 NAD334      0.0000 
     59 H          32.8710   12.5431   29.8997 H         1 NAD334      0.0000 
     60 H          33.1457   15.1288   31.3939 H         1 NAD334      0.0000 
     61 H          34.2011   15.0577   33.5264 H         1 NAD334      0.0000 
     62 H          35.0702   16.0823   34.6951 H         1 NAD334      0.0000 
     63 H          36.0035   16.2958   36.2146 H         1 NAD334      0.0000 
     64 H          37.3022   12.3126   34.1657 H         1 NAD334      0.0000 
     65 H          36.6100   11.0699   32.2125 H         1 NAD334      0.0000 
     66 H          34.7402   11.8477   30.8721 H         1 NAD334      0.0000 
     67 H          22.9365   10.5692   28.4938 H         1 NAD334      0.0000 
     68 H          21.9248   12.1937   26.9950 H         1 NAD334      0.0000 
     69 H          30.6627   15.7891   29.0458 H         1 NAD334      0.0000 
     70 H          33.6733   14.9547   28.6552 H         1 NAD334      0.0000 
@<TRIPOS>BOND
     1    2    1 ar   
     2    3    1 ar   
     3    4    1 1    
     4   23    1 1    
     5    5    4 1    
     6    6    5 1    
     7   45    5 1    
     8   46    5 1    
     9    7    6 1    
    10    8    6 1    
    11   47    6 1    
    12   12    7 1    
    13    9    8 1    
    14   10    8 1    
    15   48    8 1    
    16   67    9 1    
    17   11   10 1    
    18   12   10 1    
    19   49   10 1    
    20   68   11 1    
    21   13   12 1    
    22   50   12 1    
    23   14   13 1    
    24   22   13 1    
    25   15   14 2    
    26   51   14 1    
    27   16   15 1    
    28   17   16 ar   
    29   22   16 ar   
    30   18   17 1    
    31   19   17 ar   
    32   52   18 1    
    33   53   18 1    
    34   20   19 ar   
    35   21   20 ar   
    36   54   20 1    
    37   22   21 ar   
    38   24   23 1    
    39   25   24 ar   
    40   26   24 ar   
    41   27   24 1    
    42   28   27 1    
    43   29   28 1    
    44   55   28 1    
    45   56   28 1    
    46   30   29 1    
    47   31   29 1    
    48   57   29 1    
    49   35   30 1    
    50   32   31 1    
    51   33   31 1    
    52   58   31 1    
    53   69   32 1    
    54   34   33 1    
    55   35   33 1    
    56   59   33 1    
    57   70   34 1    
    58   36   35 1    
    59   60   35 1    
    60   37   36 ar   
    61   44   36 ar   
    62   38   37 ar   
    63   61   37 1    
    64   39   38 1    
    65   42   38 ar   
    66   40   39 2    
    67   41   39 am   
    68   62   41 1    
    69   63   41 1    
    70   43   42 ar   
    71   64   42 1    
    72   44   43 ar   
    73   65   43 1    
    74   66   44 1    
@<TRIPOS>SUBSTRUCTURE
     1 NAD334      1 GROUP   
@<TRIPOS>SET

