#    Name: 1c6x_3IN_1_INTS_M
#    Modification time : Mon Mar 24 20:19:57 2014

@<TRIPOS>MOLECULE
1c6x_3IN_1_INTS_M
   84     0     9     0     0
SMALL
NO_CHARGES


@<TRIPOS>ATOM
      1 CA         38.4135   30.7025   17.7705 C.3       3 GLC5        0.0000 
      2 CA         39.5430   29.3460   16.7460 C.3       9 GLL5        0.0000 
      3 CA         37.2840   32.0590   18.7950 C.3       6 GLP5        0.0000 
      4 N          36.6255   21.2205   23.9490 N.am      2 SEC2        0.0000 
      5 N          36.2850   22.5880   24.2490 N.am      8 SEL2        0.0000 
      6 N          36.9660   19.8530   23.6490 N.am      5 SEP2        0.0000 
      7 O          35.9995   21.7020   25.6000 O.2       1 ALC1        0.0000 
      8 O          36.2850   22.5880   24.2490 O.2       7 ALL1        0.0000 
      9 O          35.7140   20.8160   26.9510 O.2       4 ALP1        0.0000 
     10 N          39.4815   27.1220   12.6750 N.am      2 SEC2        0.0000 
     11 N          40.1010   27.7670   13.6410 N.am      8 SEL2        0.0000 
     12 N          38.8620   26.4770   11.7090 N.am      5 SEP2        0.0000 
     13 CA         41.9780   34.0505   20.0920 C.3       3 GLC5        0.0000 
     14 CA         41.7670   32.3950   18.9590 C.3       9 GLL5        0.0000 
     15 CA         42.1890   35.7060   21.2250 C.3       6 GLP5        0.0000 
     16 CA         39.5255   32.2270   18.8770 C.3       3 GLC5        0.0000 
     17 CA         37.3935   28.1125   14.5810 C.3       3 GLC5        0.0000 
     18 CA         38.6270   27.2260   15.8870 C.3       9 GLL5        0.0000 
     19 CA         36.1600   28.9990   13.2750 C.3       6 GLP5        0.0000 
     20 CA         42.3040   25.4550   18.3165 C.3       3 GLC5        0.0000 
     21 CA         40.4720   26.5200   18.9600 C.3       9 GLL5        0.0000 
     22 CA         44.1360   24.3900   17.6730 C.3       6 GLP5        0.0000 
     23 CA         34.7425   20.8175   24.3620 C.3       3 GLC5        0.0000 
     24 CA         33.9480   22.6170   23.2810 C.3       9 GLL5        0.0000 
     25 CA         35.5370   19.0180   25.4430 C.3       6 GLP5        0.0000 
     26 CA         38.0980   29.5910   13.5480 C.3       3 GLC5        0.0000 
     27 CA         40.0360   30.1830   13.8210 C.3       9 GLL5        0.0000 
     28 CA         37.7670   30.9280   12.5070 C.3       3 GLC5        0.0000 
     29 CA         39.3640   32.3400   13.1520 C.3       9 GLL5        0.0000 
     30 CA         36.1700   29.5160   11.8620 C.3       6 GLP5        0.0000 
     31 CA         44.5095   29.6990   19.0155 C.3       3 GLC5        0.0000 
     32 CA         43.9270   31.5840   18.9680 C.3       9 GLL5        0.0000 
     33 CA         45.0920   27.8140   19.0630 C.3       6 GLP5        0.0000 
     34 CA         45.8760   32.4860   19.2585 C.3       3 GLC5        0.0000 
     35 CA         47.8250   33.3880   19.5490 C.3       6 GLP5        0.0000 
     36 CA         43.5510   32.4175   22.0430 C.3       3 GLC5        0.0000 
     37 CA         42.4050   30.9920   20.9330 C.3       9 GLL5        0.0000 
     38 CA         44.6970   33.8430   23.1530 C.3       6 GLP5        0.0000 
     39 CA         43.0160   30.1125   22.2885 C.3       3 GLC5        0.0000 
     40 CA         43.6270   29.2330   23.6440 C.3       6 GLP5        0.0000 
     41 CA         41.2750   31.1450   22.3355 C.3       3 GLC5        0.0000 
     42 CA         40.1450   31.2980   23.7380 C.3       6 GLP5        0.0000 
     43 N          40.8960   24.1785   19.4515 N.am      2 SEC2        0.0000 
     44 N          40.8020   25.0400   20.6310 N.am      8 SEL2        0.0000 
     45 N          40.9900   23.3170   18.2720 N.am      5 SEP2        0.0000 
     46 O          41.7690   25.2090   21.6090 O.2       1 ALC1        0.0000 
     47 O          40.8020   25.0400   20.6310 O.2       7 ALL1        0.0000 
     48 O          42.7360   25.3780   22.5870 O.2       4 ALP1        0.0000 
     49 CA         33.4465   22.0415   19.9345 C.3       3 GLC5        0.0000 
     50 CA         34.2440   22.5650   21.8220 C.3       9 GLL5        0.0000 
     51 CA         32.6490   21.5180   18.0470 C.3       6 GLP5        0.0000 
     52 CA         36.3695   23.8085   18.3105 C.3       3 GLC5        0.0000 
     53 CA         35.8570   23.7720   20.2710 C.3       9 GLL5        0.0000 
     54 CA         36.8820   23.8450   16.3500 C.3       6 GLP5        0.0000 
     55 CA         38.3115   34.3525   15.0250 C.3       3 GLC5        0.0000 
     56 CA         38.1340   33.5730   13.0760 C.3       9 GLL5        0.0000 
     57 CA         38.4890   35.1320   16.9740 C.3       6 GLP5        0.0000 
     58 CA         37.5440   35.6940   13.0595 C.3       3 GLC5        0.0000 
     59 CA         36.9540   37.8150   13.0430 C.3       6 GLP5        0.0000 
     60 CA         37.9435   25.3565   16.4047 C.3       3 GLC5        0.0000 
     61 CA         40.4597   24.8875   26.8032 C.3       3 GLC5        0.0000 
     62 CA         38.9780   26.0990   26.1260 C.3       9 GLL5        0.0000 
     63 CA         42.2970   23.8880   26.9010 C.3       6 GLP5        0.0000 
     64 CA         35.4040   27.8738   24.5635 C.3       3 GLC5        0.0000 
     65 CA         36.2320   26.8290   26.4270 C.3       9 GLL5        0.0000 
     66 CA         34.1920   28.7170   23.2650 C.3       6 GLP5        0.0000 
     67 CA         38.2485   29.1363   24.3822 C.3       3 GLC5        0.0000 
     68 CA         37.0000   27.2320   25.2970 C.3       9 GLL5        0.0000 
     69 CA         38.6500   31.1400   23.8720 C.3       6 GLP5        0.0000 
     70 CA         36.8450   22.4458   22.7860 C.3       3 GLC5        0.0000 
     71 CA         35.4490   24.2820   22.8070 C.3       9 GLL5        0.0000 
     72 CA         38.4190   21.0700   22.1610 C.3       6 GLP5        0.0000 
     73 CA         34.3742   24.9015   19.2157 C.3       3 GLC5        0.0000 
     74 CA         34.7980   23.9240   21.3600 C.3       9 GLL5        0.0000 
     75 CA         33.4210   25.9550   17.6160 C.3       6 GLP5        0.0000 
     76 CA         43.7875   29.6043   20.3708 C.3       3 GLC5        0.0000 
     77 CA         45.1080   28.1310   20.5650 C.3       6 GLP5        0.0000 
     78 CA         36.8605   28.2334   27.3900 C.3       3 GLC5        0.0000 
     79 CA         36.9800   29.9550   28.1500 C.3       6 GLP5        0.0000 
     80 CA         39.1831   26.5815   28.0284 C.3       3 GLC5        0.0000 
     81 CA         36.8660   25.9930   27.3980 C.3       9 GLL5        0.0000 
     82 CA         40.6220   27.2230   29.0050 C.3       6 GLP5        0.0000 
     83 CA         36.6575   22.2631   20.7925 C.3       3 GLC5        0.0000 
     84 CA         38.1260   21.0180   20.6540 C.3       6 GLP5        0.0000 
@<TRIPOS>BOND
@<TRIPOS>SUBSTRUCTURE
     1 ALC1        7 GROUP        1 X    ALC  0     ROOT ALC X 1
     2 SEC2        4 GROUP        1 X    SEC  0     **** SEC X 2
     3 GLC5        1 GROUP        1 X    GLC  0     **** GLC X 6
     4 ALP1        9 GROUP        1 Y    ALP  0     ROOT ALP Y 8
     5 SEP2        6 GROUP        1 Y    SEP  0     **** SEP Y 9
     6 GLP5        3 GROUP        1 Y    GLP  0     **** GLP Y 13
     7 ALL1        8 GROUP        1 Z    ALL  0     ROOT ALL Z 15
     8 SEL2        5 GROUP        1 Z    SEL  0     **** SEL Z 16
     9 GLL5        2 GROUP        1 Z    GLL  0     **** GLL Z 20
@<TRIPOS>SET

