#    Name: 1c6x_3IN_1_ligand
#    Modification time : Mon Mar 24 20:19:57 2014

@<TRIPOS>MOLECULE
1c6x_3IN_1_ligand
  106   110     1     0     0
SMALL
NO_CHARGES


@<TRIPOS>ATOM
      1 C1         39.5430   29.3460   16.7460 C.3       1 3IN622      0.0000 
      2 C2         40.3630   28.5030   17.7630 C.3       1 3IN622      0.0000 
      3 C3         40.7990   29.3740   18.9130 C.2       1 3IN622      0.0000 
      4 O4         36.2850   22.5880   24.2490 O.3       1 3IN622      0.0000 
      5 O5         40.1010   27.7670   13.6410 O.2       1 3IN622      0.0000 
      6 N6         39.0850   31.1580   13.7810 N.ar      1 3IN622      0.0000 
      7 C7         41.7670   32.3950   18.9590 C.3       1 3IN622      0.0000 
      8 C8         39.3830   26.5100   17.0320 C.3       1 3IN622      0.0000 
      9 C9         38.6270   27.2260   15.8870 C.3       1 3IN622      0.0000 
     10 C10        40.4720   26.5200   18.9600 C.3       1 3IN622      0.0000 
     11 C11        39.8940   26.0230   20.2670 C.3       1 3IN622      0.0000 
     12 C12        39.7270   26.8780   21.4980 C.3       1 3IN622      0.0000 
     13 C13        38.9660   26.1880   22.7020 C.3       1 3IN622      0.0000 
     14 C14        39.0550   27.2280   23.8510 C.3       1 3IN622      0.0000 
     15 C15        38.3330   26.8380   25.1250 C.ar      1 3IN622      0.0000 
     16 C16        38.9780   26.0990   26.1260 C.ar      1 3IN622      0.0000 
     17 C19        36.2320   26.8290   26.4270 C.ar      1 3IN622      0.0000 
     18 C20        37.0000   27.2320   25.2970 C.ar      1 3IN622      0.0000 
     19 C21        37.4050   25.9120   22.3080 C.2       1 3IN622      0.0000 
     20 C22        35.4490   24.2820   22.8070 C.3       1 3IN622      0.0000 
     21 C24        33.9480   22.6170   23.2810 C.3       1 3IN622      0.0000 
     22 C27        42.0160   34.2120    9.6540 C.3       1 3IN622      0.0000 
     23 C30        34.7980   23.9240   21.3600 C.3       1 3IN622      0.0000 
     24 C31        39.7990   28.7610   14.3160 C.2       1 3IN622      0.0000 
     25 C32        40.0360   30.1830   13.8210 C.ar      1 3IN622      0.0000 
     26 C33        39.3640   32.3400   13.1520 C.ar      1 3IN622      0.0000 
     27 C34        40.6230   32.6140   12.5600 C.ar      1 3IN622      0.0000 
     28 C35        42.7890   35.3590   11.6230 C.3       1 3IN622      0.0000 
     29 N1         39.2760   28.4920   15.5680 N.am      1 3IN622      0.0000 
     30 O1         40.0800   29.4810   19.9090 O.2       1 3IN622      0.0000 
     31 N2         42.0160   29.9820   18.7170 N.am      1 3IN622      0.0000 
     32 C4         42.5290   31.1630   19.4200 C.3       1 3IN622      0.0000 
     33 C5         43.9270   31.5840   18.9680 C.3       1 3IN622      0.0000 
     34 C6         42.4050   30.9920   20.9330 C.3       1 3IN622      0.0000 
     35 N3         39.5380   27.3650   18.2330 N.3       1 3IN622      0.0000 
     36 O2         40.8020   25.0400   20.6310 O.3       1 3IN622      0.0000 
     37 C17        38.2670   25.6750   27.2850 C.ar      1 3IN622      0.0000 
     38 C18        36.8660   25.9930   27.3980 C.ar      1 3IN622      0.0000 
     39 O3         36.8710   26.4810   21.3390 O.2       1 3IN622      0.0000 
     40 N4         36.7200   24.9970   23.0930 N.am      1 3IN622      0.0000 
     41 C23        35.0930   23.3610   24.0150 C.3       1 3IN622      0.0000 
     42 C25        34.2440   22.5650   21.8220 C.3       1 3IN622      0.0000 
     43 C29        35.8570   23.7720   20.2710 C.3       1 3IN622      0.0000 
     44 N7         41.5770   31.6630   12.6500 N.ar      1 3IN622      0.0000 
     45 C36        41.2930   30.4850   13.2410 C.ar      1 3IN622      0.0000 
     46 CL1        38.1340   33.5730   13.0760 Cl        1 3IN622      0.0000 
     47 C26        40.7250   33.7490   10.3670 C.3       1 3IN622      0.0000 
     48 N8         42.4330   35.5190   10.1980 N.3       1 3IN622      0.0000 
     49 C37        41.5380   34.9350   12.4360 C.3       1 3IN622      0.0000 
     50 N5         40.9260   33.7440   11.8270 N.3       1 3IN622      0.0000 
     51 C28        43.5530   36.0660    9.4190 C.3       1 3IN622      0.0000 
     52 H          40.1298   30.2095   16.4760 H         1 3IN622      0.0000 
     53 H          38.6248   29.6481   17.2241 H         1 3IN622      0.0000 
     54 H          41.2359   28.1350   17.2437 H         1 3IN622      0.0000 
     55 H          40.3668   26.2049   16.6478 H         1 3IN622      0.0000 
     56 H          38.8288   25.5939   17.2812 H         1 3IN622      0.0000 
     57 H          37.5961   27.3797   16.2144 H         1 3IN622      0.0000 
     58 H          38.6183   26.5558   15.0243 H         1 3IN622      0.0000 
     59 H          40.7578   25.6433   18.3520 H         1 3IN622      0.0000 
     60 H          41.4040   27.0703   19.1804 H         1 3IN622      0.0000 
     61 H          38.9396   25.5163   20.0487 H         1 3IN622      0.0000 
     62 H          39.1726   27.8003   21.2473 H         1 3IN622      0.0000 
     63 H          40.7152   27.1962   21.8761 H         1 3IN622      0.0000 
     64 H          39.4314   25.3099   22.9596 H         1 3IN622      0.0000 
     65 H          38.6506   28.1868   23.4768 H         1 3IN622      0.0000 
     66 H          40.1242   27.4030   24.0720 H         1 3IN622      0.0000 
     67 H          39.9694   25.8566   26.0326 H         1 3IN622      0.0000 
     68 H          35.2820   27.1196   26.5394 H         1 3IN622      0.0000 
     69 H          36.5493   27.8354   24.5858 H         1 3IN622      0.0000 
     70 H          34.6189   25.2301   23.1395 H         1 3IN622      0.0000 
     71 H          33.0222   23.1524   23.4652 H         1 3IN622      0.0000 
     72 H          33.8748   21.6157   23.6929 H         1 3IN622      0.0000 
     73 H          41.8079   34.2826    8.5898 H         1 3IN622      0.0000 
     74 H          42.7824   33.4597    9.8199 H         1 3IN622      0.0000 
     75 H          34.0498   24.5719   21.1910 H         1 3IN622      0.0000 
     76 H          43.1588   36.2944   12.0389 H         1 3IN622      0.0000 
     77 H          43.5487   34.5901   11.7501 H         1 3IN622      0.0000 
     78 H          42.6815   29.5797   17.9856 H         1 3IN622      0.0000 
     79 H          38.7285   25.1614   28.0172 H         1 3IN622      0.0000 
     80 H          36.3291   25.6177   28.1755 H         1 3IN622      0.0000 
     81 H          37.1420   24.7448   24.0561 H         1 3IN622      0.0000 
     82 H          34.7356   23.9410   24.7502 H         1 3IN622      0.0000 
     83 H          33.3401   22.3512   21.2580 H         1 3IN622      0.0000 
     84 H          34.9867   21.8002   21.6117 H         1 3IN622      0.0000 
     85 H          42.0282   29.7281   13.2887 H         1 3IN622      0.0000 
     86 H          40.4788   32.7507   10.0046 H         1 3IN622      0.0000 
     87 H          39.9218   34.4309   10.0870 H         1 3IN622      0.0000 
     88 H          40.8430   35.7733   12.4417 H         1 3IN622      0.0000 
     89 H          41.8558   34.7333   13.4578 H         1 3IN622      0.0000 
     90 H          42.0860   33.2231   19.4200 H         1 3IN622      0.0000 
     91 H          41.8693   32.5488   17.9762 H         1 3IN622      0.0000 
     92 H          40.7872   32.3161   19.1429 H         1 3IN622      0.0000 
     93 H          44.2892   32.3298   19.5271 H         1 3IN622      0.0000 
     94 H          44.5798   30.8289   19.0281 H         1 3IN622      0.0000 
     95 H          43.9311   31.9002   18.0193 H         1 3IN622      0.0000 
     96 H          42.8974   30.1842   21.2570 H         1 3IN622      0.0000 
     97 H          42.7750   31.7786   21.4272 H         1 3IN622      0.0000 
     98 H          41.4521   30.8884   21.2182 H         1 3IN622      0.0000 
     99 H          36.3873   24.6110   20.1490 H         1 3IN622      0.0000 
    100 H          36.5071   23.0427   20.4844 H         1 3IN622      0.0000 
    101 H          35.4495   23.5514   19.3849 H         1 3IN622      0.0000 
    102 H          43.8540   36.9515    9.7729 H         1 3IN622      0.0000 
    103 H          44.3475   35.4589    9.4342 H         1 3IN622      0.0000 
    104 H          43.3065   36.2022    8.4595 H         1 3IN622      0.0000 
    105 H          36.0891   22.0528   25.0707 H         1 3IN622      0.0000 
    106 H          41.3478   25.4498   21.3619 H         1 3IN622      0.0000 
@<TRIPOS>BOND
     1    2    1 1    
     2   29    1 1    
     3   52    1 1    
     4   53    1 1    
     5    3    2 1    
     6   35    2 1    
     7   54    2 1    
     8   30    3 2    
     9   31    3 am   
    10   41    4 1    
    11  105    4 1    
    12   24    5 2    
    13   25    6 ar   
    14   26    6 ar   
    15   32    7 1    
    16   90    7 1    
    17   91    7 1    
    18   92    7 1    
    19    9    8 1    
    20   35    8 1    
    21   55    8 1    
    22   56    8 1    
    23   29    9 1    
    24   57    9 1    
    25   58    9 1    
    26   11   10 1    
    27   35   10 1    
    28   59   10 1    
    29   60   10 1    
    30   12   11 1    
    31   36   11 1    
    32   61   11 1    
    33   13   12 1    
    34   62   12 1    
    35   63   12 1    
    36   14   13 1    
    37   19   13 1    
    38   64   13 1    
    39   15   14 1    
    40   65   14 1    
    41   66   14 1    
    42   16   15 ar   
    43   18   15 ar   
    44   37   16 ar   
    45   67   16 1    
    46   18   17 ar   
    47   38   17 ar   
    48   68   17 1    
    49   69   18 1    
    50   39   19 2    
    51   40   19 am   
    52   23   20 1    
    53   40   20 1    
    54   41   20 1    
    55   70   20 1    
    56   41   21 1    
    57   42   21 1    
    58   71   21 1    
    59   72   21 1    
    60   47   22 1    
    61   48   22 1    
    62   73   22 1    
    63   74   22 1    
    64   42   23 1    
    65   43   23 1    
    66   75   23 1    
    67   25   24 1    
    68   29   24 am   
    69   45   25 ar   
    70   27   26 ar   
    71   46   26 1    
    72   44   27 ar   
    73   50   27 1    
    74   48   28 1    
    75   49   28 1    
    76   76   28 1    
    77   77   28 1    
    78   32   31 1    
    79   78   31 1    
    80   33   32 1    
    81   34   32 1    
    82   93   33 1    
    83   94   33 1    
    84   95   33 1    
    85   96   34 1    
    86   97   34 1    
    87   98   34 1    
    88  106   36 1    
    89   38   37 ar   
    90   79   37 1    
    91   80   38 1    
    92   81   40 1    
    93   82   41 1    
    94   83   42 1    
    95   84   42 1    
    96   99   43 1    
    97  100   43 1    
    98  101   43 1    
    99   45   44 ar   
   100   85   45 1    
   101   50   47 1    
   102   86   47 1    
   103   87   47 1    
   104   51   48 1    
   105   50   49 1    
   106   88   49 1    
   107   89   49 1    
   108  102   51 1    
   109  103   51 1    
   110  104   51 1    
@<TRIPOS>SUBSTRUCTURE
     1 3IN622      1 GROUP   
@<TRIPOS>SET

