#    Name: 3qzy_FAD_2_INTS_M
#    Modification time : Tue Mar 25 10:23:14 2014

@<TRIPOS>MOLECULE
3qzy_FAD_2_INTS_M
   99     0    12     0     0
SMALL
NO_CHARGES


@<TRIPOS>ATOM
      1 N          21.2525   -0.7310   -5.6295 N.am      2 SEC2        0.0000 
      2 N          22.0250   -0.2350   -6.9290 N.am     10 SEL2        0.0000 
      3 N          20.4800   -1.2270   -4.3300 N.am      6 SEP2        0.0000 
      4 N          20.8975   -2.7725   -7.5270 N.am      2 SEC2        0.0000 
      5 N          22.4900   -2.6330   -7.6400 N.am     10 SEL2        0.0000 
      6 N          19.3050   -2.9120   -7.4140 N.am      6 SEP2        0.0000 
      7 CA         21.2740   -3.5475   -9.2925 C.3       4 GLC5        0.0000 
      8 CA         21.5670   -1.5520  -10.1010 C.3      12 GLL5        0.0000 
      9 CA         20.9810   -5.5430   -8.4840 C.3       8 GLP5        0.0000 
     10 CA         22.5395   -1.0465  -12.5100 C.3       4 GLC5        0.0000 
     11 CA         21.7880    0.7080  -11.4560 C.3      12 GLL5        0.0000 
     12 CA         23.2910   -2.8010  -13.5640 C.3       8 GLP5        0.0000 
     13 N          22.1625    0.8595  -14.4515 N.am      2 SEC2        0.0000 
     14 N          21.8810    0.9630  -12.8640 N.am     10 SEL2        0.0000 
     15 N          22.4440    0.7560  -16.0390 N.am      6 SEP2        0.0000 
     16 N          21.3945    0.1260  -14.0235 N.am      2 SEC2        0.0000 
     17 N          20.9080   -0.7110  -15.1830 N.am      6 SEP2        0.0000 
     18 CA         17.9680    2.3600  -10.6505 C.3       4 GLC5        0.0000 
     19 CA         19.4630    0.8220  -10.8280 C.3      12 GLL5        0.0000 
     20 CA         16.4730    3.8980  -10.4730 C.3       8 GLP5        0.0000 
     21 CA         13.8810    0.2645   -7.8560 C.3       4 GLC5        0.0000 
     22 CA         15.8540   -0.1110   -7.7240 C.3      12 GLL5        0.0000 
     23 CA         11.9080    0.6400   -7.9880 C.3       8 GLP5        0.0000 
     24 O          14.2385   -0.9075   -6.1005 O.2       1 ALC1        0.0000 
     25 O          15.4740   -0.1920   -6.4540 O.2       9 ALL1        0.0000 
     26 O          13.0030   -1.6230   -5.7470 O.2       5 ALP1        0.0000 
     27 O          15.6945    0.6290   -5.3060 O.2       1 ALC1        0.0000 
     28 O          15.9150    1.4500   -4.1580 O.2       5 ALP1        0.0000 
     29 CA         15.7385   -2.2465  -11.0380 C.3       4 GLC5        0.0000 
     30 CA         15.3940   -0.6030  -10.0170 C.3      12 GLL5        0.0000 
     31 CA         16.0830   -3.8900  -12.0590 C.3       8 GLP5        0.0000 
     32 CA         13.6510    0.0185   -9.0025 C.3       4 GLC5        0.0000 
     33 CA         16.2725   -1.9210   -8.5805 C.3       4 GLC5        0.0000 
     34 CA         17.1510   -3.2390   -7.1440 C.3       8 GLP5        0.0000 
     35 CA         14.9295    1.3240   -9.3500 C.3       4 GLC5        0.0000 
     36 CA         14.4650    3.2510   -8.6830 C.3       8 GLP5        0.0000 
     37 CA         16.9675    2.0565   -9.9220 C.3       4 GLC5        0.0000 
     38 CA         17.4620    0.2150   -9.3710 C.3      12 GLL5        0.0000 
     39 N          26.6065   -5.7525    0.9530 N.am      2 SEC2        0.0000 
     40 N          25.6670   -6.7890    0.1330 N.am     10 SEL2        0.0000 
     41 N          27.5460   -4.7160    1.7730 N.am      6 SEP2        0.0000 
     42 N          26.5660   -5.7710   -0.1985 N.am      2 SEC2        0.0000 
     43 N          27.4650   -4.7530   -0.5300 N.am      6 SEP2        0.0000 
     44 O          23.5055   -8.2035    1.5925 O.2       1 ALC1        0.0000 
     45 O          23.9610   -8.3100    0.2500 O.2       9 ALL1        0.0000 
     46 O          23.0500   -8.0970    2.9350 O.2       5 ALP1        0.0000 
     47 N          22.4320  -10.0650    2.0205 N.am      2 SEC2        0.0000 
     48 N          22.3010   -9.9470    0.4210 N.am     10 SEL2        0.0000 
     49 N          22.5630  -10.1830    3.6200 N.am      6 SEP2        0.0000 
     50 CA         18.1540  -10.7845   -7.9000 C.3       4 GLC5        0.0000 
     51 CA         19.2700  -11.1720   -6.4380 C.3      12 GLL5        0.0000 
     52 CA         17.0380  -10.3970   -9.3620 C.3       8 GLP5        0.0000 
     53 CA         19.0110  -12.7690   -7.8875 C.3       4 GLC5        0.0000 
     54 CA         18.7520  -14.3660   -9.3370 C.3       8 GLP5        0.0000 
     55 CA         17.9435  -12.0735   -5.4580 C.3       4 GLC5        0.0000 
     56 CA         16.6170  -12.9750   -4.4780 C.3       8 GLP5        0.0000 
     57 CA         23.1745   -9.0100   -7.6220 C.3       4 GLC5        0.0000 
     58 CA         21.0180   -9.2100   -8.0300 C.3      12 GLL5        0.0000 
     59 CA         25.3310   -8.8100   -7.2140 C.3       8 GLP5        0.0000 
     60 CA         20.8340  -10.3605   -9.4125 C.3       4 GLC5        0.0000 
     61 CA         20.6500  -11.5110  -10.7950 C.3       8 GLP5        0.0000 
     62 CA         20.2165   -7.7285   -7.5410 C.3       4 GLC5        0.0000 
     63 CA         19.4150   -6.2470   -7.0520 C.3       8 GLP5        0.0000 
     64 CA         19.0280   -9.8035   -8.6960 C.3       4 GLC5        0.0000 
     65 CA         23.7020   -9.6155   -3.5020 C.3       4 GLC5        0.0000 
     66 CA         22.2200   -8.5520   -4.4830 C.3      12 GLL5        0.0000 
     67 CA         25.1840  -10.6790   -2.5210 C.3       8 GLP5        0.0000 
     68 CA         24.6485   -7.7855   -5.8355 C.3       4 GLC5        0.0000 
     69 CA         23.9660   -6.7610   -4.4570 C.3      12 GLL5        0.0000 
     70 N          21.3970   -5.5725   -5.7485 N.am      2 SEC2        0.0000 
     71 N          22.0810   -5.3190   -4.3320 N.am     10 SEL2        0.0000 
     72 N          20.7130   -5.8260   -7.1650 N.am      6 SEP2        0.0000 
     73 O          21.7970   -4.1110   -3.7895 O.2       1 ALC1        0.0000 
     74 O          22.0810   -5.3190   -4.3320 O.2       9 ALL1        0.0000 
     75 O          21.5130   -2.9030   -3.2470 O.2       5 ALP1        0.0000 
     76 CA         24.6110   -5.5830   -7.0270 C.3       4 GLC5        0.0000 
     77 CA         24.0310   -4.3610   -5.3430 C.3      12 GLL5        0.0000 
     78 CA         25.1910   -6.8050   -8.7110 C.3       8 GLP5        0.0000 
     79 N          22.2485   -5.3030   -6.9180 N.am      2 SEC2        0.0000 
     80 N          23.7840   -4.7800   -6.6710 N.am     10 SEL2        0.0000 
     81 CA         26.2945   -5.5970   -6.1935 C.3       4 GLC5        0.0000 
     82 CA         25.5310   -4.0480   -5.3180 C.3      12 GLL5        0.0000 
     83 CA         27.0580   -7.1460   -7.0690 C.3       8 GLP5        0.0000 
     84 N          25.1610   -2.8485   -3.1160 N.am      2 SEC2        0.0000 
     85 N          25.9010   -3.9200   -3.9040 N.am     10 SEL2        0.0000 
     86 N          24.4210   -1.7770   -2.3280 N.am      6 SEP2        0.0000 
     87 NZ         24.3655   -0.6405   -3.8900 N.4       3 LYC4        0.0000 
     88 NZ         24.3100    0.4960   -5.4520 N.4      11 LYL4        0.0000 
     89 NZ         24.4210   -1.7770   -2.3280 N.4       7 LYP4        0.0000 
     90 CA         22.3325   -1.9623  -12.1322 C.3       4 GLC5        0.0000 
     91 CA         15.9060    1.7188   -7.6632 C.3       4 GLC5        0.0000 
     92 CA         15.3060    3.3610   -7.4160 C.3       8 GLP5        0.0000 
     93 CA         17.0675   -1.5466   -7.8924 C.3       4 GLC5        0.0000 
     94 CA         17.1580    0.2640   -8.0970 C.3      12 GLL5        0.0000 
     95 CA         22.4733  -10.9675   -3.3407 C.3       4 GLC5        0.0000 
     96 CA         21.4380   -9.5150   -3.6590 C.3      12 GLL5        0.0000 
     97 CA         23.9630  -12.0040   -2.6740 C.3       8 GLP5        0.0000 
     98 CA         20.5829   -8.1067   -3.1221 C.3       4 GLC5        0.0000 
     99 CA         19.5640   -6.9720   -1.9990 C.3       8 GLP5        0.0000 
@<TRIPOS>BOND
@<TRIPOS>SUBSTRUCTURE
     1 ALC1       24 GROUP        1 X    ALC  0     ROOT ALC X 1
     2 SEC2        1 GROUP        1 X    SEC  0     **** SEC X 2
     3 LYC4       87 GROUP        1 X    LYC  0     **** LYC X 4
     4 GLC5        7 GROUP        1 X    GLC  0     **** GLC X 6
     5 ALP1       26 GROUP        1 Y    ALP  0     ROOT ALP Y 8
     6 SEP2        3 GROUP        1 Y    SEP  0     **** SEP Y 9
     7 LYP4       89 GROUP        1 Y    LYP  0     **** LYP Y 11
     8 GLP5        9 GROUP        1 Y    GLP  0     **** GLP Y 13
     9 ALL1       25 GROUP        1 Z    ALL  0     ROOT ALL Z 15
    10 SEL2        2 GROUP        1 Z    SEL  0     **** SEL Z 16
    11 LYL4       88 GROUP        1 Z    LYL  0     **** LYL Z 18
    12 GLL5        8 GROUP        1 Z    GLL  0     **** GLL Z 20
@<TRIPOS>SET

