#    Name: 3qzy_FAD_2_ligand
#    Modification time : Tue Mar 25 10:23:14 2014

@<TRIPOS>MOLECULE
3qzy_FAD_2_ligand
   84    89     1     0     0
SMALL
NO_CHARGES


@<TRIPOS>ATOM
      1 PA         22.7700   -1.1820   -7.8030 P.3       1 FAD334      0.0000 
      2 O1A        22.0250   -0.2350   -6.9290 O.co2     1 FAD334      0.0000 
      3 O2A        22.4900   -2.6330   -7.6400 O.co2     1 FAD334      0.0000 
      4 O5B        22.5450   -0.8590   -9.3330 O.3       1 FAD334      0.0000 
      5 C5B        21.5670   -1.5520  -10.1010 C.3       1 FAD334      0.0000 
      6 C4B        21.1810   -0.6950  -11.3000 C.3       1 FAD334      0.0000 
      7 O4B        19.7750   -0.4880  -11.3060 O.3       1 FAD334      0.0000 
      8 C3B        21.7880    0.7080  -11.4560 C.3       1 FAD334      0.0000 
      9 O3B        21.8810    0.9630  -12.8640 O.3       1 FAD334      0.0000 
     10 C2B        20.8170    1.5970  -10.7780 C.3       1 FAD334      0.0000 
     11 O2B        20.5680    2.8590  -11.3150 O.3       1 FAD334      0.0000 
     12 C1B        19.4630    0.8220  -10.8280 C.3       1 FAD334      0.0000 
     13 N9A        18.7530    0.6990   -9.6010 N.pl3     1 FAD334      0.0000 
     14 C8A        19.1640    0.9710   -8.2650 C.2       1 FAD334      0.0000 
     15 N7A        18.2720    0.6870   -7.3710 N.2       1 FAD334      0.0000 
     16 C5A        17.1580    0.2640   -8.0970 C.ar      1 FAD334      0.0000 
     17 C6A        15.8540   -0.1110   -7.7240 C.ar      1 FAD334      0.0000 
     18 N6A        15.4740   -0.1920   -6.4540 N.pl3     1 FAD334      0.0000 
     19 N1A        14.9720   -0.4820   -8.7310 N.ar      1 FAD334      0.0000 
     20 C2A        15.3940   -0.6030  -10.0170 C.ar      1 FAD334      0.0000 
     21 N3A        16.6840   -0.2700  -10.4790 N.ar      1 FAD334      0.0000 
     22 C4A        17.4620    0.2150   -9.3710 C.ar      1 FAD334      0.0000 
     23 N1         24.4550   -7.1590   -1.7980 N.2       1 FAD334      0.0000 
     24 C2         24.7220   -7.3680   -0.4460 C.2       1 FAD334      0.0000 
     25 O2         25.6670   -6.7890    0.1330 O.2       1 FAD334      0.0000 
     26 N3         23.9610   -8.3100    0.2500 N.am      1 FAD334      0.0000 
     27 C4         22.9090   -9.1050   -0.3070 C.2       1 FAD334      0.0000 
     28 O4         22.3010   -9.9470    0.4210 O.2       1 FAD334      0.0000 
     29 C4X        22.6780   -8.8910   -1.6520 C.2       1 FAD334      0.0000 
     30 N5         21.6430   -9.6980   -2.2620 N.2       1 FAD334      0.0000 
     31 C5X        21.4380   -9.5150   -3.6590 C.ar      1 FAD334      0.0000 
     32 C6         20.5290  -10.3470   -4.3560 C.ar      1 FAD334      0.0000 
     33 C7         20.3270  -10.2760   -5.7700 C.ar      1 FAD334      0.0000 
     34 C7M        19.2700  -11.1720   -6.4380 C.3       1 FAD334      0.0000 
     35 C8         21.1430   -9.3640   -6.5210 C.ar      1 FAD334      0.0000 
     36 C8M        21.0180   -9.2100   -8.0300 C.3       1 FAD334      0.0000 
     37 C9         22.1080   -8.5850   -5.8920 C.ar      1 FAD334      0.0000 
     38 C9A        22.2200   -8.5520   -4.4830 C.ar      1 FAD334      0.0000 
     39 N10        23.2090   -7.7290   -3.7250 N.pl3     1 FAD334      0.0000 
     40 C10        23.4540   -7.9300   -2.3780 C.2       1 FAD334      0.0000 
     41 C1'        23.9660   -6.7610   -4.4570 C.3       1 FAD334      0.0000 
     42 C2'        23.5300   -5.3260   -4.3040 C.3       1 FAD334      0.0000 
     43 O2'        22.0810   -5.3190   -4.3320 O.3       1 FAD334      0.0000 
     44 C3'        24.0310   -4.3610   -5.3430 C.3       1 FAD334      0.0000 
     45 O3'        23.7840   -4.7800   -6.6710 O.3       1 FAD334      0.0000 
     46 C4'        25.5310   -4.0480   -5.3180 C.3       1 FAD334      0.0000 
     47 O4'        25.9010   -3.9200   -3.9040 O.3       1 FAD334      0.0000 
     48 C5'        25.9520   -2.8400   -6.0670 C.3       1 FAD334      0.0000 
     49 O5'        25.4160   -1.6570   -5.4730 O.3       1 FAD334      0.0000 
     50 P          25.1180   -0.3590   -6.3130 P.3       1 FAD334      0.0000 
     51 O1P        24.3100    0.4960   -5.4520 O.co2     1 FAD334      0.0000 
     52 O2P        26.3860    0.1530   -6.9010 O.co2     1 FAD334      0.0000 
     53 O3P        24.2840   -0.9120   -7.5420 O.3       1 FAD334      0.0000 
     54 H          20.6592   -1.7494   -9.5235 H         1 FAD334      0.0000 
     55 H          21.9456   -2.5063  -10.4786 H         1 FAD334      0.0000 
     56 H          21.4374   -1.2560  -12.2246 H         1 FAD334      0.0000 
     57 H          22.7143    0.7128  -10.9642 H         1 FAD334      0.0000 
     58 H          21.0542    1.6365   -9.7100 H         1 FAD334      0.0000 
     59 H          18.8525    1.3250  -11.5899 H         1 FAD334      0.0000 
     60 H          20.0758    1.3483   -8.1012 H         1 FAD334      0.0000 
     61 H          14.7556   -0.8574   -6.2512 H         1 FAD334      0.0000 
     62 H          15.9406    0.4197   -5.8152 H         1 FAD334      0.0000 
     63 H          14.7134   -0.9760  -10.7472 H         1 FAD334      0.0000 
     64 H          24.1699   -8.4587    1.2790 H         1 FAD334      0.0000 
     65 H          19.9776  -11.0470   -3.8179 H         1 FAD334      0.0000 
     66 H          22.7603   -8.0159   -6.4562 H         1 FAD334      0.0000 
     67 H          23.9575   -7.0020   -5.5557 H         1 FAD334      0.0000 
     68 H          25.0538   -6.8160   -4.1760 H         1 FAD334      0.0000 
     69 H          23.8492   -4.9749   -3.3151 H         1 FAD334      0.0000 
     70 H          23.5221   -3.3802   -5.1911 H         1 FAD334      0.0000 
     71 H          26.0506   -4.9298   -5.7170 H         1 FAD334      0.0000 
     72 H          25.6194   -2.9397   -7.1169 H         1 FAD334      0.0000 
     73 H          27.0570   -2.8039   -6.0899 H         1 FAD334      0.0000 
     74 H          19.2270  -11.0224   -7.4258 H         1 FAD334      0.0000 
     75 H          19.4632  -12.1429   -6.2967 H         1 FAD334      0.0000 
     76 H          18.3542  -10.9996   -6.0753 H         1 FAD334      0.0000 
     77 H          21.6641   -8.5366   -8.3894 H         1 FAD334      0.0000 
     78 H          21.1959  -10.0706   -8.5072 H         1 FAD334      0.0000 
     79 H          20.1025   -8.9100   -8.2981 H         1 FAD334      0.0000 
     80 H          21.6399    1.9279  -12.9687 H         1 FAD334      0.0000 
     81 H          19.6060    2.8391  -11.5873 H         1 FAD334      0.0000 
     82 H          21.8189   -4.4390   -3.9360 H         1 FAD334      0.0000 
     83 H          23.2969   -4.0173   -7.0965 H         1 FAD334      0.0000 
     84 H          26.8669   -4.1759   -3.8652 H         1 FAD334      0.0000 
@<TRIPOS>BOND
     1    2    1 ar   
     2    3    1 ar   
     3    4    1 1    
     4   53    1 1    
     5    5    4 1    
     6    6    5 1    
     7   54    5 1    
     8   55    5 1    
     9    7    6 1    
    10    8    6 1    
    11   56    6 1    
    12   12    7 1    
    13    9    8 1    
    14   10    8 1    
    15   57    8 1    
    16   80    9 1    
    17   11   10 1    
    18   12   10 1    
    19   58   10 1    
    20   81   11 1    
    21   13   12 1    
    22   59   12 1    
    23   14   13 1    
    24   22   13 1    
    25   15   14 2    
    26   60   14 1    
    27   16   15 1    
    28   17   16 ar   
    29   22   16 ar   
    30   18   17 1    
    31   19   17 ar   
    32   61   18 1    
    33   62   18 1    
    34   20   19 ar   
    35   21   20 ar   
    36   63   20 1    
    37   22   21 ar   
    38   24   23 1    
    39   40   23 2    
    40   25   24 2    
    41   26   24 am   
    42   27   26 am   
    43   64   26 1    
    44   28   27 2    
    45   29   27 1    
    46   30   29 2    
    47   40   29 1    
    48   31   30 1    
    49   32   31 ar   
    50   38   31 ar   
    51   33   32 ar   
    52   65   32 1    
    53   34   33 1    
    54   35   33 ar   
    55   74   34 1    
    56   75   34 1    
    57   76   34 1    
    58   36   35 1    
    59   37   35 ar   
    60   77   36 1    
    61   78   36 1    
    62   79   36 1    
    63   38   37 ar   
    64   66   37 1    
    65   39   38 1    
    66   40   39 1    
    67   41   39 1    
    68   42   41 1    
    69   67   41 1    
    70   68   41 1    
    71   43   42 1    
    72   44   42 1    
    73   69   42 1    
    74   82   43 1    
    75   45   44 1    
    76   46   44 1    
    77   70   44 1    
    78   83   45 1    
    79   47   46 1    
    80   48   46 1    
    81   71   46 1    
    82   84   47 1    
    83   49   48 1    
    84   72   48 1    
    85   73   48 1    
    86   50   49 1    
    87   51   50 ar   
    88   52   50 ar   
    89   53   50 1    
@<TRIPOS>SUBSTRUCTURE
     1 FAD334      1 GROUP   
@<TRIPOS>SET

