#    Name: 3p0m_4SB_1_INTS_M
#    Modification time : Tue Mar 25 05:46:23 2014

@<TRIPOS>MOLECULE
3p0m_4SB_1_INTS_M
   75     0    12     0     0
SMALL
NO_CHARGES


@<TRIPOS>ATOM
      1 OD1        22.6065    7.4795    0.4485 O.co2     3 ASC3        0.0000 
      2 OD1        22.3730    7.4380   -0.8730 O.co2    11 ASL3        0.0000 
      3 OD1        22.8400    7.5210    1.7700 O.co2     7 ASP3        0.0000 
      4 O          22.6065    7.4795    0.4485 O.2       1 ALC1        0.0000 
      5 O          22.3730    7.4380   -0.8730 O.2       9 ALL1        0.0000 
      6 O          22.8400    7.5210    1.7700 O.2       5 ALP1        0.0000 
      7 O          21.2205    6.7605   -0.0940 O.2       1 ALC1        0.0000 
      8 O          20.0680    6.0830    0.6850 O.2       5 ALP1        0.0000 
      9 N          34.5480    9.7310   -4.1155 N.am      2 SEC2        0.0000 
     10 N          33.5180   10.1410   -3.1080 N.am     10 SEL2        0.0000 
     11 N          35.5780    9.3210   -5.1230 N.am      6 SEP2        0.0000 
     12 O          34.4535   10.3905   -2.3525 O.2       1 ALC1        0.0000 
     13 O          33.5180   10.1410   -3.1080 O.2       9 ALL1        0.0000 
     14 O          35.3890   10.6400   -1.5970 O.2       5 ALP1        0.0000 
     15 CA         31.5555   11.8970   -6.1135 C.3       4 GLC5        0.0000 
     16 CA         31.8430   10.0620   -5.5860 C.3      12 GLL5        0.0000 
     17 CA         31.2680   13.7320   -6.6410 C.3       8 GLP5        0.0000 
     18 CA         33.3435   11.0985   -6.1405 C.3       4 GLC5        0.0000 
     19 CA         34.8440   12.1350   -6.6950 C.3       8 GLP5        0.0000 
     20 CA         33.7815    9.0235   -5.6320 C.3       4 GLC5        0.0000 
     21 CA         35.7200    7.9850   -5.6780 C.3       8 GLP5        0.0000 
     22 CA         31.1925    8.2470   -5.8730 C.3       4 GLC5        0.0000 
     23 CA         30.5420    6.4320   -6.1600 C.3       8 GLP5        0.0000 
     24 CA         31.6795    9.6760   -7.1800 C.3       4 GLC5        0.0000 
     25 CA         31.5160    9.2900   -8.7740 C.3       8 GLP5        0.0000 
     26 N          25.3375   10.8075    2.2790 N.am      2 SEC2        0.0000 
     27 N          25.6810   10.2100    1.0610 N.am     10 SEL2        0.0000 
     28 N          24.9940   11.4050    3.4970 N.am      6 SEP2        0.0000 
     29 CA         24.3940    8.5730    0.9540 C.3       4 GLC5        0.0000 
     30 CA         23.6300   10.2490   -0.0800 C.3      12 GLL5        0.0000 
     31 CA         25.1580    6.8970    1.9880 C.3       8 GLP5        0.0000 
     32 CA         33.0850    9.0425   -0.4545 C.3       4 GLC5        0.0000 
     33 CA         31.6560   10.1680   -1.4030 C.3      12 GLL5        0.0000 
     34 CA         34.5140    7.9170    0.4940 C.3       8 GLP5        0.0000 
     35 CA         33.6885    8.6005   -3.0890 C.3       4 GLC5        0.0000 
     36 CA         32.1380   10.1340   -2.7830 C.3      12 GLL5        0.0000 
     37 CA         35.2390    7.0670   -3.3950 C.3       8 GLP5        0.0000 
     38 CA         22.3185   14.1170   -2.5280 C.3       4 GLC5        0.0000 
     39 CA         23.1160   13.9530   -0.5040 C.3      12 GLL5        0.0000 
     40 CA         21.5210   14.2810   -4.5520 C.3       8 GLP5        0.0000 
     41 CA         29.3428   12.1472   -2.9177 C.3       4 GLC5        0.0000 
     42 CA         29.9370   10.0950   -3.5340 C.3      12 GLL5        0.0000 
     43 CA         28.9860   14.1840   -2.9610 C.3       8 GLP5        0.0000 
     44 CA         21.4960   12.6398   -0.8758 C.3       4 GLC5        0.0000 
     45 CA         23.2020   11.6100    0.1520 C.3      12 GLL5        0.0000 
     46 CA         19.6200   13.1940   -1.4650 C.3       8 GLP5        0.0000 
     47 CA         31.7903   11.8178   -2.0420 C.3       4 GLC5        0.0000 
     48 CA         30.3310   10.1670   -1.1510 C.3      12 GLL5        0.0000 
     49 CA         32.5870   13.4680   -2.8070 C.3       8 GLP5        0.0000 
     50 CA         30.7568   11.3712    0.1925 C.3       4 GLC5        0.0000 
     51 CA         30.5200   12.5750    1.6620 C.3       8 GLP5        0.0000 
     52 CA         30.6966    8.2511   -1.1905 C.3       4 GLC5        0.0000 
     53 CA         30.6170    6.3450   -0.8380 C.3       8 GLP5        0.0000 
     54 CA         30.7563    8.0235   -4.2107 C.3       4 GLC5        0.0000 
     55 CA         31.2800   10.1070   -3.7770 C.3      12 GLL5        0.0000 
     56 CA         30.9040    5.9460   -4.7660 C.3       8 GLP5        0.0000 
     57 CA         31.7402   11.7851   -3.2201 C.3       4 GLC5        0.0000 
     58 CA         25.0710   13.4900   -1.1938 C.3       4 GLC5        0.0000 
     59 CA         23.5420   12.5610   -0.7250 C.3      12 GLL5        0.0000 
     60 CA         26.8130   13.7230   -1.7730 C.3       8 GLP5        0.0000 
     61 CA         24.2110   13.0645    1.2608 C.3       4 GLC5        0.0000 
     62 CA         25.0930   12.8720    3.1360 C.3       8 GLP5        0.0000 
     63 CA         21.1798   13.6602   -0.7080 C.3       4 GLC5        0.0000 
     64 CA         21.9662   16.0282    0.1435 C.3       4 GLC5        0.0000 
     65 CA         22.3630   14.3000    0.6020 C.3      12 GLL5        0.0000 
     66 CA         21.1930   17.9300    0.2380 C.3       8 GLP5        0.0000 
     67 CA         23.1792   15.6557   -1.2615 C.3       4 GLC5        0.0000 
     68 CA         23.6190   17.1850   -2.5720 C.3       8 GLP5        0.0000 
     69 CA         23.6313   13.3302    2.1075 C.3       4 GLC5        0.0000 
     70 CA         22.8372   14.9807    2.3135 C.3       4 GLC5        0.0000 
     71 CA         21.9760   13.2770    1.5560 C.3      12 GLL5        0.0000 
     72 CA         23.5050   16.1730    3.5480 C.3       8 GLP5        0.0000 
     73 CA         20.9000   12.9040   -0.0093 C.3       4 GLC5        0.0000 
     74 CA         23.9965   12.1561    1.9112 C.3       4 GLC5        0.0000 
     75 CA         22.3840   11.9510    1.3370 C.3      12 GLL5        0.0000 
@<TRIPOS>BOND
@<TRIPOS>SUBSTRUCTURE
     1 ALC1        4 GROUP        1 X    ALC  0     ROOT ALC X 1
     2 SEC2        9 GROUP        1 X    SEC  0     **** SEC X 2
     3 ASC3        1 GROUP        1 X    ASC  0     **** ASC X 3
     4 GLC5       15 GROUP        1 X    GLC  0     **** GLC X 6
     5 ALP1        6 GROUP        1 Y    ALP  0     ROOT ALP Y 8
     6 SEP2       11 GROUP        1 Y    SEP  0     **** SEP Y 9
     7 ASP3        3 GROUP        1 Y    ASP  0     **** ASP Y 10
     8 GLP5       17 GROUP        1 Y    GLP  0     **** GLP Y 13
     9 ALL1        5 GROUP        1 Z    ALL  0     ROOT ALL Z 15
    10 SEL2       10 GROUP        1 Z    SEL  0     **** SEL Z 16
    11 ASL3        2 GROUP        1 Z    ASL  0     **** ASL Z 17
    12 GLL5       16 GROUP        1 Z    GLL  0     **** GLL Z 20
@<TRIPOS>SET

