#    Name: 3p0m_4SB_1_ligand
#    Modification time : Tue Mar 25 05:46:23 2014

@<TRIPOS>MOLECULE
3p0m_4SB_1_ligand
   42    43     1     0     0
SMALL
NO_CHARGES


@<TRIPOS>ATOM
      1 C          21.9360    8.7420   -1.2750 C.3       1 4SB351      0.0000 
      2 N          22.3730    7.4380   -0.8730 N.4       1 4SB351      0.0000 
      3 O          33.5180   10.1410   -3.1080 O.3       1 4SB351      0.0000 
      4 BR         31.8430   10.0620   -5.5860 Br        1 4SB351      0.0000 
      5 C01        29.4620   10.1260   -2.2150 C.ar      1 4SB351      0.0000 
      6 N01        27.3200   10.1260   -0.9410 N.2       1 4SB351      0.0000 
      7 O01        25.6810   10.2100    1.0610 O.2       1 4SB351      0.0000 
      8 C02        27.9480   10.1150   -2.0970 C.2       1 4SB351      0.0000 
      9 N02        25.8840   10.1730   -1.0520 N.am      1 4SB351      0.0000 
     10 C03        25.1580   10.2080    0.0620 C.2       1 4SB351      0.0000 
     11 C04        23.6300   10.2490   -0.0800 C.3       1 4SB351      0.0000 
     12 C05        23.2020   11.6100    0.1520 C.ar      1 4SB351      0.0000 
     13 C06        30.3310   10.1670   -1.1510 C.ar      1 4SB351      0.0000 
     14 C07        31.6560   10.1680   -1.4030 C.ar      1 4SB351      0.0000 
     15 C08        32.1380   10.1340   -2.7830 C.ar      1 4SB351      0.0000 
     16 C09        31.2800   10.1070   -3.7770 C.ar      1 4SB351      0.0000 
     17 C10        29.9370   10.0950   -3.5340 C.ar      1 4SB351      0.0000 
     18 C11        23.5420   12.5610   -0.7250 C.ar      1 4SB351      0.0000 
     19 C12        23.1160   13.9530   -0.5040 C.ar      1 4SB351      0.0000 
     20 C13        22.3630   14.3000    0.6020 C.ar      1 4SB351      0.0000 
     21 C14        21.9760   13.2770    1.5560 C.ar      1 4SB351      0.0000 
     22 C15        22.3840   11.9510    1.3370 C.ar      1 4SB351      0.0000 
     23 C16        23.1510    9.6770   -1.4620 C.3       1 4SB351      0.0000 
     24 H          21.2811    9.2019   -0.5265 H         1 4SB351      0.0000 
     25 H          21.3937    8.7155   -2.2268 H         1 4SB351      0.0000 
     26 H          27.4602   10.0979   -3.0205 H         1 4SB351      0.0000 
     27 H          25.4805   10.1775   -1.9911 H         1 4SB351      0.0000 
     28 H          23.2219    9.5934    0.6998 H         1 4SB351      0.0000 
     29 H          29.9678   10.1960   -0.1903 H         1 4SB351      0.0000 
     30 H          32.3646   10.1919   -0.6633 H         1 4SB351      0.0000 
     31 H          29.2579   10.0633   -4.3091 H         1 4SB351      0.0000 
     32 H          24.0970   12.3820   -1.5683 H         1 4SB351      0.0000 
     33 H          23.4015   14.6455   -1.2022 H         1 4SB351      0.0000 
     34 H          22.0665   15.2578    0.7739 H         1 4SB351      0.0000 
     35 H          21.4216   13.5361    2.3584 H         1 4SB351      0.0000 
     36 H          22.1347   11.2025    1.9725 H         1 4SB351      0.0000 
     37 H          22.8751   10.5061   -2.0999 H         1 4SB351      0.0000 
     38 H          23.9679    9.1246   -1.9069 H         1 4SB351      0.0000 
     39 H          22.8766    7.4649   -0.0095 H         1 4SB351      0.0000 
     40 H          21.6040    6.8119   -0.7444 H         1 4SB351      0.0000 
     41 H          22.9782    7.0232   -1.5525 H         1 4SB351      0.0000 
     42 H          33.9832   10.3811   -2.2560 H         1 4SB351      0.0000 
@<TRIPOS>BOND
     1    2    1 1    
     2   23    1 1    
     3   24    1 1    
     4   25    1 1    
     5   39    2 1    
     6   40    2 1    
     7   41    2 1    
     8   15    3 1    
     9   42    3 1    
    10   16    4 1    
    11    8    5 1    
    12   13    5 ar   
    13   17    5 ar   
    14    8    6 2    
    15    9    6 1    
    16   10    7 2    
    17   26    8 1    
    18   10    9 am   
    19   27    9 1    
    20   11   10 1    
    21   12   11 1    
    22   23   11 1    
    23   28   11 1    
    24   18   12 ar   
    25   22   12 ar   
    26   14   13 ar   
    27   29   13 1    
    28   15   14 ar   
    29   30   14 1    
    30   16   15 ar   
    31   17   16 ar   
    32   31   17 1    
    33   19   18 ar   
    34   32   18 1    
    35   20   19 ar   
    36   33   19 1    
    37   21   20 ar   
    38   34   20 1    
    39   22   21 ar   
    40   35   21 1    
    41   36   22 1    
    42   37   23 1    
    43   38   23 1    
@<TRIPOS>SUBSTRUCTURE
     1 4SB351      1 GROUP   
@<TRIPOS>SET

