#    Name: 1m52_P17_2_INTS_M
#    Modification time : Tue Mar 25 11:24:39 2014

@<TRIPOS>MOLECULE
1m52_P17_2_INTS_M
   90     0     9     0     0
SMALL
NO_CHARGES


@<TRIPOS>ATOM
      1 O          47.7935   76.7885   28.4990 O.2       1 ALC1        0.0000 
      2 O          46.4850   76.8970   28.9040 O.2       7 ALL1        0.0000 
      3 O          49.1020   76.6800   28.0940 O.2       4 ALP1        0.0000 
      4 CA         44.4075   77.3855   27.9205 C.3       3 GLC5        0.0000 
      5 CA         45.8850   78.1050   29.0880 C.3       9 GLL5        0.0000 
      6 CA         42.9300   76.6660   26.7530 C.3       6 GLP5        0.0000 
      7 CA         47.7130   78.5885   29.3590 C.3       3 GLC5        0.0000 
      8 CA         49.5410   79.0720   29.6300 C.3       6 GLP5        0.0000 
      9 CA         46.1410   79.1505   30.7975 C.3       3 GLC5        0.0000 
     10 CA         46.3970   80.1960   32.5070 C.3       6 GLP5        0.0000 
     11 CA         43.5240   78.0085   28.4090 C.3       3 GLC5        0.0000 
     12 CA         44.1180   79.3510   30.0650 C.3       9 GLL5        0.0000 
     13 CA         41.6880   76.9920   32.3985 C.3       3 GLC5        0.0000 
     14 CA         42.4840   78.1110   31.3830 C.3       9 GLL5        0.0000 
     15 CA         40.8920   75.8730   33.4140 C.3       6 GLP5        0.0000 
     16 CA         41.2525   78.7685   29.7810 C.3       3 GLC5        0.0000 
     17 CA         40.0210   79.4260   28.1790 C.3       6 GLP5        0.0000 
     18 CA         41.4355   80.6270   29.3550 C.3       3 GLC5        0.0000 
     19 CA         42.8500   81.8280   30.5310 C.3       9 GLL5        0.0000 
     20 CA         44.5325   84.5435   31.2135 C.3       3 GLC5        0.0000 
     21 CA         42.4880   83.9850   31.9100 C.3       9 GLL5        0.0000 
     22 CA         46.5770   85.1020   30.5170 C.3       6 GLP5        0.0000 
     23 CA         40.4375   81.0925   28.2430 C.3       3 GLC5        0.0000 
     24 CA         40.8540   82.7590   28.3070 C.3       9 GLL5        0.0000 
     25 CA         42.2700   81.9835   27.2230 C.3       3 GLC5        0.0000 
     26 CA         43.6860   81.2080   26.1390 C.3       6 GLP5        0.0000 
     27 CA         40.2430   82.6650   26.3095 C.3       3 GLC5        0.0000 
     28 CA         39.6320   82.5710   24.3120 C.3       6 GLP5        0.0000 
     29 CA         42.0965   84.5315   28.1665 C.3       3 GLC5        0.0000 
     30 CA         43.3390   86.3040   28.0260 C.3       6 GLP5        0.0000 
     31 CA         40.7525   85.0415   33.8470 C.3       3 GLC5        0.0000 
     32 CA         41.8080   85.2130   32.0830 C.3       9 GLL5        0.0000 
     33 CA         39.6970   84.8700   35.6110 C.3       6 GLP5        0.0000 
     34 CA         45.6120   83.7290   32.8220 C.3       3 GLC5        0.0000 
     35 CA         43.6850   83.5060   33.1000 C.3       9 GLL5        0.0000 
     36 CA         47.5390   83.9520   32.5440 C.3       6 GLP5        0.0000 
     37 CA         45.0410   81.8510   32.8035 C.3       3 GLC5        0.0000 
     38 CA         44.1010   83.0915   34.6925 C.3       3 GLC5        0.0000 
     39 CA         44.5170   82.6770   36.2850 C.3       6 GLP5        0.0000 
     40 CA         42.2830   83.0950   34.1785 C.3       3 GLC5        0.0000 
     41 CA         40.8810   82.6840   35.2570 C.3       6 GLP5        0.0000 
     42 CA         45.2745   83.4710   30.1430 C.3       3 GLC5        0.0000 
     43 CA         43.9720   81.8400   29.7690 C.3       9 GLL5        0.0000 
     44 CA         44.2460   83.7130   28.5705 C.3       3 GLC5        0.0000 
     45 CA         44.5200   85.5860   27.3720 C.3       6 GLP5        0.0000 
     46 CA         44.7670   80.8215   27.4385 C.3       3 GLC5        0.0000 
     47 CA         45.8480   80.4350   28.7380 C.3       9 GLL5        0.0000 
     48 CA         47.0195   80.5870   27.0485 C.3       3 GLC5        0.0000 
     49 CA         48.1910   80.7390   25.3590 C.3       6 GLP5        0.0000 
     50 CA         47.7305   80.4635   29.4295 C.3       3 GLC5        0.0000 
     51 CA         49.6130   80.4920   30.1210 C.3       6 GLP5        0.0000 
     52 N          47.7055   79.3720   27.9200 N.am      2 SEC2        0.0000 
     53 N          46.4310   79.2220   28.5450 N.am      8 SEL2        0.0000 
     54 N          48.9800   79.5220   27.2950 N.am      5 SEP2        0.0000 
     55 CA         42.9560   74.5905   29.2405 C.3       3 GLC5        0.0000 
     56 CA         44.5150   74.1840   30.6860 C.3       9 GLL5        0.0000 
     57 CA         41.3970   74.9970   27.7950 C.3       6 GLP5        0.0000 
     58 CA         47.6725   74.1960   25.9120 C.3       3 GLC5        0.0000 
     59 CA         48.1160   72.6270   27.2330 C.3       9 GLL5        0.0000 
     60 CA         47.2290   75.7650   24.5910 C.3       6 GLP5        0.0000 
     61 CA         49.6945   74.1675   26.9285 C.3       3 GLC5        0.0000 
     62 CA         51.2730   75.7080   26.6240 C.3       6 GLP5        0.0000 
     63 CA         49.8755   73.0820   28.4845 C.3       3 GLC5        0.0000 
     64 CA         51.6350   73.5370   29.7360 C.3       6 GLP5        0.0000 
     65 CA         47.3418   73.1850   30.0598 C.3       3 GLC5        0.0000 
     66 CA         46.6750   71.8710   28.0810 C.3       9 GLL5        0.0000 
     67 CA         48.3400   73.8040   31.5990 C.3       6 GLP5        0.0000 
     68 CA         47.2750   74.4645   30.2858 C.3       3 GLC5        0.0000 
     69 CA         46.4570   74.5640   28.6370 C.3       9 GLL5        0.0000 
     70 CA         44.1995   76.1295   28.2920 C.3       3 GLC5        0.0000 
     71 CA         45.9630   75.6860   29.3080 C.3       9 GLL5        0.0000 
     72 CA         44.9040   81.0150   31.3285 C.3       3 GLC5        0.0000 
     73 CA         41.5118   87.1830   31.6520 C.3       3 GLC5        0.0000 
     74 CA         40.8150   85.6290   31.1510 C.3       9 GLL5        0.0000 
     75 CA         41.7120   88.9450   31.6870 C.3       6 GLP5        0.0000 
     76 CA         40.0740   86.5163   29.4047 C.3       3 GLC5        0.0000 
     77 CA         39.4930   87.8050   28.2220 C.3       6 GLP5        0.0000 
     78 CA         38.9559   83.8184   28.9307 C.3       3 GLC5        0.0000 
     79 CA         40.4950   84.8260   30.0240 C.3       9 GLL5        0.0000 
     80 CA         37.1540   83.6310   28.3220 C.3       6 GLP5        0.0000 
     81 CA         43.9349   81.0489   27.9585 C.3       3 GLC5        0.0000 
     82 CA         45.7594   80.1916   30.8847 C.3       3 GLC5        0.0000 
     83 CA         44.6730   80.5280   29.5090 C.3       9 GLL5        0.0000 
     84 CA         42.7993   72.9730   30.7897 C.3       3 GLC5        0.0000 
     85 CA         40.8220   72.3230   31.2440 C.3       6 GLP5        0.0000 
     86 CA         44.4406   73.8471   27.8419 C.3       3 GLC5        0.0000 
     87 CA         45.0380   73.0620   29.9850 C.3       9 GLL5        0.0000 
     88 CA         43.2450   74.2070   26.2920 C.3       6 GLP5        0.0000 
     89 CA         46.6158   73.8780   30.9258 C.3       3 GLC5        0.0000 
     90 CA         42.2696   85.5339   29.4561 C.3       3 GLC5        0.0000 
@<TRIPOS>BOND
@<TRIPOS>SUBSTRUCTURE
     1 ALC1        1 GROUP        1 X    ALC  0     ROOT ALC X 1
     2 SEC2       52 GROUP        1 X    SEC  0     **** SEC X 2
     3 GLC5        4 GROUP        1 X    GLC  0     **** GLC X 6
     4 ALP1        3 GROUP        1 Y    ALP  0     ROOT ALP Y 8
     5 SEP2       54 GROUP        1 Y    SEP  0     **** SEP Y 9
     6 GLP5        6 GROUP        1 Y    GLP  0     **** GLP Y 13
     7 ALL1        2 GROUP        1 Z    ALL  0     ROOT ALL Z 15
     8 SEL2       53 GROUP        1 Z    SEL  0     **** SEL Z 16
     9 GLL5        5 GROUP        1 Z    GLL  0     **** GLL Z 20
@<TRIPOS>SET

