#    Name: 1m52_P17_2_ligand
#    Modification time : Tue Mar 25 11:24:39 2014

@<TRIPOS>MOLECULE
1m52_P17_2_ligand
   45    48     1     0     0
SMALL
NO_CHARGES


@<TRIPOS>ATOM
      1 S2         46.6750   71.8710   28.0810 S.3       1 P17120      0.0000 
      2 C3         46.0120   73.2610   28.9600 C.ar      1 P17120      0.0000 
      3 C8         46.4570   74.5640   28.6370 C.ar      1 P17120      0.0000 
      4 C7         45.9630   75.6860   29.3080 C.ar      1 P17120      0.0000 
      5 N9         46.4850   76.8970   28.9040 N.pl3     1 P17120      0.0000 
      6 C10        45.8850   78.1050   29.0880 C.ar      1 P17120      0.0000 
      7 N15        44.7480   78.1840   29.8250 N.ar      1 P17120      0.0000 
      8 C14        44.1180   79.3510   30.0650 C.ar      1 P17120      0.0000 
      9 N19        42.9730   79.3910   30.8410 N.am      1 P17120      0.0000 
     10 C20        42.4840   78.1110   31.3830 C.3       1 P17120      0.0000 
     11 C18        42.3280   80.5350   31.0820 C.2       1 P17120      0.0000 
     12 O21        41.3110   80.5910   31.7710 O.2       1 P17120      0.0000 
     13 C17        42.8500   81.8280   30.5310 C.2       1 P17120      0.0000 
     14 C22        42.1780   83.1620   30.7710 C.ar      1 P17120      0.0000 
     15 C27        42.4880   83.9850   31.9100 C.ar      1 P17120      0.0000 
     16 CL1        40.8540   82.7590   28.3070 Cl        1 P17120      0.0000 
     17 C26        41.8080   85.2130   32.0830 C.ar      1 P17120      0.0000 
     18 C25        40.8150   85.6290   31.1510 C.ar      1 P17120      0.0000 
     19 C24        40.4950   84.8260   30.0240 C.ar      1 P17120      0.0000 
     20 C23        41.1870   83.6120   29.8030 C.ar      1 P17120      0.0000 
     21 CL2        43.6850   83.5060   33.1000 Cl        1 P17120      0.0000 
     22 C16        43.9720   81.8400   29.7690 C.2       1 P17120      0.0000 
     23 C13        44.6730   80.5280   29.5090 C.ar      1 P17120      0.0000 
     24 C12        45.8480   80.4350   28.7380 C.ar      1 P17120      0.0000 
     25 N11        46.4310   79.2220   28.5450 N.ar      1 P17120      0.0000 
     26 C6         44.9750   75.5000   30.3540 C.ar      1 P17120      0.0000 
     27 C5         44.5150   74.1840   30.6860 C.ar      1 P17120      0.0000 
     28 C4         45.0380   73.0620   29.9850 C.ar      1 P17120      0.0000 
     29 C1         48.1160   72.6270   27.2330 C.3       1 P17120      0.0000 
     30 H          47.1600   74.6809   27.8905 H         1 P17120      0.0000 
     31 H          47.4332   76.8780   28.4094 H         1 P17120      0.0000 
     32 H          42.0284   85.8107   32.8834 H         1 P17120      0.0000 
     33 H          40.3274   86.5167   31.2962 H         1 P17120      0.0000 
     34 H          39.7676   85.1261   29.3769 H         1 P17120      0.0000 
     35 H          44.3810   82.6592   29.3578 H         1 P17120      0.0000 
     36 H          46.2454   81.2923   28.3329 H         1 P17120      0.0000 
     37 H          44.6139   76.3079   30.8467 H         1 P17120      0.0000 
     38 H          43.8233   74.0587   31.4142 H         1 P17120      0.0000 
     39 H          44.7223   72.1250   30.2103 H         1 P17120      0.0000 
     40 H          43.1643   77.6721   31.9700 H         1 P17120      0.0000 
     41 H          41.6572   78.2319   31.9323 H         1 P17120      0.0000 
     42 H          42.2608   77.4611   30.6565 H         1 P17120      0.0000 
     43 H          48.7691   73.0138   27.8840 H         1 P17120      0.0000 
     44 H          48.6140   71.9590   26.6801 H         1 P17120      0.0000 
     45 H          47.8398   73.3672   26.6200 H         1 P17120      0.0000 
@<TRIPOS>BOND
     1    2    1 1    
     2   29    1 1    
     3    3    2 ar   
     4   28    2 ar   
     5    4    3 ar   
     6   30    3 1    
     7    5    4 1    
     8   26    4 ar   
     9    6    5 1    
    10   31    5 1    
    11    7    6 ar   
    12   25    6 ar   
    13    8    7 ar   
    14    9    8 1    
    15   23    8 ar   
    16   10    9 1    
    17   11    9 am   
    18   40   10 1    
    19   41   10 1    
    20   42   10 1    
    21   12   11 2    
    22   13   11 1    
    23   14   13 1    
    24   22   13 2    
    25   15   14 ar   
    26   20   14 ar   
    27   17   15 ar   
    28   21   15 1    
    29   20   16 1    
    30   18   17 ar   
    31   32   17 1    
    32   19   18 ar   
    33   33   18 1    
    34   20   19 ar   
    35   34   19 1    
    36   23   22 1    
    37   35   22 1    
    38   24   23 ar   
    39   25   24 ar   
    40   36   24 1    
    41   27   26 ar   
    42   37   26 1    
    43   28   27 ar   
    44   38   27 1    
    45   39   28 1    
    46   43   29 1    
    47   44   29 1    
    48   45   29 1    
@<TRIPOS>SUBSTRUCTURE
     1 P17120      1 GROUP   
@<TRIPOS>SET

