#    Name: 1kv2_B96_1_INTS_M
#    Modification time : Tue Mar 25 10:36:36 2014

@<TRIPOS>MOLECULE
1kv2_B96_1_INTS_M
  119     0     9     0     0
SMALL
NO_CHARGES


@<TRIPOS>ATOM
      1 N          30.5955   34.2355   16.3865 N.am      2 SEC2        0.0000 
      2 N          31.9630   34.5370   16.0310 N.am      8 SEL2        0.0000 
      3 N          29.2280   33.9340   16.7420 N.am      5 SEP2        0.0000 
      4 O          34.8670   32.8795   15.0875 O.2       1 ALC1        0.0000 
      5 O          34.0770   33.8920   15.8400 O.2       7 ALL1        0.0000 
      6 O          35.6570   31.8670   14.3350 O.2       4 ALP1        0.0000 
      7 CA         36.7925   33.5095   16.9375 C.3       3 GLC5        0.0000 
      8 CA         35.4970   35.2570   16.9940 C.3       9 GLL5        0.0000 
      9 CA         38.0880   31.7620   16.8810 C.3       6 GLP5        0.0000 
     10 CA         37.6905   34.3805   14.6035 C.3       3 GLC5        0.0000 
     11 CA         36.2220   35.4440   15.8200 C.3       9 GLL5        0.0000 
     12 CA         39.1590   33.3170   13.3870 C.3       6 GLP5        0.0000 
     13 CA         39.4370   38.1785   16.3290 C.3       3 GLC5        0.0000 
     14 CA         37.7830   36.8970   16.9510 C.3       9 GLL5        0.0000 
     15 CA         41.0910   39.4600   15.7070 C.3       6 GLP5        0.0000 
     16 CA         37.5760   38.1465   19.5550 C.3       3 GLC5        0.0000 
     17 CA         37.0550   36.7140   18.1170 C.3       9 GLL5        0.0000 
     18 CA         38.0970   39.5790   20.9930 C.3       6 GLP5        0.0000 
     19 CA         31.7655   34.8545   18.7880 C.3       3 GLC5        0.0000 
     20 CA         33.6800   34.2450   18.0870 C.3       9 GLL5        0.0000 
     21 CA         29.8510   35.4640   19.4890 C.3       6 GLP5        0.0000 
     22 CA         32.3700   32.7260   18.9030 C.3       3 GLC5        0.0000 
     23 CA         31.0600   31.2070   19.7190 C.3       6 GLP5        0.0000 
     24 O          34.1300   32.6675   14.2455 O.2       1 ALC1        0.0000 
     25 O          32.6030   33.4680   14.1560 O.2       7 ALL1        0.0000 
     26 CA         30.7880   36.4355   13.8625 C.3       3 GLC5        0.0000 
     27 CA         30.6230   34.5430   13.3720 C.3       9 GLL5        0.0000 
     28 CA         30.9530   38.3280   14.3530 C.3       6 GLP5        0.0000 
     29 CA         29.7225   35.4355   14.8920 C.3       3 GLC5        0.0000 
     30 CA         28.8220   36.3280   16.4120 C.3       6 GLP5        0.0000 
     31 CA         29.4280   36.9910   13.8355 C.3       3 GLC5        0.0000 
     32 CA         27.9030   35.6540   13.3180 C.3       9 GLL5        0.0000 
     33 CA         26.4665   36.5290   14.3930 C.3       3 GLC5        0.0000 
     34 CA         25.0300   37.4040   15.4680 C.3       6 GLP5        0.0000 
     35 CA         31.1440   36.0400   11.2530 C.3       3 GLC5        0.0000 
     36 CA         29.0900   36.1090   11.2190 C.3       9 GLL5        0.0000 
     37 CA         33.1980   35.9710   11.2870 C.3       6 GLP5        0.0000 
     38 CA         29.7775   37.2235    9.7945 C.3       3 GLC5        0.0000 
     39 CA         30.4650   38.3380    8.3700 C.3       6 GLP5        0.0000 
     40 CA         28.5865   38.0630   11.2375 C.3       3 GLC5        0.0000 
     41 CA         28.0830   40.0170   11.2560 C.3       6 GLP5        0.0000 
     42 CA         30.0215   37.2185   12.7860 C.3       3 GLC5        0.0000 
     43 CA         31.9305   28.3925    9.4610 C.3       3 GLC5        0.0000 
     44 CA         32.3860   29.7130   11.0460 C.3       9 GLL5        0.0000 
     45 CA         31.4750   27.0720    7.8760 C.3       6 GLP5        0.0000 
     46 CA         34.3105   26.2805   11.7575 C.3       3 GLC5        0.0000 
     47 CA         33.5550   27.6910   11.7990 C.3       9 GLL5        0.0000 
     48 CA         35.0660   24.8700   11.7160 C.3       6 GLP5        0.0000 
     49 CA         32.5150   27.3815    9.8375 C.3       3 GLC5        0.0000 
     50 CA         36.3375   34.7965   21.5240 C.3       3 GLC5        0.0000 
     51 CA         34.8700   35.9700   21.5440 C.3       9 GLL5        0.0000 
     52 CA         37.8050   33.6230   21.5040 C.3       6 GLP5        0.0000 
     53 CA         36.8780   36.3915   22.5640 C.3       3 GLC5        0.0000 
     54 CA         35.2040   37.0260   22.6080 C.3       9 GLL5        0.0000 
     55 CA         38.5520   35.7570   22.5200 C.3       6 GLP5        0.0000 
     56 CA         36.6505   38.3025   21.8005 C.3       3 GLC5        0.0000 
     57 CA         32.6060   38.2125   20.4290 C.3       3 GLC5        0.0000 
     58 CA         34.0940   38.8980   21.6080 C.3       9 GLL5        0.0000 
     59 CA         31.1180   37.5270   19.2500 C.3       6 GLP5        0.0000 
     60 CA         35.3405   42.0180   21.9200 C.3       3 GLC5        0.0000 
     61 CA         33.8330   40.3930   21.8460 C.3       9 GLL5        0.0000 
     62 CA         36.8480   43.6430   21.9940 C.3       6 GLP5        0.0000 
     63 CA         32.9875   42.0780   21.8955 C.3       3 GLC5        0.0000 
     64 CA         32.1420   43.7630   21.9450 C.3       6 GLP5        0.0000 
     65 CA         31.7275   40.6635   21.4770 C.3       3 GLC5        0.0000 
     66 CA         29.6220   40.9340   21.1080 C.3       6 GLP5        0.0000 
     67 N          34.6070   42.3440   22.6415 N.am      2 SEC2        0.0000 
     68 N          34.7250   40.9080   22.8030 N.am      8 SEL2        0.0000 
     69 N          34.4890   43.7800   22.4800 N.am      5 SEP2        0.0000 
     70 N          34.0360   42.0865   23.8820 N.am      2 SEC2        0.0000 
     71 N          33.3470   43.2650   24.9610 N.am      5 SEP2        0.0000 
     72 CA         33.7810   42.3745   23.4115 C.3       3 GLC5        0.0000 
     73 CA         34.3530   40.3450   24.0060 C.3       9 GLL5        0.0000 
     74 CA         33.2090   44.4040   22.8170 C.3       6 GLP5        0.0000 
     75 CA         33.6895   41.6930   25.1865 C.3       3 GLC5        0.0000 
     76 CA         33.0260   43.0410   26.3670 C.3       6 GLP5        0.0000 
     77 CA         36.6730   34.7057   20.1080 C.3       3 GLC5        0.0000 
     78 CA         35.9010   35.8800   18.1430 C.3       9 GLL5        0.0000 
     79 CA         36.5180   38.2725   17.9075 C.3       3 GLC5        0.0000 
     80 CA         36.5580   40.2480   17.6850 C.3       6 GLP5        0.0000 
     81 CA         32.8717   36.4060   19.2645 C.3       3 GLC5        0.0000 
     82 CA         35.1810   35.6970   19.2810 C.3       9 GLL5        0.0000 
     83 CA         36.0708   35.4638   13.9385 C.3       3 GLC5        0.0000 
     84 CA         37.3710   36.2710   15.8060 C.3       9 GLL5        0.0000 
     85 CA         35.3450   35.0700   12.0640 C.3       6 GLP5        0.0000 
     86 CA         35.1248   37.0473   15.9760 C.3       3 GLC5        0.0000 
     87 CA         33.4530   38.2370   16.1390 C.3       6 GLP5        0.0000 
     88 CA         38.9600   35.9750   15.2317 C.3       3 GLC5        0.0000 
     89 CA         40.3430   35.3660   14.0850 C.3       6 GLP5        0.0000 
     90 CA         37.0675   38.4160   17.0317 C.3       3 GLC5        0.0000 
     91 CA         34.8755   37.2441   17.2767 C.3       3 GLC5        0.0000 
     92 CA         33.8840   36.3930   16.8396 C.3       3 GLC5        0.0000 
     93 CA         32.1170   34.9955   12.3580 C.3       3 GLC5        0.0000 
     94 CA         31.4490   33.4970   13.4860 C.3       9 GLL5        0.0000 
     95 CA         29.8680   32.9355   14.5175 C.3       3 GLC5        0.0000 
     96 CA         28.7000   31.8510   15.6060 C.3       6 GLP5        0.0000 
     97 CA         30.2578   31.4113   14.3460 C.3       3 GLC5        0.0000 
     98 CA         32.0420   30.6080   13.6170 C.3       9 GLL5        0.0000 
     99 CA         28.5510   35.8197   14.5722 C.3       3 GLC5        0.0000 
    100 CA         28.6570   34.9690   12.1470 C.3       9 GLL5        0.0000 
    101 CA         33.6748   30.5983   10.3302 C.3       3 GLC5        0.0000 
    102 CA         31.7510   30.9020   11.3070 C.3       9 GLL5        0.0000 
    103 CA         35.2810   30.8890    9.4840 C.3       6 GLP5        0.0000 
    104 CA         31.2928   31.1337    9.5648 C.3       3 GLC5        0.0000 
    105 CA         30.5170   31.9600    7.9530 C.3       6 GLP5        0.0000 
    106 CA         34.5485   29.4328   11.4017 C.3       3 GLC5        0.0000 
    107 CA         32.8550   28.9620   12.0800 C.3       9 GLL5        0.0000 
    108 CA         35.8920   30.5390   10.8640 C.3       6 GLP5        0.0000 
    109 CA         34.0361   30.9246   12.5817 C.3       3 GLC5        0.0000 
    110 CA         32.6890   29.3990   13.3870 C.3       9 GLL5        0.0000 
    111 CA         35.8200   31.6640   11.9270 C.3       6 GLP5        0.0000 
    112 CA         34.1420   35.2200   22.6800 C.3       3 GLC5        0.0000 
    113 CA         33.2470   33.9420   23.2840 C.3       6 GLP5        0.0000 
    114 CA         36.0303   39.6123   21.3600 C.3       3 GLC5        0.0000 
    115 CA         35.7360   40.8362   24.2823 C.3       3 GLC5        0.0000 
    116 CA         34.6010   38.8440   23.9970 C.3       9 GLL5        0.0000 
    117 CA         36.9950   42.0780   24.5630 C.3       6 GLP5        0.0000 
    118 CA         38.2752   34.9231   17.1844 C.3       3 GLC5        0.0000 
    119 CA         39.5870   33.6190   17.6920 C.3       6 GLP5        0.0000 
@<TRIPOS>BOND
@<TRIPOS>SUBSTRUCTURE
     1 ALC1        4 GROUP        1 X    ALC  0     ROOT ALC X 1
     2 SEC2        1 GROUP        1 X    SEC  0     **** SEC X 2
     3 GLC5        7 GROUP        1 X    GLC  0     **** GLC X 6
     4 ALP1        6 GROUP        1 Y    ALP  0     ROOT ALP Y 8
     5 SEP2        3 GROUP        1 Y    SEP  0     **** SEP Y 9
     6 GLP5        9 GROUP        1 Y    GLP  0     **** GLP Y 13
     7 ALL1        5 GROUP        1 Z    ALL  0     ROOT ALL Z 15
     8 SEL2        2 GROUP        1 Z    SEL  0     **** SEL Z 16
     9 GLL5        8 GROUP        1 Z    GLL  0     **** GLL Z 20
@<TRIPOS>SET

