#    Name: 1kv2_B96_1_ligand
#    Modification time : Tue Mar 25 10:36:36 2014

@<TRIPOS>MOLECULE
1kv2_B96_1_ligand
   77    81     1     0     0
SMALL
NO_CHARGES


@<TRIPOS>ATOM
      1 C1         32.8500   33.9990   15.3520 C.2       1 B96391      0.0000 
      2 O1         31.9630   34.5370   16.0310 O.2       1 B96391      0.0000 
      3 N2         34.0770   33.8920   15.8400 N.am      1 B96391      0.0000 
      4 C3         34.4030   34.4490   16.9930 C.ar      1 B96391      0.0000 
      5 C4         35.4970   35.2570   16.9940 C.ar      1 B96391      0.0000 
      6 C5         35.9010   35.8800   18.1430 C.ar      1 B96391      0.0000 
      7 C6         35.1810   35.6970   19.2810 C.ar      1 B96391      0.0000 
      8 C31        36.2220   35.4440   15.8200 C.ar      1 B96391      0.0000 
      9 C32        37.3710   36.2710   15.8060 C.ar      1 B96391      0.0000 
     10 C33        37.7830   36.8970   16.9510 C.ar      1 B96391      0.0000 
     11 C34        37.0550   36.7140   18.1170 C.ar      1 B96391      0.0000 
     12 C7         34.0700   34.8730   19.2770 C.ar      1 B96391      0.0000 
     13 C8         33.6800   34.2450   18.0870 C.ar      1 B96391      0.0000 
     14 N9         32.6030   33.4680   14.1560 N.am      1 B96391      0.0000 
     15 C10        31.4490   33.4970   13.4860 C.2       1 B96391      0.0000 
     16 C14        30.6230   34.5430   13.3720 C.2       1 B96391      0.0000 
     17 C13        29.6480   34.1840   12.5140 C.2       1 B96391      0.0000 
     18 N12        29.8430   32.9430   12.0960 N.2       1 B96391      0.0000 
     19 N11        31.0020   32.5220   12.7310 N.pl3     1 B96391      0.0000 
     20 C15        31.5890   31.3350   12.5550 C.ar      1 B96391      0.0000 
     21 C17        27.9030   35.6540   13.3180 C.3       1 B96391      0.0000 
     22 C18        27.5700   34.2410   11.3750 C.3       1 B96391      0.0000 
     23 C19        29.0900   36.1090   11.2190 C.3       1 B96391      0.0000 
     24 C16        28.6570   34.9690   12.1470 C.3       1 B96391      0.0000 
     25 C20        31.7510   30.9020   11.3070 C.ar      1 B96391      0.0000 
     26 C21        32.3860   29.7130   11.0460 C.ar      1 B96391      0.0000 
     27 C22        32.8550   28.9620   12.0800 C.ar      1 B96391      0.0000 
     28 C23        32.6890   29.3990   13.3870 C.ar      1 B96391      0.0000 
     29 C24        32.0420   30.6080   13.6170 C.ar      1 B96391      0.0000 
     30 C25        33.5550   27.6910   11.7990 C.3       1 B96391      0.0000 
     31 O41        35.5610   36.3180   20.3550 O.3       1 B96391      0.0000 
     32 C42        34.8700   35.9700   21.5440 C.3       1 B96391      0.0000 
     33 C43        35.2040   37.0260   22.6080 C.3       1 B96391      0.0000 
     34 N44        34.1660   38.0790   22.8130 N.4       1 B96391      0.0000 
     35 C45        34.0940   38.8980   21.6080 C.3       1 B96391      0.0000 
     36 C46        33.8330   40.3930   21.8460 C.3       1 B96391      0.0000 
     37 O47        34.7250   40.9080   22.8030 O.3       1 B96391      0.0000 
     38 C48        34.3530   40.3450   24.0060 C.3       1 B96391      0.0000 
     39 C49        34.6010   38.8440   23.9970 C.3       1 B96391      0.0000 
     40 H          34.8063   33.3517   15.2967 H         1 B96391      0.0000 
     41 H          35.9285   34.9816   14.9498 H         1 B96391      0.0000 
     42 H          37.8838   36.3884   14.9211 H         1 B96391      0.0000 
     43 H          38.6169   37.4945   16.9554 H         1 B96391      0.0000 
     44 H          37.3416   37.1836   18.9901 H         1 B96391      0.0000 
     45 H          33.5307   34.7179   20.1343 H         1 B96391      0.0000 
     46 H          32.8450   33.6445   18.0965 H         1 B96391      0.0000 
     47 H          33.4367   32.9510   13.6681 H         1 B96391      0.0000 
     48 H          30.7042   35.3905   13.8146 H         1 B96391      0.0000 
     49 H          31.3944   31.4647   10.4970 H         1 B96391      0.0000 
     50 H          32.5044   29.3953   10.0704 H         1 B96391      0.0000 
     51 H          33.0368   28.8411   14.1694 H         1 B96391      0.0000 
     52 H          31.9122   30.9402   14.5809 H         1 B96391      0.0000 
     53 H          35.1786   35.0013   21.9337 H         1 B96391      0.0000 
     54 H          33.7895   35.9687   21.4096 H         1 B96391      0.0000 
     55 H          36.1694   37.5015   22.3286 H         1 B96391      0.0000 
     56 H          35.3960   36.4979   23.5674 H         1 B96391      0.0000 
     57 H          33.2325   37.5964   23.0120 H         1 B96391      0.0000 
     58 H          33.2930   38.5230   20.9287 H         1 B96391      0.0000 
     59 H          35.0387   38.8130   21.0215 H         1 B96391      0.0000 
     60 H          32.7805   40.4924   22.1585 H         1 B96391      0.0000 
     61 H          33.9282   40.8978   20.8706 H         1 B96391      0.0000 
     62 H          33.2800   40.4946   24.2346 H         1 B96391      0.0000 
     63 H          34.9147   40.7609   24.8647 H         1 B96391      0.0000 
     64 H          35.7024   38.6782   24.1673 H         1 B96391      0.0000 
     65 H          34.1205   38.4123   24.9203 H         1 B96391      0.0000 
     66 H          28.5110   36.2291   13.8654 H         1 B96391      0.0000 
     67 H          27.1618   36.2399   12.9903 H         1 B96391      0.0000 
     68 H          27.4949   34.9848   13.9389 H         1 B96391      0.0000 
     69 H          27.9237   33.8278   10.5359 H         1 B96391      0.0000 
     70 H          27.1609   33.5049   11.9143 H         1 B96391      0.0000 
     71 H          26.8281   34.8563   11.1086 H         1 B96391      0.0000 
     72 H          29.7687   36.7025   11.6515 H         1 B96391      0.0000 
     73 H          29.4980   35.7649   10.3734 H         1 B96391      0.0000 
     74 H          28.3181   36.6885   10.9574 H         1 B96391      0.0000 
     75 H          34.3715   27.8326   11.2392 H         1 B96391      0.0000 
     76 H          33.8508   27.2363   12.6391 H         1 B96391      0.0000 
     77 H          32.9704   27.0460   11.3069 H         1 B96391      0.0000 
@<TRIPOS>BOND
     1    2    1 2    
     2    3    1 am   
     3   14    1 am   
     4    4    3 1    
     5   40    3 1    
     6    5    4 ar   
     7   13    4 ar   
     8    6    5 ar   
     9    8    5 ar   
    10    7    6 ar   
    11   11    6 ar   
    12   12    7 ar   
    13   31    7 1    
    14    9    8 ar   
    15   41    8 1    
    16   10    9 ar   
    17   42    9 1    
    18   11   10 ar   
    19   43   10 1    
    20   44   11 1    
    21   13   12 ar   
    22   45   12 1    
    23   46   13 1    
    24   15   14 1    
    25   47   14 1    
    26   16   15 2    
    27   19   15 1    
    28   17   16 1    
    29   48   16 1    
    30   18   17 2    
    31   24   17 1    
    32   19   18 1    
    33   20   19 1    
    34   25   20 ar   
    35   29   20 ar   
    36   24   21 1    
    37   66   21 1    
    38   67   21 1    
    39   68   21 1    
    40   24   22 1    
    41   69   22 1    
    42   70   22 1    
    43   71   22 1    
    44   24   23 1    
    45   72   23 1    
    46   73   23 1    
    47   74   23 1    
    48   26   25 ar   
    49   49   25 1    
    50   27   26 ar   
    51   50   26 1    
    52   28   27 ar   
    53   30   27 1    
    54   29   28 ar   
    55   51   28 1    
    56   52   29 1    
    57   75   30 1    
    58   76   30 1    
    59   77   30 1    
    60   32   31 1    
    61   33   32 1    
    62   53   32 1    
    63   54   32 1    
    64   34   33 1    
    65   55   33 1    
    66   56   33 1    
    67   35   34 1    
    68   39   34 1    
    69   57   34 1    
    70   36   35 1    
    71   58   35 1    
    72   59   35 1    
    73   37   36 1    
    74   60   36 1    
    75   61   36 1    
    76   38   37 1    
    77   39   38 1    
    78   62   38 1    
    79   63   38 1    
    80   64   39 1    
    81   65   39 1    
@<TRIPOS>SUBSTRUCTURE
     1 B96391      1 GROUP   
@<TRIPOS>SET

