#    Name: 3pj1_LHL_1_INTS_M
#    Modification time : Tue Mar 25 06:39:43 2014

@<TRIPOS>MOLECULE
3pj1_LHL_1_INTS_M
   82     0     9     0     0
SMALL
NO_CHARGES


@<TRIPOS>ATOM
      1 N         -22.1185    4.7340  -19.9795 N.am      2 SEC2        0.0000 
      2 N         -21.0620    4.9110  -18.9260 N.am      8 SEL2        0.0000 
      3 N         -23.1750    4.5570  -21.0330 N.am      5 SEP2        0.0000 
      4 CA        -18.5930    3.8025  -19.3995 C.3       3 GLC5        0.0000 
      5 CA        -19.8070    5.3620  -19.1740 C.3       9 GLL5        0.0000 
      6 CA        -17.3790    2.2430  -19.6250 C.3       6 GLP5        0.0000 
      7 CA        -21.4255    6.1730  -20.0055 C.3       3 GLC5        0.0000 
      8 CA        -23.0440    6.9840  -20.8370 C.3       6 GLP5        0.0000 
      9 CA        -20.5770    6.8780  -18.2240 C.3       3 GLC5        0.0000 
     10 CA        -21.3470    8.3940  -17.2740 C.3       6 GLP5        0.0000 
     11 O         -20.2175    5.8170  -21.5100 O.2       1 ALC1        0.0000 
     12 O         -19.4460    5.5690  -20.4630 O.2       7 ALL1        0.0000 
     13 O         -20.9890    6.0650  -22.5570 O.2       4 ALP1        0.0000 
     14 CA        -17.9570    3.9290  -16.2950 C.3       3 GLC5        0.0000 
     15 CA        -19.3310    5.3980  -16.8730 C.3       9 GLL5        0.0000 
     16 CA        -16.5830    2.4600  -15.7170 C.3       6 GLP5        0.0000 
     17 CA        -16.8315    4.3055  -15.9075 C.3       3 GLC5        0.0000 
     18 CA        -17.0800    6.1510  -16.0980 C.3       9 GLL5        0.0000 
     19 CA        -23.0635    5.5805  -14.9945 C.3       3 GLC5        0.0000 
     20 CA        -21.0340    4.7140  -15.3010 C.3       9 GLL5        0.0000 
     21 CA        -25.0930    6.4470  -14.6880 C.3       6 GLP5        0.0000 
     22 CA        -22.8020    3.6510  -14.5655 C.3       3 GLC5        0.0000 
     23 CA        -24.5700    2.5880  -13.8300 C.3       6 GLP5        0.0000 
     24 CA        -22.6900    3.5460  -18.9655 C.3       3 GLC5        0.0000 
     25 CA        -21.4820    4.6970  -17.6720 C.3       9 GLL5        0.0000 
     26 CA        -23.8980    2.3950  -20.2590 C.3       6 GLP5        0.0000 
     27 CA        -22.7550    5.8460  -18.6710 C.3       3 GLC5        0.0000 
     28 CA        -24.0280    6.9950  -19.6700 C.3       6 GLP5        0.0000 
     29 CA        -17.7940    4.0575  -20.2805 C.3       3 GLC5        0.0000 
     30 CA        -18.2090    5.8720  -20.9360 C.3       9 GLL5        0.0000 
     31 CA        -18.4730    8.0855  -19.4775 C.3       3 GLC5        0.0000 
     32 CA        -17.2980    6.6400  -20.2080 C.3       9 GLL5        0.0000 
     33 CA        -19.6480    9.5310  -18.7470 C.3       6 GLP5        0.0000 
     34 CA        -12.6170    4.1555  -21.3405 C.3       3 GLC5        0.0000 
     35 CA        -11.7340    5.4550  -22.7830 C.3       9 GLL5        0.0000 
     36 CA        -13.5000    2.8560  -19.8980 C.3       6 GLP5        0.0000 
     37 CA        -18.2790    2.2875  -14.6910 C.3       3 GLC5        0.0000 
     38 CA        -19.9750    2.1150  -13.6650 C.3       9 GLL5        0.0000 
     39 CA        -20.4565    1.7975  -15.3890 C.3       3 GLC5        0.0000 
     40 CA        -20.9380    1.4800  -17.1130 C.3       6 GLP5        0.0000 
     41 CA        -19.5880    0.1620  -13.9845 C.3       3 GLC5        0.0000 
     42 CA        -19.2010   -1.7910  -14.3040 C.3       6 GLP5        0.0000 
     43 CA        -22.0615    2.4550  -13.0240 C.3       3 GLC5        0.0000 
     44 CA        -24.1480    2.7950  -12.3830 C.3       6 GLP5        0.0000 
     45 CA        -19.2510    2.1585  -11.0830 C.3       3 GLC5        0.0000 
     46 CA        -20.8670    3.0280  -11.1930 C.3       9 GLL5        0.0000 
     47 CA        -17.6350    1.2890  -10.9730 C.3       6 GLP5        0.0000 
     48 CA        -21.4560    5.8460   -8.5620 C.3       3 GLC5        0.0000 
     49 CA        -21.3190    5.3540  -10.7190 C.3       9 GLL5        0.0000 
     50 CA        -21.5930    6.3380   -6.4050 C.3       6 GLP5        0.0000 
     51 CA        -21.6405    9.1320  -13.4660 C.3       3 GLC5        0.0000 
     52 CA        -20.9940    7.3610  -12.5880 C.3       9 GLL5        0.0000 
     53 CA        -22.2870   10.9030  -14.3440 C.3       6 GLP5        0.0000 
     54 CA        -20.9945    9.2475  -11.4210 C.3       3 GLC5        0.0000 
     55 CA        -20.9950   11.1340  -10.2540 C.3       6 GLP5        0.0000 
     56 CA        -20.9656    3.1494  -16.9799 C.3       3 GLC5        0.0000 
     57 CA        -20.6180    4.9360  -16.6110 C.3       9 GLL5        0.0000 
     58 CA        -21.1701    6.6064  -17.0604 C.3       3 GLC5        0.0000 
     59 CA        -18.0697    7.6150  -21.6130 C.3       3 GLC5        0.0000 
     60 CA        -18.3860    8.9740  -22.6540 C.3       6 GLP5        0.0000 
     61 CA        -15.8268    4.8935  -20.0042 C.3       3 GLC5        0.0000 
     62 CA        -14.9820    2.9950  -19.5330 C.3       6 GLP5        0.0000 
     63 CA        -17.1295    7.8460  -22.0162 C.3       3 GLC5        0.0000 
     64 CA        -16.0450    6.9440  -20.7430 C.3       9 GLL5        0.0000 
     65 CA        -17.8115    7.2760  -22.5680 C.3       3 GLC5        0.0000 
     66 CA        -16.6120    5.7310  -22.7510 C.3       9 GLL5        0.0000 
     67 CA        -16.5041    3.9826  -22.0089 C.3       3 GLC5        0.0000 
     68 CA        -17.8620    5.4250  -22.2130 C.3       9 GLL5        0.0000 
     69 CA        -15.9990    2.1970  -21.7200 C.3       6 GLP5        0.0000 
     70 CA        -22.3390    3.4140  -12.5422 C.3       3 GLC5        0.0000 
     71 CA        -20.5540    4.6950  -12.9080 C.3       9 GLL5        0.0000 
     72 CA        -18.9378    2.0160  -12.0265 C.3       3 GLC5        0.0000 
     73 CA        -20.5060    3.3710  -12.4950 C.3       9 GLL5        0.0000 
     74 CA        -21.7878    2.3057   -9.6945 C.3       3 GLC5        0.0000 
     75 CA        -22.5030    1.0860   -8.6410 C.3       6 GLP5        0.0000 
     76 CA        -22.6103    3.1603  -11.5655 C.3       3 GLC5        0.0000 
     77 CA        -21.2780    4.0230  -10.3030 C.3       9 GLL5        0.0000 
     78 CA        -19.4447    4.4192   -9.9660 C.3       3 GLC5        0.0000 
     79 CA        -17.5910    4.1500   -9.4210 C.3       6 GLP5        0.0000 
     80 CA        -23.0527    5.1513   -9.5965 C.3       3 GLC5        0.0000 
     81 CA        -24.8070    5.6140   -8.6820 C.3       6 GLP5        0.0000 
     82 CA        -22.6412    4.1553  -11.8765 C.3       3 GLC5        0.0000 
@<TRIPOS>BOND
@<TRIPOS>SUBSTRUCTURE
     1 ALC1       11 GROUP        1 X    ALC  0     ROOT ALC X 1
     2 SEC2        1 GROUP        1 X    SEC  0     **** SEC X 2
     3 GLC5        4 GROUP        1 X    GLC  0     **** GLC X 6
     4 ALP1       13 GROUP        1 Y    ALP  0     ROOT ALP Y 8
     5 SEP2        3 GROUP        1 Y    SEP  0     **** SEP Y 9
     6 GLP5        6 GROUP        1 Y    GLP  0     **** GLP Y 13
     7 ALL1       12 GROUP        1 Z    ALL  0     ROOT ALL Z 15
     8 SEL2        2 GROUP        1 Z    SEL  0     **** SEL Z 16
     9 GLL5        5 GROUP        1 Z    GLL  0     **** GLL Z 20
@<TRIPOS>SET

