#    Name: 3pj1_LHL_1_ligand
#    Modification time : Tue Mar 25 06:39:43 2014

@<TRIPOS>MOLECULE
3pj1_LHL_1_ligand
   64    67     1     0     0
SMALL
NO_CHARGES


@<TRIPOS>ATOM
      1 N1        -21.0620    4.9110  -18.9260 N.ar      1 LHL1        0.0000 
      2 C2        -19.8070    5.3620  -19.1740 C.ar      1 LHL1        0.0000 
      3 N2        -19.4460    5.5690  -20.4630 N.pl3     1 LHL1        0.0000 
      4 N3        -18.9550    5.6060  -18.1530 N.ar      1 LHL1        0.0000 
      5 C4        -19.3310    5.3980  -16.8730 C.ar      1 LHL1        0.0000 
      6 C5        -17.0800    6.1510  -16.0980 C.3       1 LHL1        0.0000 
      7 N5        -18.4340    5.6570  -15.8140 N.am      1 LHL1        0.0000 
      8 C6        -18.8470    5.4200  -14.4810 C.2       1 LHL1        0.0000 
      9 O6        -18.0620    5.6360  -13.5280 O.2       1 LHL1        0.0000 
     10 N7        -20.1550    4.9570  -14.2290 N.am      1 LHL1        0.0000 
     11 C8        -21.0340    4.7140  -15.3010 C.3       1 LHL1        0.0000 
     12 C9        -20.6180    4.9360  -16.6110 C.ar      1 LHL1        0.0000 
     13 C10       -21.4820    4.6970  -17.6720 C.ar      1 LHL1        0.0000 
     14 C21       -18.2090    5.8720  -20.9360 C.ar      1 LHL1        0.0000 
     15 C22       -17.2980    6.6400  -20.2080 C.ar      1 LHL1        0.0000 
     16 C23       -16.0450    6.9440  -20.7430 C.ar      1 LHL1        0.0000 
     17 C24       -15.7010    6.4920  -22.0140 C.ar      1 LHL1        0.0000 
     18 O24       -14.4610    6.8120  -22.5170 O.3       1 LHL1        0.0000 
     19 C25       -16.6120    5.7310  -22.7510 C.ar      1 LHL1        0.0000 
     20 C26       -17.8620    5.4250  -22.2130 C.ar      1 LHL1        0.0000 
     21 C27       -14.0920    6.5170  -23.8660 C.3       1 LHL1        0.0000 
     22 C28       -12.7620    7.1900  -24.2170 C.3       1 LHL1        0.0000 
     23 N28       -11.6060    6.8010  -23.3730 N.4       1 LHL1        0.0000 
     24 C29       -11.3920    7.7960  -22.3030 C.3       1 LHL1        0.0000 
     25 C30       -10.2090    8.6870  -22.6280 C.3       1 LHL1        0.0000 
     26 C31       -11.7340    5.4550  -22.7830 C.3       1 LHL1        0.0000 
     27 C32       -10.6400    4.5420  -23.2920 C.3       1 LHL1        0.0000 
     28 C71       -20.5540    4.6950  -12.9080 C.ar      1 LHL1        0.0000 
     29 C72       -20.5060    3.3710  -12.4950 C.ar      1 LHL1        0.0000 
     30 CL72      -19.9750    2.1150  -13.6650 Cl        1 LHL1        0.0000 
     31 C73       -20.8670    3.0280  -11.1930 C.ar      1 LHL1        0.0000 
     32 C74       -21.2780    4.0230  -10.3030 C.ar      1 LHL1        0.0000 
     33 C75       -21.3190    5.3540  -10.7190 C.ar      1 LHL1        0.0000 
     34 C76       -20.9500    5.6770  -12.0210 C.ar      1 LHL1        0.0000 
     35 CL76      -20.9940    7.3610  -12.5880 Cl        1 LHL1        0.0000 
     36 H         -20.2387    5.4829  -21.2083 H         1 LHL1        0.0000 
     37 H         -22.0138    5.3013  -15.1116 H         1 LHL1        0.0000 
     38 H         -21.4319    3.6304  -15.2099 H         1 LHL1        0.0000 
     39 H         -22.4376    4.3568  -17.4720 H         1 LHL1        0.0000 
     40 H         -17.5519    6.9837  -19.2719 H         1 LHL1        0.0000 
     41 H         -15.3771    7.5021  -20.1968 H         1 LHL1        0.0000 
     42 H         -16.3603    5.3974  -23.6887 H         1 LHL1        0.0000 
     43 H         -18.5324    4.8672  -22.7589 H         1 LHL1        0.0000 
     44 H         -14.8450    6.8756  -24.5811 H         1 LHL1        0.0000 
     45 H         -13.9710    5.4370  -24.0275 H         1 LHL1        0.0000 
     46 H         -12.9121    8.2927  -24.1663 H         1 LHL1        0.0000 
     47 H         -12.5390    6.9712  -25.2863 H         1 LHL1        0.0000 
     48 H         -10.6987    6.8093  -24.0128 H         1 LHL1        0.0000 
     49 H         -11.2018    7.2932  -21.3487 H         1 LHL1        0.0000 
     50 H         -12.2821    8.4230  -22.1833 H         1 LHL1        0.0000 
     51 H         -12.7057    5.0183  -23.0395 H         1 LHL1        0.0000 
     52 H         -11.6672    5.5107  -21.6907 H         1 LHL1        0.0000 
     53 H         -20.8314    2.0500  -10.8887 H         1 LHL1        0.0000 
     54 H         -21.5490    3.7748   -9.3454 H         1 LHL1        0.0000 
     55 H         -21.6188    6.0867  -10.0694 H         1 LHL1        0.0000 
     56 H         -16.5525    6.2914  -15.2601 H         1 LHL1        0.0000 
     57 H         -16.5628    5.5110  -16.6662 H         1 LHL1        0.0000 
     58 H         -17.0978    7.0253  -16.5831 H         1 LHL1        0.0000 
     59 H          -9.3643    8.1611  -22.7275 H         1 LHL1        0.0000 
     60 H         -10.3450    9.1877  -23.4829 H         1 LHL1        0.0000 
     61 H         -10.0485    9.3669  -21.9125 H         1 LHL1        0.0000 
     62 H          -9.7306    4.8861  -23.0585 H         1 LHL1        0.0000 
     63 H         -10.7137    3.6227  -22.9055 H         1 LHL1        0.0000 
     64 H         -10.6702    4.4450  -24.2868 H         1 LHL1        0.0000 
@<TRIPOS>BOND
     1    2    1 ar   
     2   13    1 ar   
     3    3    2 1    
     4    4    2 ar   
     5   14    3 1    
     6   36    3 1    
     7    5    4 ar   
     8    7    5 1    
     9   12    5 ar   
    10    7    6 1    
    11   56    6 1    
    12   57    6 1    
    13   58    6 1    
    14    8    7 am   
    15    9    8 2    
    16   10    8 am   
    17   11   10 1    
    18   28   10 1    
    19   12   11 1    
    20   37   11 1    
    21   38   11 1    
    22   13   12 ar   
    23   39   13 1    
    24   15   14 ar   
    25   20   14 ar   
    26   16   15 ar   
    27   40   15 1    
    28   17   16 ar   
    29   41   16 1    
    30   18   17 1    
    31   19   17 ar   
    32   21   18 1    
    33   20   19 ar   
    34   42   19 1    
    35   43   20 1    
    36   22   21 1    
    37   44   21 1    
    38   45   21 1    
    39   23   22 1    
    40   46   22 1    
    41   47   22 1    
    42   24   23 1    
    43   26   23 1    
    44   48   23 1    
    45   25   24 1    
    46   49   24 1    
    47   50   24 1    
    48   59   25 1    
    49   60   25 1    
    50   61   25 1    
    51   27   26 1    
    52   51   26 1    
    53   52   26 1    
    54   62   27 1    
    55   63   27 1    
    56   64   27 1    
    57   29   28 ar   
    58   34   28 ar   
    59   30   29 1    
    60   31   29 ar   
    61   32   31 ar   
    62   53   31 1    
    63   33   32 ar   
    64   54   32 1    
    65   34   33 ar   
    66   55   33 1    
    67   35   34 1    
@<TRIPOS>SUBSTRUCTURE
     1 LHL1        1 GROUP   
@<TRIPOS>SET

