#    Name: 4BUX_1_CAVITY_N1_6.mol2
#    Modification time : Tue Mar 11 20:31:33 2014

@<TRIPOS>MOLECULE
4BUX_1_CAVITY_N1_6.mol2
   87     0     7     0     0
SMALL
NO_CHARGES


@<TRIPOS>ATOM
      1 CA          3.4842  -13.6798    4.6641 C.3       6 GLY6        0.0000 
      2 O           3.3965  -12.4016    3.8839 O.2       2 ALA2        0.0000 
      3 CA          4.8535  -12.5092    3.5439 C.3       6 GLY6        0.0000 
      4 CZ          3.8300  -12.9021    5.8993 C.ar      5 PHE5        0.0000 
      5 CA          5.2869  -13.0097    5.5592 C.3       6 GLY6        0.0000 
      6 CA          6.7439  -13.1173    5.2191 C.3       6 GLY6        0.0000 
      7 CA          8.2009  -13.2250    4.8790 C.3       6 GLY6        0.0000 
      8 CA          9.6578  -13.3326    4.5390 C.3       6 GLY6        0.0000 
      9 N           3.7423  -11.6240    5.1192 N.2       2 ALA2        0.0000 
     10 CA          5.1992  -11.7316    4.7791 C.3       6 GLY6        0.0000 
     11 CA          6.6562  -11.8392    4.4390 C.3       6 GLY6        0.0000 
     12 DU          8.1132  -11.9468    4.0989 H         7 CUB7        0.0000 
     13 CA          9.5701  -12.0544    3.7588 C.3       6 GLY6        0.0000 
     14 N           5.1115  -10.4534    3.9989 N.2       2 ALA2        0.0000 
     15 CZ          6.5685  -10.5610    3.6589 C.ar      5 PHE5        0.0000 
     16 CZ          8.0255  -10.6686    3.3188 C.ar      5 PHE5        0.0000 
     17 N           3.5669   -9.0676    3.5589 N.2       2 ALA2        0.0000 
     18 CZ          6.4808   -9.2829    2.8787 C.ar      5 PHE5        0.0000 
     19 O           1.7002  -18.3001   11.7153 O.2       2 ALA2        0.0000 
     20 OG          3.1572  -18.4077   11.3752 O.2       1 SER1        0.0000 
     21 CA          5.6327  -12.2321    6.7944 C.3       6 GLY6        0.0000 
     22 CA          7.0897  -12.3397    6.4543 C.3       6 GLY6        0.0000 
     23 O           8.5466  -12.4473    6.1142 O.2       2 ALA2        0.0000 
     24 N           5.5450  -10.9539    6.0143 N.2       2 ALA2        0.0000 
     25 DU          7.0020  -11.0615    5.6742 H         7 CUB7        0.0000 
     26 CA          8.4589  -11.1692    5.3341 C.3       6 GLY6        0.0000 
     27 N           5.4573   -9.6758    5.2341 N.2       2 ALA2        0.0000 
     28 CZ          6.9143   -9.7834    4.8941 C.ar      5 PHE5        0.0000 
     29 N           5.3696   -8.3976    4.4540 N.2       2 ALA2        0.0000 
     30 DU          3.6784  -20.1864   14.1707 H         7 CUB7        0.0000 
     31 CA          2.1337  -18.8006   13.7307 C.3       6 GLY6        0.0000 
     32 OG          3.5907  -18.9082   13.3906 O.2       1 SER1        0.0000 
     33 O           2.0460  -17.5225   12.9505 O.2       2 ALA2        0.0000 
     34 OG          3.5030  -17.6301   12.6104 O.2       1 SER1        0.0000 
     35 CZ          1.9583  -16.2443   12.1704 C.ar      5 PHE5        0.0000 
     36 CZ          6.0661  -12.7326    8.8098 C.ar      5 PHE5        0.0000 
     37 CZ          7.5231  -12.8402    8.4697 C.ar      5 PHE5        0.0000 
     38 CA          4.5215  -11.3469    8.3697 C.3       6 GLY6        0.0000 
     39 CA          5.9784  -11.4545    8.0296 C.3       6 GLY6        0.0000 
     40 DU          7.4354  -11.5621    7.6895 H         7 CUB7        0.0000 
     41 CA          8.8924  -11.6697    7.3495 C.3       6 GLY6        0.0000 
     42 N           4.4338  -10.0687    7.5896 N.2       2 ALA2        0.0000 
     43 N           5.8907  -10.1763    7.2495 N.2       2 ALA2        0.0000 
     44 CA          7.3477  -10.2839    6.9094 C.3       6 GLY6        0.0000 
     45 N           5.8030   -8.8981    6.4694 N.2       2 ALA2        0.0000 
     46 CZ          7.2600   -9.0057    6.1293 C.ar      5 PHE5        0.0000 
     47 NZ          2.5671  -19.3012   15.7460 N.2       4 LYS4        0.0000 
     48 OD1         4.0241  -19.4088   15.4059 O.3       3 ASP3        0.0000 
     49 CZ          1.0225  -17.9154   15.3059 C.ar      5 PHE5        0.0000 
     50 NZ          2.4794  -18.0230   14.9659 N.2       4 LYS4        0.0000 
     51 OG          3.9364  -18.1306   14.6258 O.2       1 SER1        0.0000 
     52 CZ          0.9348  -16.6372   14.5258 C.ar      5 PHE5        0.0000 
     53 CZ          2.3918  -16.7448   14.1857 C.ar      5 PHE5        0.0000 
     54 OG          3.8487  -16.8524   13.8457 O.2       1 SER1        0.0000 
     55 CZ          2.3041  -15.4667   13.4056 C.ar      5 PHE5        0.0000 
     56 CZ          3.7610  -15.5743   13.0655 C.ar      5 PHE5        0.0000 
     57 CA          4.9549  -11.8474   10.3850 C.3       6 GLY6        0.0000 
     58 CZ          6.4119  -11.9550   10.0450 C.ar      5 PHE5        0.0000 
     59 CZ          7.8689  -12.0626    9.7049 C.ar      5 PHE5        0.0000 
     60 CA          4.8672  -10.5692    9.6049 C.3       6 GLY6        0.0000 
     61 DU          6.3242  -10.6768    9.2648 H         7 CUB7        0.0000 
     62 N           7.7812  -10.7844    8.9247 N.2       2 ALA2        0.0000 
     63 N           6.2365   -9.3987    8.4847 N.2       2 ALA2        0.0000 
     64 OG          7.6935   -9.5063    8.1446 O.2       1 SER1        0.0000 
     65 NZ          1.4559  -18.4159   17.3213 N.2       4 LYS4        0.0000 
     66 NZ          4.1945  -16.0748   15.0809 N.2       4 LYS4        0.0000 
     67 CZ          4.1068  -14.7966   14.3007 C.ar      5 PHE5        0.0000 
     68 CZ          5.5638  -14.9043   13.9606 C.ar      5 PHE5        0.0000 
     69 CZ          5.4761  -13.6261   13.1805 C.ar      5 PHE5        0.0000 
     70 CA          5.3884  -12.3479   12.4004 C.3       6 GLY6        0.0000 
     71 CZ          6.8453  -12.4555   12.0603 C.ar      5 PHE5        0.0000 
     72 CA          5.3007  -11.0698   11.6203 C.3       6 GLY6        0.0000 
     73 N           6.7576  -11.1774   11.2802 N.2       2 ALA2        0.0000 
     74 N           5.2130   -9.7916   10.8401 N.2       2 ALA2        0.0000 
     75 N           6.6699   -9.8992   10.5000 N.2       2 ALA2        0.0000 
     76 CA          4.4525  -14.0190   15.5359 C.3       6 GLY6        0.0000 
     77 CZ          5.9095  -14.1266   15.1959 C.ar      5 PHE5        0.0000 
     78 CA          5.8218  -12.8485   14.4157 C.3       6 GLY6        0.0000 
     79 CZ          7.2788  -12.9561   14.0756 C.ar      5 PHE5        0.0000 
     80 CA          5.7341  -11.5703   13.6356 C.3       6 GLY6        0.0000 
     81 CZ          7.1911  -11.6779   13.2955 C.ar      5 PHE5        0.0000 
     82 N           5.6464  -10.2921   12.8555 N.2       2 ALA2        0.0000 
     83 N           7.1034  -10.3997   12.5154 N.2       2 ALA2        0.0000 
     84 CA          6.2553  -13.3490   16.4311 C.3       6 GLY6        0.0000 
     85 N           6.1676  -12.0708   15.6509 N.2       2 ALA2        0.0000 
     86 OG          7.6245  -12.1784   15.3108 O.2       1 SER1        0.0000 
     87 N           7.5368  -10.9003   14.5307 N.2       2 ALA2        0.0000 
@<TRIPOS>BOND
@<TRIPOS>SUBSTRUCTURE
     1 SER1       20 GROUP   
     2 ALA2        2 GROUP   
     3 ASP3       48 GROUP   
     4 LYS4       47 GROUP   
     5 PHE5        4 GROUP   
     6 GLY6        1 GROUP   
     7 CUB7       12 GROUP   
@<TRIPOS>SET

