#    Name: 4bux_F35_1_INTS_M
#    Modification time : Tue Mar 25 08:26:47 2014

@<TRIPOS>MOLECULE
4bux_F35_1_INTS_M
   48     0     9     0     0
SMALL
NO_CHARGES


@<TRIPOS>ATOM
      1 CA          5.9630  -14.2260    4.5310 C.3       3 GLC5        0.0000 
      2 CA          6.0760  -12.9040    3.6730 C.3       9 GLL5        0.0000 
      3 CA          5.8500  -15.5480    5.3890 C.3       6 GLP5        0.0000 
      4 CA          7.2680   -8.8890    5.1470 C.3       3 GLC5        0.0000 
      5 CA          6.1320  -10.2260    6.4470 C.3       9 GLL5        0.0000 
      6 CA          8.4040   -7.5520    3.8470 C.3       6 GLP5        0.0000 
      7 CA          6.3220  -13.6855    7.3700 C.3       3 GLC5        0.0000 
      8 CA          5.7100  -11.8970    8.3140 C.3       9 GLL5        0.0000 
      9 CA          6.9340  -15.4740    6.4260 C.3       6 GLP5        0.0000 
     10 O           8.5800  -10.4685   12.3280 O.2       1 ALC1        0.0000 
     11 O           7.4510  -11.1800   12.8310 O.2       7 ALL1        0.0000 
     12 O           9.7090   -9.7570   11.8250 O.2       4 ALP1        0.0000 
     13 N           9.3180   -9.8995   14.6795 N.am      2 SEC2        0.0000 
     14 N           8.2960  -10.9010   14.9270 N.am      8 SEL2        0.0000 
     15 N          10.3400   -8.8980   14.4320 N.am      5 SEP2        0.0000 
     16 N           8.8825  -10.8355   16.1995 N.am      2 SEC2        0.0000 
     17 N           9.4690  -10.7700   17.4720 N.am      5 SEP2        0.0000 
     18 CA          6.2890  -15.6685   16.2595 C.3       3 GLC5        0.0000 
     19 CA          4.8440  -14.5030   15.4980 C.3       9 GLL5        0.0000 
     20 CA          7.7340  -16.8340   17.0210 C.3       6 GLP5        0.0000 
     21 CA          4.7245  -14.6625   18.1335 C.3       3 GLC5        0.0000 
     22 CA          5.6780  -13.8640   16.4180 C.3       9 GLL5        0.0000 
     23 CA          3.7710  -15.4610   19.8490 C.3       6 GLP5        0.0000 
     24 CA          5.5895  -11.0710   16.8855 C.3       3 GLC5        0.0000 
     25 CA          6.5660  -12.8640   16.0160 C.3       9 GLL5        0.0000 
     26 CA          4.6130   -9.2780   17.7550 C.3       6 GLP5        0.0000 
     27 CA          8.7010  -12.6865   16.2400 C.3       3 GLC5        0.0000 
     28 CA         10.8360  -12.5090   16.4640 C.3       6 GLP5        0.0000 
     29 CA          4.1832  -11.8468    8.6283 C.3       3 GLC5        0.0000 
     30 CA          2.3840  -12.3940    9.1610 C.3       6 GLP5        0.0000 
     31 CA          8.5218   -8.7335    9.5493 C.3       3 GLC5        0.0000 
     32 CA          6.9180   -9.8820    8.7750 C.3       9 GLL5        0.0000 
     33 CA         10.0650   -7.4010    9.6570 C.3       6 GLP5        0.0000 
     34 CA          8.4548  -11.9802   10.8498 C.3       3 GLC5        0.0000 
     35 CA          7.0390  -10.2500   10.1080 C.3       9 GLL5        0.0000 
     36 CA         10.1250  -13.1040   11.3700 C.3       6 GLP5        0.0000 
     37 CA          4.2805  -12.1307    9.6325 C.3       3 GLC5        0.0000 
     38 CA          6.5300  -11.4630   10.5510 C.3       9 GLL5        0.0000 
     39 CA          4.5352  -12.0920   14.1085 C.3       3 GLC5        0.0000 
     40 CA          5.7180  -13.1570   13.7220 C.3       9 GLL5        0.0000 
     41 CA          2.9150  -11.3580   14.0150 C.3       6 GLP5        0.0000 
     42 CA          3.8818  -12.8403   14.4213 C.3       3 GLC5        0.0000 
     43 CA          4.8530  -14.1420   14.1570 C.3       9 GLL5        0.0000 
     44 CA          4.5185  -12.3610   15.1160 C.3       3 GLC5        0.0000 
     45 CA          6.6985  -12.9530   17.9935 C.3       3 GLC5        0.0000 
     46 CA          7.2750  -12.5420   19.7700 C.3       6 GLP5        0.0000 
     47 CA          6.9775  -14.5625   17.1610 C.3       3 GLC5        0.0000 
     48 CA          7.8330  -15.7610   18.1050 C.3       6 GLP5        0.0000 
@<TRIPOS>BOND
@<TRIPOS>SUBSTRUCTURE
     1 ALC1       10 GROUP        1 X    ALC  0     ROOT ALC X 1
     2 SEC2       13 GROUP        1 X    SEC  0     **** SEC X 2
     3 GLC5        1 GROUP        1 X    GLC  0     **** GLC X 6
     4 ALP1       12 GROUP        1 Y    ALP  0     ROOT ALP Y 8
     5 SEP2       15 GROUP        1 Y    SEP  0     **** SEP Y 9
     6 GLP5        3 GROUP        1 Y    GLP  0     **** GLP Y 13
     7 ALL1       11 GROUP        1 Z    ALL  0     ROOT ALL Z 15
     8 SEL2       14 GROUP        1 Z    SEL  0     **** SEL Z 16
     9 GLL5        2 GROUP        1 Z    GLL  0     **** GLL Z 20
@<TRIPOS>SET

