#    Name: 4bux_F35_1_ligand
#    Modification time : Tue Mar 25 08:26:47 2014

@<TRIPOS>MOLECULE
4bux_F35_1_ligand
   39    42     1     0     0
SMALL
NO_CHARGES


@<TRIPOS>ATOM
      1 O1          8.6240  -10.8970    5.0640 O.2       1 F352166     0.0000 
      2 C2          7.5330  -11.4900    4.7500 C.2       1 F352166     0.0000 
      3 N           7.4620  -12.4470    3.7780 N.am      1 F352166     0.0000 
      4 C1          6.0760  -12.9040    3.6730 C.3       1 F352166     0.0000 
      5 C           5.5650  -12.0360    4.7860 C.2       1 F352166     0.0000 
      6 O           4.3250  -12.0210    5.1280 O.2       1 F352166     0.0000 
      7 N1          6.3950  -11.2090    5.3980 N.am      1 F352166     0.0000 
      8 C3          6.1320  -10.2260    6.4470 C.3       1 F352166     0.0000 
      9 C4          6.2550  -10.7020    7.8770 C.ar      1 F352166     0.0000 
     10 C5          6.9180   -9.8820    8.7750 C.ar      1 F352166     0.0000 
     11 C6          7.0390  -10.2500   10.1080 C.ar      1 F352166     0.0000 
     12 C9          5.7100  -11.8970    8.3140 C.ar      1 F352166     0.0000 
     13 C8          5.8240  -12.2720    9.6570 C.ar      1 F352166     0.0000 
     14 C7          6.5300  -11.4630   10.5510 C.ar      1 F352166     0.0000 
     15 C10         6.6250  -11.8290   11.9950 C.2       1 F352166     0.0000 
     16 N3          7.4510  -11.1800   12.8310 N.am      1 F352166     0.0000 
     17 C17         7.5100  -11.4660   14.1450 C.2       1 F352166     0.0000 
     18 O2          8.2960  -10.9010   14.9270 O.2       1 F352166     0.0000 
     19 N2          5.7750  -12.7780   12.4270 N.2       1 F352166     0.0000 
     20 C11         5.7180  -13.1570   13.7220 C.ar      1 F352166     0.0000 
     21 C12         6.5930  -12.4950   14.6820 C.ar      1 F352166     0.0000 
     22 C16         4.8530  -14.1420   14.1570 C.ar      1 F352166     0.0000 
     23 C15         4.8440  -14.5030   15.4980 C.ar      1 F352166     0.0000 
     24 C14         5.6780  -13.8640   16.4180 C.ar      1 F352166     0.0000 
     25 C13         6.5660  -12.8640   16.0160 C.ar      1 F352166     0.0000 
     26 H           8.1535  -12.7915    3.2377 H         1 F352166     0.0000 
     27 H           5.9847  -13.9059    3.9355 H         1 F352166     0.0000 
     28 H           5.6465  -12.6130    2.7719 H         1 F352166     0.0000 
     29 H           5.1015   -9.7954    6.3154 H         1 F352166     0.0000 
     30 H           6.8143   -9.3412    6.3192 H         1 F352166     0.0000 
     31 H           7.3259   -8.9897    8.4518 H         1 F352166     0.0000 
     32 H           7.5103   -9.6178   10.7737 H         1 F352166     0.0000 
     33 H           5.2185  -12.5156    7.6546 H         1 F352166     0.0000 
     34 H           5.3889  -13.1413    9.9847 H         1 F352166     0.0000 
     35 H           8.0768  -10.4184   12.4458 H         1 F352166     0.0000 
     36 H           4.2191  -14.6066   13.4956 H         1 F352166     0.0000 
     37 H           4.2127  -15.2544   15.8229 H         1 F352166     0.0000 
     38 H           5.6372  -14.1364   17.4153 H         1 F352166     0.0000 
     39 H           7.1803  -12.4177   16.6962 H         1 F352166     0.0000 
@<TRIPOS>BOND
     1    2    1 2    
     2    3    2 am   
     3    7    2 am   
     4    4    3 1    
     5   26    3 1    
     6    5    4 1    
     7   27    4 1    
     8   28    4 1    
     9    6    5 2    
    10    7    5 am   
    11    8    7 1    
    12    9    8 1    
    13   29    8 1    
    14   30    8 1    
    15   10    9 ar   
    16   12    9 ar   
    17   11   10 ar   
    18   31   10 1    
    19   14   11 ar   
    20   32   11 1    
    21   13   12 ar   
    22   33   12 1    
    23   14   13 ar   
    24   34   13 1    
    25   15   14 1    
    26   16   15 1    
    27   19   15 2    
    28   17   16 am   
    29   35   16 1    
    30   18   17 2    
    31   21   17 1    
    32   20   19 1    
    33   21   20 ar   
    34   22   20 ar   
    35   25   21 ar   
    36   23   22 ar   
    37   36   22 1    
    38   24   23 ar   
    39   37   23 1    
    40   25   24 ar   
    41   38   24 1    
    42   39   25 1    
@<TRIPOS>SUBSTRUCTURE
     1 F352166     1 GROUP   
@<TRIPOS>SET

