#    Name: 3FH5_3_CAVITY_N1_6.mol2
#    Modification time : Mon Mar 10 16:20:41 2014

@<TRIPOS>MOLECULE
3FH5_3_CAVITY_N1_6.mol2
   23     0     6     0     0
SMALL
NO_CHARGES


@<TRIPOS>ATOM
      1 NZ         37.1907   -7.4351   -1.1438 N.2       3 LYS4        0.0000 
      2 CZ         29.8423   -8.4173    2.9837 C.ar      4 PHE5        0.0000 
      3 OG         30.5056   -8.4458   -2.3837 O.2       1 SER1        0.0000 
      4 CZ         31.6794   -8.1717    1.9518 C.ar      4 PHE5        0.0000 
      5 OG         31.7892   -8.5722   -0.1285 O.2       1 SER1        0.0000 
      6 OG         31.3456   -9.3446    1.0784 O.2       1 SER1        0.0000 
      7 N          34.7376   -5.2084   -0.6204 N.2       2 ALA2        0.0000 
      8 CA         34.2940   -5.9808    0.5865 C.3       5 GLY6        0.0000 
      9 OG         34.8474   -5.6089   -2.7007 O.2       1 SER1        0.0000 
     10 OG         34.4038   -6.3813   -1.4938 O.2       1 SER1        0.0000 
     11 OG         33.9602   -7.1538   -0.2869 O.2       1 SER1        0.0000 
     12 O          33.5165   -7.9262    0.9199 O.2       2 ALA2        0.0000 
     13 O          33.0729   -8.6986    2.1268 O.2       2 ALA2        0.0000 
     14 CZ         34.5136   -6.7818   -3.5741 C.ar      4 PHE5        0.0000 
     15 OG         34.0700   -7.5543   -2.3672 O.2       1 SER1        0.0000 
     16 OG         33.6263   -8.3267   -1.1603 O.2       1 SER1        0.0000 
     17 OG         33.1827   -9.0991    0.0465 O.2       1 SER1        0.0000 
     18 NZ         36.2409   -6.1358   -2.5257 N.2       3 LYS4        0.0000 
     19 NZ         35.7973   -6.9082   -1.3188 N.2       3 LYS4        0.0000 
     20 O          35.3536   -7.6807   -0.1119 O.2       2 ALA2        0.0000 
     21 CA         35.9071   -7.3087   -3.3991 C.3       5 GLY6        0.0000 
     22 DU         35.4635   -8.0812   -2.1922 H         6 CUB7        0.0000 
     23 O          35.0198   -8.8536   -0.9853 O.2       2 ALA2        0.0000 
@<TRIPOS>BOND
@<TRIPOS>SUBSTRUCTURE
     1 SER1        3 GROUP   
     2 ALA2        7 GROUP   
     3 LYS4        1 GROUP   
     4 PHE5        2 GROUP   
     5 GLY6        8 GROUP   
     6 CUB7       22 GROUP   
@<TRIPOS>SET

