#    Name: 3fh5_24P_3_INTS_M
#    Modification time : Tue Mar 25 04:06:34 2014

@<TRIPOS>MOLECULE
3fh5_24P_3_INTS_M
   51     0     3     0     0
SMALL
NO_CHARGES


@<TRIPOS>ATOM
      1 CA         24.5025    2.0415   -3.2160 C.3       1 GLC5        0.0000 
      2 CA         24.3560   -0.1410   -3.4790 C.3       3 GLL5        0.0000 
      3 CA         24.6490    4.2240   -2.9530 C.3       2 GLP5        0.0000 
      4 CA         24.8730    2.2110   -2.0120 C.3       1 GLC5        0.0000 
      5 CA         25.0970    0.1980   -1.0710 C.3       3 GLL5        0.0000 
      6 CA         31.0830    0.1460    1.1835 C.3       1 GLC5        0.0000 
      7 CA         30.5630   -1.8210    2.0050 C.3       3 GLL5        0.0000 
      8 CA         31.6030    2.1130    0.3620 C.3       2 GLP5        0.0000 
      9 CA         31.9655   -4.5465    2.0355 C.3       1 GLC5        0.0000 
     10 CA         31.9690   -3.4260    0.5540 C.3       3 GLL5        0.0000 
     11 CA         31.9620   -5.6670    3.5170 C.3       2 GLP5        0.0000 
     12 CA         35.0310   -1.0480    1.1875 C.3       1 GLC5        0.0000 
     13 CA         34.1210   -2.5540    1.2500 C.3       3 GLL5        0.0000 
     14 CA         35.9410    0.4580    1.1250 C.3       2 GLP5        0.0000 
     15 CA         22.4550   -2.5708   -1.5340 C.3       1 GLC5        0.0000 
     16 CA         24.3950   -2.0670   -2.0270 C.3       3 GLL5        0.0000 
     17 CA         20.7450   -2.6760   -0.5130 C.3       2 GLP5        0.0000 
     18 CA         24.4140   -3.7123   -1.2705 C.3       1 GLC5        0.0000 
     19 CA         24.6630   -4.9590    0.0140 C.3       2 GLP5        0.0000 
     20 CA         25.0440   -3.6648   -4.8075 C.3       1 GLC5        0.0000 
     21 CA         23.9350   -2.8640   -3.0830 C.3       3 GLL5        0.0000 
     22 CA         26.2750   -4.7460   -5.9040 C.3       2 GLP5        0.0000 
     23 CA         25.2685   -0.5245   -5.1647 C.3       1 GLC5        0.0000 
     24 CA         23.6910   -2.3030   -4.3390 C.3       3 GLL5        0.0000 
     25 CA         26.7430    0.5710   -5.8970 C.3       2 GLP5        0.0000 
     26 CA         22.8912    0.8815   -3.2207 C.3       1 GLC5        0.0000 
     27 CA         23.8970   -0.9370   -4.5260 C.3       3 GLL5        0.0000 
     28 CA         21.6560    2.3020   -2.4390 C.3       2 GLP5        0.0000 
     29 CA         25.6140    0.0762   -4.3720 C.3       1 GLC5        0.0000 
     30 CA         22.3515   -0.4133   -4.8479 C.3       1 GLC5        0.0000 
     31 CA         20.6280    0.0540   -5.7400 C.3       2 GLP5        0.0000 
     32 CA         23.2557    1.0265   -2.0410 C.3       1 GLC5        0.0000 
     33 CA         24.6140   -0.6960   -2.2150 C.3       3 GLL5        0.0000 
     34 CA         26.6345    1.5987    0.2030 C.3       1 GLC5        0.0000 
     35 CA         27.4690    3.1670    1.2120 C.3       2 GLP5        0.0000 
     36 CA         25.0180    0.7146    0.9223 C.3       1 GLC5        0.0000 
     37 CA         26.6720   -0.6300    0.7550 C.3       3 GLL5        0.0000 
     38 CA         23.8000    1.7290    1.8700 C.3       2 GLP5        0.0000 
     39 CA         26.5565   -2.6670    0.9900 C.3       1 GLC5        0.0000 
     40 CA         25.8000   -4.5620    0.9760 C.3       2 GLP5        0.0000 
     41 CA         30.2905    0.8313    0.0743 C.3       1 GLC5        0.0000 
     42 CA         28.8870   -0.1970   -0.8590 C.3       3 GLL5        0.0000 
     43 CA         30.9778   -3.1022    3.3173 C.3       1 GLC5        0.0000 
     44 CA         30.7290   -4.0020    4.7160 C.3       2 GLP5        0.0000 
     45 CA         30.3489   -3.7611    0.1656 C.3       1 GLC5        0.0000 
     46 CA         29.1000   -4.7080   -0.9050 C.3       2 GLP5        0.0000 
     47 CA         33.4872   -4.1565    2.4420 C.3       1 GLC5        0.0000 
     48 CA         33.4780   -3.7040    0.4740 C.3       3 GLL5        0.0000 
     49 CA         33.1750   -5.1840    4.0220 C.3       2 GLP5        0.0000 
     50 CA         27.8450    1.3857    0.5090 C.3       1 GLC5        0.0000 
     51 CA         29.0690   -0.7040    0.4320 C.3       3 GLL5        0.0000 
@<TRIPOS>BOND
@<TRIPOS>SUBSTRUCTURE
     1 GLC5        1 GROUP        1 X    GLC  0     ROOT GLC X 6
     2 GLP5        3 GROUP        1 Y    GLP  0     ROOT GLP Y 13
     3 GLL5        2 GROUP        1 Z    GLL  0     ROOT GLL Z 20
@<TRIPOS>SET

