#    Name: 3fh5_24P_3_ligand
#    Modification time : Tue Mar 25 04:06:34 2014

@<TRIPOS>MOLECULE
3fh5_24P_3_ligand
   40    42     1     0     0
SMALL
NO_CHARGES


@<TRIPOS>ATOM
      1 CAB        24.3950   -2.0670   -2.0270 C.ar      1 24P611      0.0000 
      2 CAA        23.9350   -2.8640   -3.0830 C.ar      1 24P611      0.0000 
      3 CAF        23.6910   -2.3030   -4.3390 C.ar      1 24P611      0.0000 
      4 CAE        23.8970   -0.9370   -4.5260 C.ar      1 24P611      0.0000 
      5 CAD        24.3560   -0.1410   -3.4790 C.ar      1 24P611      0.0000 
      6 CAC        24.6140   -0.6960   -2.2150 C.ar      1 24P611      0.0000 
      7 CAG        25.0970    0.1980   -1.0710 C.3       1 24P611      0.0000 
      8 CAH        26.5030   -0.1370   -0.5410 C.ar      1 24P611      0.0000 
      9 CAM        26.6720   -0.6300    0.7550 C.ar      1 24P611      0.0000 
     10 CAL        27.9540   -0.9140    1.2530 C.ar      1 24P611      0.0000 
     11 CAI        27.6150    0.0910   -1.3530 C.ar      1 24P611      0.0000 
     12 CAJ        28.8870   -0.1970   -0.8590 C.ar      1 24P611      0.0000 
     13 CAK        29.0690   -0.7040    0.4320 C.ar      1 24P611      0.0000 
     14 OAN        30.3560   -0.9740    0.8340 O.3       1 24P611      0.0000 
     15 CAO        30.5630   -1.8210    2.0050 C.3       1 24P611      0.0000 
     16 CAP        31.8900   -2.5840    1.8320 C.3       1 24P611      0.0000 
     17 CAQ        31.9690   -3.4260    0.5540 C.3       1 24P611      0.0000 
     18 CAR        33.4780   -3.7040    0.4740 C.3       1 24P611      0.0000 
     19 CAS        34.1210   -2.5540    1.2500 C.3       1 24P611      0.0000 
     20 NAT        33.0190   -1.6570    1.6630 N.4       1 24P611      0.0000 
     21 H          24.5732   -2.4909   -1.1074 H         1 24P611      0.0000 
     22 H          23.7763   -3.8689   -2.9311 H         1 24P611      0.0000 
     23 H          23.3656   -2.8879   -5.1102 H         1 24P611      0.0000 
     24 H          23.7080   -0.5130   -5.4465 H         1 24P611      0.0000 
     25 H          24.5096    0.8673   -3.6287 H         1 24P611      0.0000 
     26 H          24.3796    0.1289   -0.2342 H         1 24P611      0.0000 
     27 H          25.0895    1.2492   -1.4094 H         1 24P611      0.0000 
     28 H          25.8495   -0.7881    1.3545 H         1 24P611      0.0000 
     29 H          28.0698   -1.2688    2.2012 H         1 24P611      0.0000 
     30 H          27.4983    0.4637   -2.2960 H         1 24P611      0.0000 
     31 H          29.7152   -0.0327   -1.4590 H         1 24P611      0.0000 
     32 H          29.7657   -2.5512    2.1103 H         1 24P611      0.0000 
     33 H          30.6304   -1.2294    2.9135 H         1 24P611      0.0000 
     34 H          32.0718   -3.2194    2.6664 H         1 24P611      0.0000 
     35 H          31.6694   -2.8525   -0.2715 H         1 24P611      0.0000 
     36 H          31.4486   -4.3269    0.6863 H         1 24P611      0.0000 
     37 H          33.7918   -3.6751   -0.5401 H         1 24P611      0.0000 
     38 H          33.6954   -4.6274    0.9511 H         1 24P611      0.0000 
     39 H          34.8109   -2.0405    0.6026 H         1 24P611      0.0000 
     40 H          34.6302   -2.9560    2.1090 H         1 24P611      0.0000 
@<TRIPOS>BOND
     1    2    1 ar   
     2    6    1 ar   
     3   21    1 1    
     4    3    2 ar   
     5   22    2 1    
     6    4    3 ar   
     7   23    3 1    
     8    5    4 ar   
     9   24    4 1    
    10    6    5 ar   
    11   25    5 1    
    12    7    6 1    
    13    8    7 1    
    14   26    7 1    
    15   27    7 1    
    16    9    8 ar   
    17   11    8 ar   
    18   10    9 ar   
    19   28    9 1    
    20   13   10 ar   
    21   29   10 1    
    22   12   11 ar   
    23   30   11 1    
    24   13   12 ar   
    25   31   12 1    
    26   14   13 1    
    27   15   14 1    
    28   16   15 1    
    29   32   15 1    
    30   33   15 1    
    31   17   16 1    
    32   20   16 1    
    33   34   16 1    
    34   18   17 1    
    35   35   17 1    
    36   36   17 1    
    37   19   18 1    
    38   37   18 1    
    39   38   18 1    
    40   20   19 1    
    41   39   19 1    
    42   40   19 1    
@<TRIPOS>SUBSTRUCTURE
     1 24P611      1 GROUP   
@<TRIPOS>SET

