#    Name: 4hw7_64M_1_INTS_M
#    Modification time : Tue Mar 25 01:54:17 2014

@<TRIPOS>MOLECULE
4hw7_64M_1_INTS_M
   99     0     9     0     0
SMALL
NO_CHARGES


@<TRIPOS>ATOM
      1 CA         28.2270   12.7475   74.3645 C.3       3 GLC5        0.0000 
      2 CA         29.5060   13.0690   72.6810 C.3       9 GLL5        0.0000 
      3 CA         26.9480   12.4260   76.0480 C.3       6 GLP5        0.0000 
      4 CA         30.3425   10.1880   70.9295 C.3       3 GLC5        0.0000 
      5 CA         29.4690   11.8330   72.0910 C.3       9 GLL5        0.0000 
      6 CA         31.2160    8.5430   69.7680 C.3       6 GLP5        0.0000 
      7 CA         29.3090   10.0120   72.5045 C.3       3 GLC5        0.0000 
      8 CA         29.1490    8.1910   72.9180 C.3       6 GLP5        0.0000 
      9 N          30.2350    9.8605   71.8495 N.am      2 SEC2        0.0000 
     10 N          30.5240   11.0360   71.8890 N.am      8 SEL2        0.0000 
     11 N          29.9460    8.6850   71.8100 N.am      5 SEP2        0.0000 
     12 O          33.2945    9.9030   71.6090 O.2       1 ALC1        0.0000 
     13 O          32.8680   10.9670   72.2580 O.2       7 ALL1        0.0000 
     14 O          33.7210    8.8390   70.9600 O.2       4 ALP1        0.0000 
     15 CA         35.1950   10.4655   73.3515 C.3       3 GLC5        0.0000 
     16 CA         33.7990   11.7780   72.8070 C.3       9 GLL5        0.0000 
     17 CA         36.5910    9.1530   73.8960 C.3       6 GLP5        0.0000 
     18 CA         33.6020   11.7240   74.8945 C.3       3 GLC5        0.0000 
     19 CA         33.4050   11.6700   76.9820 C.3       6 GLP5        0.0000 
     20 CA         31.4375   10.0525   71.0465 C.3       3 GLC5        0.0000 
     21 CA         31.6590   11.5620   72.3250 C.3       9 GLL5        0.0000 
     22 CA         30.7555   10.0115   73.2840 C.3       3 GLC5        0.0000 
     23 CA         29.8520    8.4610   74.2430 C.3       6 GLP5        0.0000 
     24 CA         32.8920   15.1065   75.0480 C.3       3 GLC5        0.0000 
     25 CA         33.8000   14.0990   73.9020 C.3       9 GLL5        0.0000 
     26 CA         31.9840   16.1140   76.1940 C.3       6 GLP5        0.0000 
     27 CA         36.6945   12.4585   76.8235 C.3       3 GLC5        0.0000 
     28 CA         35.9660   13.5700   75.0140 C.3       9 GLL5        0.0000 
     29 CA         37.4230   11.3470   78.6330 C.3       6 GLP5        0.0000 
     30 N          37.7505   13.4490   76.6375 N.am      2 SEC2        0.0000 
     31 N          37.2700   13.3000   75.0430 N.am      8 SEL2        0.0000 
     32 N          38.2310   13.5980   78.2320 N.am      5 SEP2        0.0000 
     33 CA         37.2570   11.1985   73.8910 C.3       3 GLC5        0.0000 
     34 CA         37.9230   13.2440   73.8860 C.3       9 GLL5        0.0000 
     35 CA         38.1770   12.0085   71.4865 C.3       3 GLC5        0.0000 
     36 CA         37.2860   13.4690   72.6970 C.3       9 GLL5        0.0000 
     37 CA         39.0680   10.5480   70.2760 C.3       6 GLP5        0.0000 
     38 CA         29.1730   15.9515   71.9255 C.3       3 GLC5        0.0000 
     39 CA         29.0280   15.0730   73.5530 C.3       9 GLL5        0.0000 
     40 CA         29.3180   16.8300   70.2980 C.3       6 GLP5        0.0000 
     41 CA         27.9880   13.7495   74.8005 C.3       3 GLC5        0.0000 
     42 CA         30.0580   13.6995   74.9210 C.3       3 GLC5        0.0000 
     43 CA         31.0880   12.3260   76.2890 C.3       6 GLP5        0.0000 
     44 CA         30.5060   15.5935   74.8735 C.3       3 GLC5        0.0000 
     45 CA         39.8950   15.1190   73.2865 C.3       3 GLC5        0.0000 
     46 CA         40.1020   13.6040   74.8190 C.3       9 GLL5        0.0000 
     47 CA         39.6880   16.6340   71.7540 C.3       6 GLP5        0.0000 
     48 CA         41.6090   12.3515   73.7275 C.3       3 GLC5        0.0000 
     49 CA         43.1160   11.0990   72.6360 C.3       6 GLP5        0.0000 
     50 CA         39.3575   14.2820   76.7045 C.3       3 GLC5        0.0000 
     51 CA         38.6130   14.9600   78.5900 C.3       6 GLP5        0.0000 
     52 CA         43.1515   13.7890   75.1785 C.3       3 GLC5        0.0000 
     53 CA         41.7230   12.7140   76.4780 C.3       9 GLL5        0.0000 
     54 CA         44.5800   14.8640   73.8790 C.3       6 GLP5        0.0000 
     55 CA         42.4195   11.9065   74.5570 C.3       3 GLC5        0.0000 
     56 CA         42.9100    8.8550   80.8810 C.3       3 GLC5        0.0000 
     57 CA         42.9360    9.8730   79.1380 C.3       9 GLL5        0.0000 
     58 CA         42.8840    7.8370   82.6240 C.3       6 GLP5        0.0000 
     59 CA         41.9400   10.7615   80.9215 C.3       3 GLC5        0.0000 
     60 CA         40.9440   11.6500   82.7050 C.3       6 GLP5        0.0000 
     61 CA         40.2810    7.1955   78.8585 C.3       3 GLC5        0.0000 
     62 CA         41.0120    9.1180   79.3010 C.3       9 GLL5        0.0000 
     63 CA         39.5500    5.2730   78.4160 C.3       6 GLP5        0.0000 
     64 CA         41.9480    8.4775   80.9625 C.3       3 GLC5        0.0000 
     65 CA         40.9780   10.3840   81.0030 C.3       3 GLC5        0.0000 
     66 CA         39.6455    8.1230   80.6210 C.3       3 GLC5        0.0000 
     67 CA         38.2790    7.1280   81.9410 C.3       6 GLP5        0.0000 
     68 CA         39.2175   10.2325   78.9670 C.3       3 GLC5        0.0000 
     69 CA         41.9120    6.4045   77.4650 C.3       3 GLC5        0.0000 
     70 CA         42.2580    8.3820   77.8120 C.3       9 GLL5        0.0000 
     71 CA         41.5660    4.4270   77.1180 C.3       6 GLP5        0.0000 
     72 CA         43.0730    7.2740   79.4375 C.3       3 GLC5        0.0000 
     73 CA         43.8880    6.1660   81.0630 C.3       6 GLP5        0.0000 
     74 CA         30.5955   12.8195   74.5927 C.3       3 GLC5        0.0000 
     75 CA         30.0204   13.8195   71.0090 C.3       3 GLC5        0.0000 
     76 CA         30.7000   13.5570   73.1120 C.3       9 GLL5        0.0000 
     77 CA         29.9470   14.6350   69.2690 C.3       6 GLP5        0.0000 
     78 CA         31.5850   12.2646   74.4976 C.3       3 GLC5        0.0000 
     79 CA         34.3256   12.7160   75.7169 C.3       3 GLC5        0.0000 
     80 CA         38.6463   14.9953   72.5228 C.3       3 GLC5        0.0000 
     81 CA         35.2196   15.5132   72.2059 C.3       3 GLC5        0.0000 
     82 CA         35.9440   13.7550   72.6960 C.3       9 GLL5        0.0000 
     83 CA         35.2040   17.1720   71.1190 C.3       6 GLP5        0.0000 
     84 CA         38.8105   11.6545   77.2215 C.3       3 GLC5        0.0000 
     85 CA         39.8320   11.3810   75.8750 C.3       9 GLL5        0.0000 
     86 CA         38.4557    9.7985   75.8162 C.3       3 GLC5        0.0000 
     87 CA         36.8630    8.7130   75.3250 C.3       6 GLP5        0.0000 
     88 CA         41.0242   10.5353   74.5745 C.3       3 GLC5        0.0000 
     89 CA         40.2650   10.3870   76.7400 C.3       9 GLL5        0.0000 
     90 CA         41.8170    9.8960   72.8740 C.3       6 GLP5        0.0000 
     91 CA         39.1335   10.9080   77.8713 C.3       3 GLC5        0.0000 
     92 CA         40.8804   13.6056   77.8109 C.3       3 GLC5        0.0000 
     93 CA         40.5640   12.5430   75.7450 C.3       9 GLL5        0.0000 
     94 CA         40.1150   15.0380   78.8960 C.3       6 GLP5        0.0000 
     95 CA         44.0440    8.2511   77.9139 C.3       3 GLC5        0.0000 
     96 CA         45.7510    7.4660   77.5360 C.3       6 GLP5        0.0000 
     97 CA         33.0085   12.1831   70.9519 C.3       3 GLC5        0.0000 
     98 CA         33.1870   12.9200   73.2440 C.3       9 GLL5        0.0000 
     99 CA         33.4000   12.1090   69.0770 C.3       6 GLP5        0.0000 
@<TRIPOS>BOND
@<TRIPOS>SUBSTRUCTURE
     1 ALC1       12 GROUP        1 X    ALC  0     ROOT ALC X 1
     2 SEC2        9 GROUP        1 X    SEC  0     **** SEC X 2
     3 GLC5        1 GROUP        1 X    GLC  0     **** GLC X 6
     4 ALP1       14 GROUP        1 Y    ALP  0     ROOT ALP Y 8
     5 SEP2       11 GROUP        1 Y    SEP  0     **** SEP Y 9
     6 GLP5        3 GROUP        1 Y    GLP  0     **** GLP Y 13
     7 ALL1       13 GROUP        1 Z    ALL  0     ROOT ALL Z 15
     8 SEL2       10 GROUP        1 Z    SEL  0     **** SEL Z 16
     9 GLL5        2 GROUP        1 Z    GLL  0     **** GLL Z 20
@<TRIPOS>SET

