#    Name: 4hw7_64M_1_ligand
#    Modification time : Tue Mar 25 01:54:17 2014

@<TRIPOS>MOLECULE
4hw7_64M_1_ligand
   49    52     1     0     0
SMALL
NO_CHARGES


@<TRIPOS>ATOM
      1 C1         29.5060   13.0690   72.6810 C.ar      1 64M1001     0.0000 
      2 C2         29.4690   11.8330   72.0910 C.ar      1 64M1001     0.0000 
      3 N4         30.5240   11.0360   71.8890 N.ar      1 64M1001     0.0000 
      4 C5         30.7000   13.5570   73.1120 C.ar      1 64M1001     0.0000 
      5 N7         32.8680   10.9670   72.2580 N.pl3     1 64M1001     0.0000 
      6 C9         33.7990   11.7780   72.8070 C.2       1 64M1001     0.0000 
      7 C11        33.1870   12.9200   73.2440 C.2       1 64M1001     0.0000 
      8 C12        31.8230   12.7690   72.9310 C.ar      1 64M1001     0.0000 
      9 C13        31.6590   11.5620   72.3250 C.ar      1 64M1001     0.0000 
     10 O14        28.5190   13.9330   72.9150 O.3       1 64M1001     0.0000 
     11 C15        33.8000   14.0990   73.9020 C.3       1 64M1001     0.0000 
     12 C18        35.2530   13.8090   73.8770 C.ar      1 64M1001     0.0000 
     13 C19        35.9660   13.5700   75.0140 C.ar      1 64M1001     0.0000 
     14 N21        37.2700   13.3000   75.0430 N.ar      1 64M1001     0.0000 
     15 C22        37.9230   13.2440   73.8860 C.ar      1 64M1001     0.0000 
     16 C23        37.2860   13.4690   72.6970 C.ar      1 64M1001     0.0000 
     17 C25        35.9440   13.7550   72.6960 C.ar      1 64M1001     0.0000 
     18 C27        29.0280   15.0730   73.5530 C.3       1 64M1001     0.0000 
     19 N31        39.2590   12.9670   73.8570 N.pl3     1 64M1001     0.0000 
     20 C33        40.1020   13.6040   74.8190 C.3       1 64M1001     0.0000 
     21 C36        40.5640   12.5430   75.7450 C.ar      1 64M1001     0.0000 
     22 C37        39.8320   11.3810   75.8750 C.ar      1 64M1001     0.0000 
     23 C39        40.2650   10.3870   76.7400 C.ar      1 64M1001     0.0000 
     24 C41        41.4230   10.5510   77.4790 C.ar      1 64M1001     0.0000 
     25 C42        42.1480   11.7180   77.3400 C.ar      1 64M1001     0.0000 
     26 C44        41.7230   12.7140   76.4780 C.ar      1 64M1001     0.0000 
     27 C46        41.8960    9.5080   78.4050 C.3       1 64M1001     0.0000 
     28 F47        42.9360    9.8730   79.1380 F         1 64M1001     0.0000 
     29 F48        41.0120    9.1180   79.3010 F         1 64M1001     0.0000 
     30 F49        42.2580    8.3820   77.8120 F         1 64M1001     0.0000 
     31 H          28.5009   11.4845   71.7662 H         1 64M1001     0.0000 
     32 H          30.7770   14.4720   73.5552 H         1 64M1001     0.0000 
     33 H          33.0433   10.0913   71.8747 H         1 64M1001     0.0000 
     34 H          34.7421   11.5907   72.8826 H         1 64M1001     0.0000 
     35 H          33.4550   14.1802   74.9132 H         1 64M1001     0.0000 
     36 H          33.5891   14.9876   73.3415 H         1 64M1001     0.0000 
     37 H          35.4287   13.6046   75.9425 H         1 64M1001     0.0000 
     38 H          37.8072   13.4246   71.8087 H         1 64M1001     0.0000 
     39 H          35.4544   13.9300   71.8006 H         1 64M1001     0.0000 
     40 H          39.6712   12.3310   73.1832 H         1 64M1001     0.0000 
     41 H          39.5594   14.3597   75.3830 H         1 64M1001     0.0000 
     42 H          40.9654   14.0662   74.3453 H         1 64M1001     0.0000 
     43 H          38.9669   11.2488   75.3333 H         1 64M1001     0.0000 
     44 H          39.7158    9.5153   76.8324 H         1 64M1001     0.0000 
     45 H          43.0182   11.8506   77.8853 H         1 64M1001     0.0000 
     46 H          42.2707   13.5815   76.3836 H         1 64M1001     0.0000 
     47 H          29.4595   14.8482   74.4267 H         1 64M1001     0.0000 
     48 H          29.7183   15.5337   72.9952 H         1 64M1001     0.0000 
     49 H          28.3107   15.7430   73.7442 H         1 64M1001     0.0000 
@<TRIPOS>BOND
     1    2    1 ar   
     2    4    1 ar   
     3   10    1 1    
     4    3    2 ar   
     5   31    2 1    
     6    9    3 ar   
     7    8    4 ar   
     8   32    4 1    
     9    6    5 1    
    10    9    5 1    
    11   33    5 1    
    12    7    6 2    
    13   34    6 1    
    14    8    7 1    
    15   11    7 1    
    16    9    8 ar   
    17   18   10 1    
    18   12   11 1    
    19   35   11 1    
    20   36   11 1    
    21   13   12 ar   
    22   17   12 ar   
    23   14   13 ar   
    24   37   13 1    
    25   15   14 ar   
    26   16   15 ar   
    27   19   15 1    
    28   17   16 ar   
    29   38   16 1    
    30   39   17 1    
    31   47   18 1    
    32   48   18 1    
    33   49   18 1    
    34   20   19 1    
    35   40   19 1    
    36   21   20 1    
    37   41   20 1    
    38   42   20 1    
    39   22   21 ar   
    40   26   21 ar   
    41   23   22 ar   
    42   43   22 1    
    43   24   23 ar   
    44   44   23 1    
    45   25   24 ar   
    46   27   24 1    
    47   26   25 ar   
    48   45   25 1    
    49   46   26 1    
    50   28   27 1    
    51   29   27 1    
    52   30   27 1    
@<TRIPOS>SUBSTRUCTURE
     1 64M1001     1 GROUP   
@<TRIPOS>SET

