#    Name: 1fxo_TMP_14_INTS_M
#    Modification time : Tue Mar 25 02:12:37 2014

@<TRIPOS>MOLECULE
1fxo_TMP_14_INTS_M
   44     0     9     0     0
SMALL
NO_CHARGES


@<TRIPOS>ATOM
      1 N          55.8940   16.9075  -22.8355 N.am      2 SEC2        0.0000 
      2 N          55.8900   17.6340  -24.1030 N.am      8 SEL2        0.0000 
      3 N          55.8980   16.1810  -21.5680 N.am      5 SEP2        0.0000 
      4 N          55.2765   18.7170  -24.3760 N.am      2 SEC2        0.0000 
      5 N          54.6630   19.8000  -24.6490 N.am      5 SEP2        0.0000 
      6 N          57.6675   20.2565  -24.7430 N.am      2 SEC2        0.0000 
      7 N          57.7940   18.9590  -25.2210 N.am      8 SEL2        0.0000 
      8 N          57.5410   21.5540  -24.2650 N.am      5 SEP2        0.0000 
      9 N          60.5600   19.0200  -19.4665 N.am      2 SEC2        0.0000 
     10 N          61.3940   18.0780  -20.2960 N.am      8 SEL2        0.0000 
     11 N          59.7260   19.9620  -18.6370 N.am      5 SEP2        0.0000 
     12 CA         61.3820   15.5590  -20.1785 C.3       3 GLC5        0.0000 
     13 CA         62.2600   15.7810  -21.8900 C.3       9 GLL5        0.0000 
     14 CA         60.5040   15.3370  -18.4670 C.3       6 GLP5        0.0000 
     15 N          64.3885   12.8375  -20.0130 N.am      2 SEC2        0.0000 
     16 N          63.5850   13.5840  -20.9410 N.am      8 SEL2        0.0000 
     17 N          65.1920   12.0910  -19.0850 N.am      5 SEP2        0.0000 
     18 O          64.1905   11.4675  -22.3995 O.2       1 ALC1        0.0000 
     19 O          63.8050   12.6330  -23.0250 O.2       7 ALL1        0.0000 
     20 O          64.5760   10.3020  -21.7740 O.2       4 ALP1        0.0000 
     21 CA         65.0590   13.3095  -24.7080 C.3       3 GLC5        0.0000 
     22 CA         63.0040   13.7860  -24.9250 C.3       9 GLL5        0.0000 
     23 CA         67.1140   12.8330  -24.4910 C.3       6 GLP5        0.0000 
     24 CA         63.0640   12.3470  -27.5180 C.3       3 GLC5        0.0000 
     25 CA         62.7600   13.8200  -26.4190 C.3       9 GLL5        0.0000 
     26 CA         63.3680   10.8740  -28.6170 C.3       6 GLP5        0.0000 
     27 CA         60.6695   13.8155  -23.9065 C.3       3 GLC5        0.0000 
     28 CA         62.5710   14.7790  -24.1090 C.3       9 GLL5        0.0000 
     29 CA         58.7680   12.8520  -23.7040 C.3       6 GLP5        0.0000 
     30 CA         58.9013   15.3427  -22.7647 C.3       3 GLC5        0.0000 
     31 CA         60.2930   16.8380  -21.9980 C.3       9 GLL5        0.0000 
     32 CA         57.8220   13.6970  -22.8360 C.3       6 GLP5        0.0000 
     33 CA         58.0862   17.1343  -21.6717 C.3       3 GLC5        0.0000 
     34 CA         59.6680   17.1390  -23.3890 C.3       9 GLL5        0.0000 
     35 CA         56.1920   17.2800  -20.6500 C.3       6 GLP5        0.0000 
     36 CA         60.6097   16.3790  -20.1535 C.3       3 GLC5        0.0000 
     37 CA         61.8560   19.6655  -22.0505 C.3       3 GLC5        0.0000 
     38 CA         61.1380   18.0040  -21.6820 C.3       9 GLL5        0.0000 
     39 CA         61.9560   21.6990  -22.1170 C.3       6 GLP5        0.0000 
     40 CA         64.1620   16.9653  -22.5660 C.3       3 GLC5        0.0000 
     41 CA         62.3740   17.2600  -22.2860 C.3       9 GLL5        0.0000 
     42 CA         66.0070   17.4100  -23.0440 C.3       6 GLP5        0.0000 
     43 CA         64.3603   15.5938  -25.0570 C.3       3 GLC5        0.0000 
     44 CA         65.9330   16.9050  -25.5970 C.3       6 GLP5        0.0000 
@<TRIPOS>BOND
@<TRIPOS>SUBSTRUCTURE
     1 ALC1       18 GROUP        1 X    ALC  0     ROOT ALC X 1
     2 SEC2        1 GROUP        1 X    SEC  0     **** SEC X 2
     3 GLC5       12 GROUP        1 X    GLC  0     **** GLC X 6
     4 ALP1       20 GROUP        1 Y    ALP  0     ROOT ALP Y 8
     5 SEP2        3 GROUP        1 Y    SEP  0     **** SEP Y 9
     6 GLP5       14 GROUP        1 Y    GLP  0     **** GLP Y 13
     7 ALL1       19 GROUP        1 Z    ALL  0     ROOT ALL Z 15
     8 SEL2        2 GROUP        1 Z    SEL  0     **** SEL Z 16
     9 GLL5       13 GROUP        1 Z    GLL  0     **** GLL Z 20
@<TRIPOS>SET

