#    Name: 1fxo_TMP_14_ligand
#    Modification time : Tue Mar 25 02:12:38 2014

@<TRIPOS>MOLECULE
1fxo_TMP_14_ligand
   34    35     1     0     0
SMALL
NO_CHARGES


@<TRIPOS>ATOM
      1 P          57.3570   17.5610  -24.6490 P.3       1 TMP9513     0.0000 
      2 O1P        55.8900   17.6340  -24.1030 O.co2     1 TMP9513     0.0000 
      3 O2P        57.5430   16.3910  -25.7350 O.co2     1 TMP9513     0.0000 
      4 O3P        57.7940   18.9590  -25.2210 O.co2     1 TMP9513     0.0000 
      5 O5'        58.2720   17.1730  -23.3850 O.3       1 TMP9513     0.0000 
      6 C5'        59.6680   17.1390  -23.3890 C.3       1 TMP9513     0.0000 
      7 C4'        60.2930   16.8380  -21.9980 C.3       1 TMP9513     0.0000 
      8 O4'        60.8490   15.5600  -21.9430 O.3       1 TMP9513     0.0000 
      9 C3'        61.1380   18.0040  -21.6820 C.3       1 TMP9513     0.0000 
     10 O3'        61.3940   18.0780  -20.2960 O.3       1 TMP9513     0.0000 
     11 C2'        62.3740   17.2600  -22.2860 C.3       1 TMP9513     0.0000 
     12 C1'        62.2600   15.7810  -21.8900 C.3       1 TMP9513     0.0000 
     13 N1         62.7730   14.7230  -22.7750 N.am      1 TMP9513     0.0000 
     14 C2         63.4010   13.6680  -22.2470 C.2       1 TMP9513     0.0000 
     15 O2         63.5850   13.5840  -20.9410 O.2       1 TMP9513     0.0000 
     16 N3         63.8050   12.6330  -23.0250 N.am      1 TMP9513     0.0000 
     17 C4         63.6270   12.6810  -24.3340 C.2       1 TMP9513     0.0000 
     18 O4         64.0010   11.6650  -25.0160 O.2       1 TMP9513     0.0000 
     19 C5         63.0040   13.7860  -24.9250 C.2       1 TMP9513     0.0000 
     20 C5M        62.7600   13.8200  -26.4190 C.3       1 TMP9513     0.0000 
     21 C6         62.5710   14.7790  -24.1090 C.2       1 TMP9513     0.0000 
     22 H          60.1158   18.1022  -23.7286 H         1 TMP9513     0.0000 
     23 H          60.0725   16.3669  -24.0846 H         1 TMP9513     0.0000 
     24 H          59.3928   16.9050  -21.3072 H         1 TMP9513     0.0000 
     25 H          60.9456   18.7860  -22.2186 H         1 TMP9513     0.0000 
     26 H          63.2660   17.6811  -21.8716 H         1 TMP9513     0.0000 
     27 H          62.3471   17.3557  -23.3513 H         1 TMP9513     0.0000 
     28 H          62.5812   15.6510  -20.8848 H         1 TMP9513     0.0000 
     29 H          64.2557   11.8041  -22.5744 H         1 TMP9513     0.0000 
     30 H          62.0717   15.6022  -24.5231 H         1 TMP9513     0.0000 
     31 H          63.6136   13.7583  -26.9362 H         1 TMP9513     0.0000 
     32 H          62.1806   13.0618  -26.7180 H         1 TMP9513     0.0000 
     33 H          62.3062   14.6650  -26.7021 H         1 TMP9513     0.0000 
     34 H          62.3885   18.0140  -20.2128 H         1 TMP9513     0.0000 
@<TRIPOS>BOND
     1    2    1 ar   
     2    3    1 ar   
     3    4    1 ar   
     4    5    1 1    
     5    6    5 1    
     6    7    6 1    
     7   22    6 1    
     8   23    6 1    
     9    8    7 1    
    10    9    7 1    
    11   24    7 1    
    12   12    8 1    
    13   10    9 1    
    14   11    9 1    
    15   25    9 1    
    16   34   10 1    
    17   12   11 1    
    18   26   11 1    
    19   27   11 1    
    20   13   12 1    
    21   28   12 1    
    22   14   13 am   
    23   21   13 1    
    24   15   14 2    
    25   16   14 1    
    26   17   16 am   
    27   29   16 1    
    28   18   17 2    
    29   19   17 1    
    30   20   19 1    
    31   21   19 2    
    32   31   20 1    
    33   32   20 1    
    34   33   20 1    
    35   30   21 1    
@<TRIPOS>SUBSTRUCTURE
     1 TMP9513     1 GROUP   
@<TRIPOS>SET

