#    Name: 4hhy_15R_4_INTS_M
#    Modification time : Tue Mar 25 01:04:45 2014

@<TRIPOS>MOLECULE
4hhy_15R_4_INTS_M
   74     0     9     0     0
SMALL
NO_CHARGES


@<TRIPOS>ATOM
      1 N         -13.6015   16.8640  -21.4470 N.am      2 SEC2        0.0000 
      2 N         -14.3880   17.5390  -20.6540 N.am      8 SEL2        0.0000 
      3 N         -12.8150   16.1890  -22.2400 N.am      5 SEP2        0.0000 
      4 N         -14.1020   16.6225  -19.5015 N.am      2 SEC2        0.0000 
      5 N         -13.8160   15.7060  -18.3490 N.am      5 SEP2        0.0000 
      6 O         -14.8865   17.8915  -23.4355 O.2       1 ALC1        0.0000 
      7 O         -15.4710   18.5280  -22.4960 O.2       7 ALL1        0.0000 
      8 O         -14.3020   17.2550  -24.3750 O.2       4 ALP1        0.0000 
      9 CA        -17.5145   18.1385  -22.9610 C.3       3 GLC5        0.0000 
     10 CA        -16.2430   19.6870  -22.9070 C.3       9 GLL5        0.0000 
     11 CA        -18.7860   16.5900  -23.0150 C.3       6 GLP5        0.0000 
     12 CA        -19.0820   19.0680  -22.3910 C.3       3 GLC5        0.0000 
     13 CA        -17.5360   20.0160  -22.0580 C.3       9 GLL5        0.0000 
     14 CA        -20.6280   18.1200  -22.7240 C.3       6 GLP5        0.0000 
     15 CA        -15.8060   16.3825  -19.1725 C.3       3 GLC5        0.0000 
     16 CA        -16.1630   18.4780  -18.8420 C.3       9 GLL5        0.0000 
     17 CA        -15.4490   14.2870  -19.5030 C.3       6 GLP5        0.0000 
     18 CA        -18.3985   22.6210  -18.9670 C.3       3 GLC5        0.0000 
     19 CA        -19.2270   21.2550  -19.8400 C.3       9 GLL5        0.0000 
     20 CA        -17.5700   23.9870  -18.0940 C.3       6 GLP5        0.0000 
     21 CA        -16.4450   24.0505  -21.6615 C.3       3 GLC5        0.0000 
     22 CA        -16.5010   22.8780  -23.5570 C.3       9 GLL5        0.0000 
     23 CA        -16.3890   25.2230  -19.7660 C.3       6 GLP5        0.0000 
     24 CA        -15.4655   23.1820  -20.9555 C.3       3 GLC5        0.0000 
     25 CA        -15.3890   23.4230  -22.7390 C.3       9 GLL5        0.0000 
     26 CA        -15.5420   22.9410  -19.1720 C.3       6 GLP5        0.0000 
     27 CA        -15.4105   24.7550  -21.6220 C.3       3 GLC5        0.0000 
     28 CA        -14.4320   24.2870  -23.4780 C.3       9 GLL5        0.0000 
     29 CA        -17.9580   27.4415  -25.2550 C.3       3 GLC5        0.0000 
     30 CA        -16.3760   27.4080  -25.9100 C.3       9 GLL5        0.0000 
     31 CA        -19.5400   27.4750  -24.6000 C.3       6 GLP5        0.0000 
     32 CA        -14.5090   30.0690  -28.7265 C.3       3 GLC5        0.0000 
     33 CA        -13.0170   29.6350  -30.2930 C.3       9 GLL5        0.0000 
     34 CA        -16.0010   30.5030  -27.1600 C.3       6 GLP5        0.0000 
     35 CA        -14.4715   19.5810  -17.6872 C.3       3 GLC5        0.0000 
     36 CA        -16.7870   19.2660  -17.7910 C.3       9 GLL5        0.0000 
     37 CA        -12.4680   20.2900  -17.0580 C.3       6 GLP5        0.0000 
     38 CA        -15.5645   17.7045  -16.8528 C.3       3 GLC5        0.0000 
     39 CA        -14.6540   16.5370  -15.3890 C.3       6 GLP5        0.0000 
     40 CA        -16.4525   21.2875  -18.5678 C.3       3 GLC5        0.0000 
     41 CA        -18.4135   18.5385  -16.3878 C.3       3 GLC5        0.0000 
     42 CA        -17.9390   20.0020  -18.1360 C.3       9 GLL5        0.0000 
     43 CA        -19.4640   17.4430  -14.8120 C.3       6 GLP5        0.0000 
     44 CA        -17.2915   20.1975  -15.8983 C.3       3 GLC5        0.0000 
     45 CA        -17.2200   20.7610  -13.8330 C.3       6 GLP5        0.0000 
     46 CA        -16.4660   21.3986  -19.5694 C.3       3 GLC5        0.0000 
     47 CA        -18.0180   20.3800  -19.5550 C.3       9 GLL5        0.0000 
     48 CA        -19.9327   19.6613  -20.9668 C.3       3 GLC5        0.0000 
     49 CA        -20.5370   17.9750  -21.3590 C.3       6 GLP5        0.0000 
     50 CA        -13.7278   24.9910  -21.9083 C.3       3 GLC5        0.0000 
     51 CA        -12.5450   26.1270  -20.7080 C.3       6 GLP5        0.0000 
     52 CA        -18.1542   25.9765  -24.5340 C.3       3 GLC5        0.0000 
     53 CA        -16.4560   25.1300  -24.3910 C.3       9 GLL5        0.0000 
     54 CA        -16.7462   28.6552  -26.4963 C.3       3 GLC5        0.0000 
     55 CA        -17.3510   30.1810  -26.5500 C.3       6 GLP5        0.0000 
     56 CA        -16.0975   28.7737  -27.9720 C.3       3 GLC5        0.0000 
     57 CA        -16.4060   27.3060  -28.1910 C.3       9 GLL5        0.0000 
     58 CA        -16.2945   29.0162  -29.3785 C.3       3 GLC5        0.0000 
     59 CA        -16.3950   30.9880  -29.9730 C.3       6 GLP5        0.0000 
     60 CA        -16.8948   25.0508  -30.5077 C.3       3 GLC5        0.0000 
     61 CA        -15.9820   26.7830  -29.3770 C.3       9 GLL5        0.0000 
     62 CA        -18.7560   24.3420  -31.0320 C.3       6 GLP5        0.0000 
     63 CA        -14.6487   27.8945  -33.0733 C.3       3 GLC5        0.0000 
     64 CA        -13.2830   27.4620  -31.4240 C.3       9 GLL5        0.0000 
     65 CA        -16.3820   28.0670  -34.1850 C.3       6 GLP5        0.0000 
     66 CA        -11.2922   27.3410  -31.3153 C.3       3 GLC5        0.0000 
     67 CA        -12.5480   27.9820  -32.4990 C.3       9 GLL5        0.0000 
     68 CA         -9.6690   26.9600  -30.6690 C.3       6 GLP5        0.0000 
     69 CA        -11.5720   28.6318  -29.3852 C.3       3 GLC5        0.0000 
     70 CA        -13.5050   28.3280  -30.3000 C.3       9 GLL5        0.0000 
     71 CA         -9.8830   28.2820  -28.4740 C.3       6 GLP5        0.0000 
     72 CA        -10.9147   28.3520  -31.3030 C.3       3 GLC5        0.0000 
     73 CA        -12.2770   30.1510  -31.3890 C.3       9 GLL5        0.0000 
     74 CA        -14.5820   30.2771  -30.4079 C.3       3 GLC5        0.0000 
@<TRIPOS>BOND
@<TRIPOS>SUBSTRUCTURE
     1 ALC1        6 GROUP        1 X    ALC  0     ROOT ALC X 1
     2 SEC2        1 GROUP        1 X    SEC  0     **** SEC X 2
     3 GLC5        9 GROUP        1 X    GLC  0     **** GLC X 6
     4 ALP1        8 GROUP        1 Y    ALP  0     ROOT ALP Y 8
     5 SEP2        3 GROUP        1 Y    SEP  0     **** SEP Y 9
     6 GLP5       11 GROUP        1 Y    GLP  0     **** GLP Y 13
     7 ALL1        7 GROUP        1 Z    ALL  0     ROOT ALL Z 15
     8 SEL2        2 GROUP        1 Z    SEL  0     **** SEL Z 16
     9 GLL5       10 GROUP        1 Z    GLL  0     **** GLL Z 20
@<TRIPOS>SET

