#    Name: 4hhy_15R_4_ligand
#    Modification time : Tue Mar 25 01:04:45 2014

@<TRIPOS>MOLECULE
4hhy_15R_4_ligand
   73    79     1     0     0
SMALL
NO_CHARGES


@<TRIPOS>ATOM
      1 OAA       -14.3880   17.5390  -20.6540 O.2       1 15R401      0.0000 
      2 CBA       -15.6080   18.0470  -21.1140 C.2       1 15R401      0.0000 
      3 NAY       -15.4710   18.5280  -22.4960 N.am      1 15R401      0.0000 
      4 CAV       -16.2430   19.6870  -22.9070 C.3       1 15R401      0.0000 
      5 CBO       -17.5360   20.0160  -22.0580 C.3       1 15R401      0.0000 
      6 CBJ       -17.3610   19.6000  -20.5650 C.ar      1 15R401      0.0000 
      7 CBG       -16.1630   19.0650  -20.1920 C.ar      1 15R401      0.0000 
      8 CAJ       -16.1630   18.4780  -18.8420 C.ar      1 15R401      0.0000 
      9 CAH       -16.7870   19.2660  -17.7910 C.ar      1 15R401      0.0000 
     10 CAI       -17.9390   20.0020  -18.1360 C.ar      1 15R401      0.0000 
     11 CBF       -18.0180   20.3800  -19.5550 C.ar      1 15R401      0.0000 
     12 CAP       -19.2270   21.2550  -19.8400 C.3       1 15R401      0.0000 
     13 CAS       -19.4300   21.4400  -21.3090 C.3       1 15R401      0.0000 
     14 NBQ       -18.1700   21.3720  -22.0950 N.am      1 15R401      0.0000 
     15 CBC       -17.7220   22.5740  -22.7020 C.2       1 15R401      0.0000 
     16 OAC       -18.4410   23.5440  -22.5520 O.2       1 15R401      0.0000 
     17 CBN       -16.5010   22.8780  -23.5570 C.3       1 15R401      0.0000 
     18 CAR       -15.3890   23.4230  -22.7390 C.3       1 15R401      0.0000 
     19 CAU       -14.4320   24.2870  -23.4780 C.3       1 15R401      0.0000 
     20 CAQ       -17.0810   23.8260  -24.5450 C.3       1 15R401      0.0000 
     21 CAT       -16.4560   25.1300  -24.3910 C.3       1 15R401      0.0000 
     22 NBP       -15.0510   24.9310  -24.6340 N.am      1 15R401      0.0000 
     23 CBB       -14.3710   25.2570  -25.7800 C.2       1 15R401      0.0000 
     24 OAB       -13.2410   25.0030  -25.8320 O.2       1 15R401      0.0000 
     25 CBH       -14.9610   25.8540  -26.9570 C.ar      1 15R401      0.0000 
     26 CAO       -14.5460   25.3390  -28.1590 C.ar      1 15R401      0.0000 
     27 CBE       -15.9070   26.8510  -26.9750 C.ar      1 15R401      0.0000 
     28 FAE       -16.3760   27.4080  -25.9100 F         1 15R401      0.0000 
     29 CAL       -16.4060   27.3060  -28.1910 C.ar      1 15R401      0.0000 
     30 CAK       -15.9820   26.7830  -29.3770 C.ar      1 15R401      0.0000 
     31 CBD       -15.0320   25.8110  -29.3610 C.ar      1 15R401      0.0000 
     32 CAW       -14.5600   25.2220  -30.5980 C.3       1 15R401      0.0000 
     33 CBI       -13.7570   26.0330  -31.5630 C.2       1 15R401      0.0000 
     34 NAX       -13.4750   25.3580  -32.6520 N.2       1 15R401      0.0000 
     35 NAZ       -12.7800   25.8490  -33.6770 N.am      1 15R401      0.0000 
     36 CBK       -12.3150   27.1090  -33.6420 C.2       1 15R401      0.0000 
     37 OAD       -11.6020   27.5690  -34.7280 O.2       1 15R401      0.0000 
     38 CBM       -12.5480   27.9820  -32.4990 C.ar      1 15R401      0.0000 
     39 CBL       -13.2830   27.4620  -31.4240 C.ar      1 15R401      0.0000 
     40 CAM       -13.5050   28.3280  -30.3000 C.ar      1 15R401      0.0000 
     41 CAF       -13.0170   29.6350  -30.2930 C.ar      1 15R401      0.0000 
     42 CAG       -12.2770   30.1510  -31.3890 C.ar      1 15R401      0.0000 
     43 CAN       -12.0440   29.3370  -32.4850 C.ar      1 15R401      0.0000 
     44 H         -14.8609   18.0644  -23.1295 H         1 15R401      0.0000 
     45 H         -16.5845   19.5891  -23.9673 H         1 15R401      0.0000 
     46 H         -15.6179   20.6141  -22.8924 H         1 15R401      0.0000 
     47 H         -18.3345   19.2721  -22.4298 H         1 15R401      0.0000 
     48 H         -15.7617   17.6022  -18.6693 H         1 15R401      0.0000 
     49 H         -16.4015   19.2717  -16.8744 H         1 15R401      0.0000 
     50 H         -18.6399   20.2537  -17.5105 H         1 15R401      0.0000 
     51 H         -19.0814   22.2283  -19.3587 H         1 15R401      0.0000 
     52 H         -20.1141   20.7889  -19.3973 H         1 15R401      0.0000 
     53 H         -19.9222   22.4172  -21.4866 H         1 15R401      0.0000 
     54 H         -20.1356   20.6685  -21.6773 H         1 15R401      0.0000 
     55 H         -16.2326   21.9719  -24.0563 H         1 15R401      0.0000 
     56 H         -14.8303   22.5774  -22.2719 H         1 15R401      0.0000 
     57 H         -15.8134   23.9993  -21.8827 H         1 15R401      0.0000 
     58 H         -13.5693   23.6747  -23.8021 H         1 15R401      0.0000 
     59 H         -14.0301   25.0526  -22.7877 H         1 15R401      0.0000 
     60 H         -18.1628   23.8970  -24.3842 H         1 15R401      0.0000 
     61 H         -16.9160   23.4379  -25.5566 H         1 15R401      0.0000 
     62 H         -16.6225   25.5081  -23.3847 H         1 15R401      0.0000 
     63 H         -16.8747   25.8325  -25.1083 H         1 15R401      0.0000 
     64 H         -13.8408   24.5660  -28.1680 H         1 15R401      0.0000 
     65 H         -17.1213   28.0658  -28.1832 H         1 15R401      0.0000 
     66 H         -16.3755   27.1196  -30.2669 H         1 15R401      0.0000 
     67 H         -15.4496   24.7884  -31.1714 H         1 15R401      0.0000 
     68 H         -13.9592   24.2783  -30.3599 H         1 15R401      0.0000 
     69 H         -12.5920   25.2525  -34.5187 H         1 15R401      0.0000 
     70 H         -14.0329   27.9631  -29.4981 H         1 15R401      0.0000 
     71 H         -13.1917   30.2466  -29.4806 H         1 15R401      0.0000 
     72 H         -11.9296   31.1068  -31.3547 H         1 15R401      0.0000 
     73 H         -11.5199   29.6682  -33.2954 H         1 15R401      0.0000 
@<TRIPOS>BOND
     1    2    1 2    
     2    3    2 am   
     3    7    2 1    
     4    4    3 1    
     5   44    3 1    
     6    5    4 1    
     7   45    4 1    
     8   46    4 1    
     9    6    5 1    
    10   14    5 1    
    11   47    5 1    
    12    7    6 ar   
    13   11    6 ar   
    14    8    7 ar   
    15    9    8 ar   
    16   48    8 1    
    17   10    9 ar   
    18   49    9 1    
    19   11   10 ar   
    20   50   10 1    
    21   12   11 1    
    22   13   12 1    
    23   51   12 1    
    24   52   12 1    
    25   14   13 1    
    26   53   13 1    
    27   54   13 1    
    28   15   14 am   
    29   16   15 2    
    30   17   15 1    
    31   18   17 1    
    32   20   17 1    
    33   55   17 1    
    34   19   18 1    
    35   56   18 1    
    36   57   18 1    
    37   22   19 1    
    38   58   19 1    
    39   59   19 1    
    40   21   20 1    
    41   60   20 1    
    42   61   20 1    
    43   22   21 1    
    44   62   21 1    
    45   63   21 1    
    46   23   22 am   
    47   24   23 2    
    48   25   23 1    
    49   26   25 ar   
    50   27   25 ar   
    51   31   26 ar   
    52   64   26 1    
    53   28   27 1    
    54   29   27 ar   
    55   30   29 ar   
    56   65   29 1    
    57   31   30 ar   
    58   66   30 1    
    59   32   31 1    
    60   33   32 1    
    61   67   32 1    
    62   68   32 1    
    63   34   33 2    
    64   39   33 1    
    65   35   34 1    
    66   36   35 am   
    67   69   35 1    
    68   37   36 2    
    69   38   36 1    
    70   39   38 ar   
    71   43   38 ar   
    72   40   39 ar   
    73   41   40 ar   
    74   70   40 1    
    75   42   41 ar   
    76   71   41 1    
    77   43   42 ar   
    78   72   42 1    
    79   73   43 1    
@<TRIPOS>SUBSTRUCTURE
     1 15R401      1 GROUP   
@<TRIPOS>SET

