#    Name: 4c58_824_1_INTS_M
#    Modification time : Tue Mar 25 08:57:59 2014

@<TRIPOS>MOLECULE
4c58_824_1_INTS_M
   66     0     9     0     0
SMALL
NO_CHARGES


@<TRIPOS>ATOM
      1 CA         39.8875   16.9530  -43.1280 C.3       3 GLC5        0.0000 
      2 CA         38.4530   16.4210  -44.4490 C.3       9 GLL5        0.0000 
      3 CA         41.3220   17.4850  -41.8070 C.3       6 GLP5        0.0000 
      4 CA         33.6355   15.1180  -44.8550 C.3       3 GLC5        0.0000 
      5 CA         34.0520   17.0970  -43.9350 C.3       9 GLL5        0.0000 
      6 CA         33.2190   13.1390  -45.7750 C.3       6 GLP5        0.0000 
      7 CA         33.3030   17.5705  -45.8845 C.3       3 GLC5        0.0000 
      8 CA         32.5540   18.0440  -47.8340 C.3       6 GLP5        0.0000 
      9 CA         35.1485   17.3810  -42.1175 C.3       3 GLC5        0.0000 
     10 CA         36.2450   17.6650  -40.3000 C.3       6 GLP5        0.0000 
     11 N          37.7685   21.5390  -44.2130 N.am      2 SEC2        0.0000 
     12 N          36.8240   20.3440  -44.3750 N.am      8 SEL2        0.0000 
     13 N          38.7130   22.7340  -44.0510 N.am      5 SEP2        0.0000 
     14 N          32.3445   22.8960  -44.7875 N.am      2 SEC2        0.0000 
     15 N          32.7080   21.9270  -43.9400 N.am      8 SEL2        0.0000 
     16 N          31.9810   23.8650  -45.6350 N.am      5 SEP2        0.0000 
     17 O          35.1970   22.8590  -44.3530 O.2       1 ALC1        0.0000 
     18 O          34.9330   21.5020  -44.1720 O.2       7 ALL1        0.0000 
     19 O          35.4610   24.2160  -44.5340 O.2       4 ALP1        0.0000 
     20 CA         31.7670   17.0290  -45.4160 C.3       3 GLC5        0.0000 
     21 CA         32.8020   17.5350  -43.8440 C.3       9 GLL5        0.0000 
     22 CA         30.7320   16.5230  -46.9880 C.3       6 GLP5        0.0000 
     23 CA         31.6350   19.1110  -46.2835 C.3       3 GLC5        0.0000 
     24 CA         30.7160   20.1780  -44.7330 C.3       9 GLL5        0.0000 
     25 CA         29.4630   19.7990  -46.5605 C.3       3 GLC5        0.0000 
     26 CA         28.2100   19.4200  -48.3880 C.3       6 GLP5        0.0000 
     27 CA         27.9105   17.8965  -44.4850 C.3       3 GLC5        0.0000 
     28 CA         28.8990   18.9250  -43.0450 C.3       9 GLL5        0.0000 
     29 CA         26.9220   16.8680  -45.9250 C.3       6 GLP5        0.0000 
     30 CA         28.3890   18.6000  -40.9400 C.3       3 GLC5        0.0000 
     31 CA         27.8790   18.2750  -38.8350 C.3       6 GLP5        0.0000 
     32 CA         37.3678   15.6613  -46.1632 C.3       3 GLC5        0.0000 
     33 CA         36.4860   15.5630  -47.9360 C.3       6 GLP5        0.0000 
     34 CA         37.5547   14.4567  -42.3535 C.3       3 GLC5        0.0000 
     35 CA         38.0460   15.0980  -44.3320 C.3       9 GLL5        0.0000 
     36 CA         37.7400   13.9300  -40.4710 C.3       6 GLP5        0.0000 
     37 CA         36.3715   15.4718  -46.0190 C.3       3 GLC5        0.0000 
     38 CA         36.6930   14.8690  -44.1400 C.3       9 GLL5        0.0000 
     39 CA         34.7380   14.2598  -44.9385 C.3       3 GLC5        0.0000 
     40 CA         36.5027   17.3317  -42.2634 C.3       3 GLC5        0.0000 
     41 CA         37.5090   17.4600  -44.3370 C.3       9 GLL5        0.0000 
     42 CA         36.4557   17.8300  -46.1175 C.3       3 GLC5        0.0000 
     43 CA         36.2030   17.1820  -44.1690 C.3       9 GLL5        0.0000 
     44 CA         36.9400   18.0260  -48.0770 C.3       6 GLP5        0.0000 
     45 CA         35.1428   19.2955  -42.4280 C.3       3 GLC5        0.0000 
     46 CA         35.0870   17.9470  -44.0630 C.3       9 GLL5        0.0000 
     47 CA         35.3280   19.9800  -40.7640 C.3       6 GLP5        0.0000 
     48 CA         34.2295   20.6990  -45.6675 C.3       3 GLC5        0.0000 
     49 CA         34.8280   19.2750  -44.1210 C.3       9 GLL5        0.0000 
     50 CA         34.2620   21.8780  -47.2760 C.3       6 GLP5        0.0000 
     51 CA         32.8050   18.6890  -45.8775 C.3       3 GLC5        0.0000 
     52 CA         33.5660   19.7650  -43.9970 C.3       9 GLL5        0.0000 
     53 CA         34.1920   19.6570  -42.3425 C.3       3 GLC5        0.0000 
     54 CA         32.5460   18.9030  -43.8450 C.3       9 GLL5        0.0000 
     55 CA         32.2440   18.4780  -41.8728 C.3       3 GLC5        0.0000 
     56 CA         31.8140   18.7370  -39.9010 C.3       6 GLP5        0.0000 
     57 CA         30.7255   17.7155  -45.1962 C.3       3 GLC5        0.0000 
     58 CA         30.2470   18.5650  -43.0120 C.3       9 GLL5        0.0000 
     59 CA         27.8995   19.2112  -45.4823 C.3       3 GLC5        0.0000 
     60 CA         28.4510   19.8940  -43.9310 C.3       9 GLL5        0.0000 
     61 CA         26.8890   18.2280  -46.6060 C.3       6 GLP5        0.0000 
     62 CA         27.9105   21.6568  -43.5673 C.3       3 GLC5        0.0000 
     63 CA         26.9110   23.1190  -42.7760 C.3       6 GLP5        0.0000 
     64 CA         27.2330   21.3053  -45.1938 C.3       3 GLC5        0.0000 
     65 CA         25.5560   22.4160  -46.0290 C.3       6 GLP5        0.0000 
     66 CA         30.8115   18.8267  -41.5629 C.3       3 GLC5        0.0000 
@<TRIPOS>BOND
@<TRIPOS>SUBSTRUCTURE
     1 ALC1       17 GROUP        1 X    ALC  0     ROOT ALC X 1
     2 SEC2       11 GROUP        1 X    SEC  0     **** SEC X 2
     3 GLC5        1 GROUP        1 X    GLC  0     **** GLC X 6
     4 ALP1       19 GROUP        1 Y    ALP  0     ROOT ALP Y 8
     5 SEP2       13 GROUP        1 Y    SEP  0     **** SEP Y 9
     6 GLP5        3 GROUP        1 Y    GLP  0     **** GLP Y 13
     7 ALL1       18 GROUP        1 Z    ALL  0     ROOT ALL Z 15
     8 SEL2       12 GROUP        1 Z    SEL  0     **** SEL Z 16
     9 GLL5        2 GROUP        1 Z    GLL  0     **** GLL Z 20
@<TRIPOS>SET

