#    Name: 4c58_824_1_ligand
#    Modification time : Tue Mar 25 08:57:59 2014

@<TRIPOS>MOLECULE
4c58_824_1_ligand
   37    41     1     0     0
SMALL
NO_CHARGES


@<TRIPOS>ATOM
      1 O3         39.7810   16.6780  -44.6110 O.3       1 8241336     0.0000 
      2 C19        38.4530   16.4210  -44.4490 C.ar      1 8241336     0.0000 
      3 C20        38.0460   15.0980  -44.3320 C.ar      1 8241336     0.0000 
      4 C18        36.6930   14.8690  -44.1400 C.ar      1 8241336     0.0000 
      5 C16        35.8210   15.8920  -44.0640 C.ar      1 8241336     0.0000 
      6 C15        36.2030   17.1820  -44.1690 C.ar      1 8241336     0.0000 
      7 C17        37.5090   17.4600  -44.3370 C.ar      1 8241336     0.0000 
      8 C13        35.0870   17.9470  -44.0630 C.ar      1 8241336     0.0000 
      9 C14        34.0520   17.0970  -43.9350 C.ar      1 8241336     0.0000 
     10 N2         34.4930   15.8460  -43.8990 N.pl3     1 8241336     0.0000 
     11 C4         34.8280   19.2750  -44.1210 C.ar      1 8241336     0.0000 
     12 C5         35.6150   20.3610  -44.2410 C.2       1 8241336     0.0000 
     13 O1         36.8240   20.3440  -44.3750 O.2       1 8241336     0.0000 
     14 C3         33.5660   19.7650  -43.9970 C.ar      1 8241336     0.0000 
     15 C6         33.6570   21.1170  -44.0240 C.2       1 8241336     0.0000 
     16 O2         32.7080   21.9270  -43.9400 O.2       1 8241336     0.0000 
     17 N1         34.9330   21.5020  -44.1720 N.am      1 8241336     0.0000 
     18 C2         32.5460   18.9030  -43.8450 C.ar      1 8241336     0.0000 
     19 C1         32.8020   17.5350  -43.8440 C.ar      1 8241336     0.0000 
     20 C7         31.1910   19.2510  -43.7970 C.ar      1 8241336     0.0000 
     21 C8         30.7160   20.1780  -44.7330 C.ar      1 8241336     0.0000 
     22 C9         29.3690   20.4950  -44.7860 C.ar      1 8241336     0.0000 
     23 C10        28.4510   19.8940  -43.9310 C.ar      1 8241336     0.0000 
     24 C11        28.8990   18.9250  -43.0450 C.ar      1 8241336     0.0000 
     25 C12        30.2470   18.5650  -43.0120 C.ar      1 8241336     0.0000 
     26 H          38.7079   14.3382  -44.3847 H         1 8241336     0.0000 
     27 H          36.3622   13.8831  -44.0551 H         1 8241336     0.0000 
     28 H          37.8505   18.4377  -44.3878 H         1 8241336     0.0000 
     29 H          33.9635   15.0499  -43.7775 H         1 8241336     0.0000 
     30 H          35.2663   22.3855  -44.2165 H         1 8241336     0.0000 
     31 H          31.9981   16.8827  -43.7711 H         1 8241336     0.0000 
     32 H          31.3793   20.6238  -45.3842 H         1 8241336     0.0000 
     33 H          29.0350   21.1947  -45.4766 H         1 8241336     0.0000 
     34 H          27.4670   20.1620  -43.9563 H         1 8241336     0.0000 
     35 H          28.2340   18.4652  -42.4046 H         1 8241336     0.0000 
     36 H          30.5579   17.7910  -42.4091 H         1 8241336     0.0000 
     37 H          39.8178   17.5169  -45.1540 H         1 8241336     0.0000 
@<TRIPOS>BOND
     1    2    1 1    
     2   37    1 1    
     3    3    2 ar   
     4    7    2 ar   
     5    4    3 ar   
     6   26    3 1    
     7    5    4 ar   
     8   27    4 1    
     9    6    5 ar   
    10   10    5 1    
    11    7    6 ar   
    12    8    6 1    
    13   28    7 1    
    14    9    8 ar   
    15   11    8 ar   
    16   10    9 1    
    17   19    9 ar   
    18   29   10 1    
    19   12   11 1    
    20   14   11 ar   
    21   13   12 2    
    22   17   12 am   
    23   15   14 1    
    24   18   14 ar   
    25   16   15 2    
    26   17   15 am   
    27   30   17 1    
    28   19   18 ar   
    29   20   18 1    
    30   31   19 1    
    31   21   20 ar   
    32   25   20 ar   
    33   22   21 ar   
    34   32   21 1    
    35   23   22 ar   
    36   33   22 1    
    37   24   23 ar   
    38   34   23 1    
    39   25   24 ar   
    40   35   24 1    
    41   36   25 1    
@<TRIPOS>SUBSTRUCTURE
     1 8241336     1 GROUP   
@<TRIPOS>SET

