#    Name: 2bel_CBO_1_INTS_M
#    Modification time : Mon Mar 24 20:48:17 2014

@<TRIPOS>MOLECULE
2bel_CBO_1_INTS_M
   89     0     6     0     0
SMALL
NO_CHARGES


@<TRIPOS>ATOM
      1 CA          6.0805   25.8965   15.2405 C.3       2 GLC5        0.0000 
      2 CA          7.3040   24.6540   16.5020 C.3       6 GLL5        0.0000 
      3 CA          4.8570   27.1390   13.9790 C.3       4 GLP5        0.0000 
      4 CA          6.9170   24.1895   18.5975 C.3       2 GLC5        0.0000 
      5 CA          6.5300   23.7250   20.6930 C.3       4 GLP5        0.0000 
      6 CA          7.2370   27.4050   15.6550 C.3       2 GLC5        0.0000 
      7 CA          7.8080   26.0520   16.8060 C.3       6 GLL5        0.0000 
      8 CA          6.6660   28.7580   14.5040 C.3       4 GLP5        0.0000 
      9 CA          8.5805   24.9055   19.2570 C.3       2 GLC5        0.0000 
     10 CA          9.1200   26.0090   17.5620 C.3       6 GLL5        0.0000 
     11 CA          8.0410   23.8020   20.9520 C.3       4 GLP5        0.0000 
     12 CA         10.9865   20.5545   17.6620 C.3       2 GLC5        0.0000 
     13 CA         10.2710   21.4770   16.1110 C.3       6 GLL5        0.0000 
     14 CA         11.7020   19.6320   19.2130 C.3       4 GLP5        0.0000 
     15 CA          4.2540   21.4760   14.1950 C.3       2 GLC5        0.0000 
     16 CA          6.0760   20.6040   15.1670 C.3       6 GLL5        0.0000 
     17 CA          2.4320   22.3480   13.2230 C.3       4 GLP5        0.0000 
     18 CA         10.4710   19.1380   17.5050 C.3       2 GLC5        0.0000 
     19 CA          9.2400   18.6440   15.7970 C.3       6 GLL5        0.0000 
     20 CA          4.9980   18.3925   13.9605 C.3       2 GLC5        0.0000 
     21 CA          6.2750   18.1950   15.3510 C.3       6 GLL5        0.0000 
     22 CA          3.7210   18.5900   12.5700 C.3       4 GLP5        0.0000 
     23 CA          7.3570   23.5850   12.5510 C.3       2 GLC5        0.0000 
     24 CA          8.3700   24.2310   14.3060 C.3       6 GLL5        0.0000 
     25 CA          6.3440   22.9390   10.7960 C.3       4 GLP5        0.0000 
     26 CA          8.7260   25.3445   12.9040 C.3       2 GLC5        0.0000 
     27 CA          9.0820   26.4580   11.5020 C.3       4 GLP5        0.0000 
     28 CA          6.1295   17.8560   18.8350 C.3       2 GLC5        0.0000 
     29 CA          5.5560   17.8130   16.6720 C.3       6 GLL5        0.0000 
     30 CA          6.7030   17.8990   20.9980 C.3       4 GLP5        0.0000 
     31 CA          4.3195   18.9640   17.6145 C.3       2 GLC5        0.0000 
     32 CA          3.0830   20.1150   18.5570 C.3       4 GLP5        0.0000 
     33 CA          5.8355   14.0950   17.8440 C.3       2 GLC5        0.0000 
     34 CA          6.0570   15.3930   16.3390 C.3       6 GLL5        0.0000 
     35 CA          5.6140   12.7970   19.3490 C.3       4 GLP5        0.0000 
     36 CA          6.5865   14.2080   13.6515 C.3       2 GLC5        0.0000 
     37 CA          6.7920   15.6970   15.0290 C.3       6 GLL5        0.0000 
     38 CA          6.3810   12.7190   12.2740 C.3       4 GLP5        0.0000 
     39 CA         11.0655   26.1980   13.8960 C.3       2 GLC5        0.0000 
     40 CA         10.7650   26.0570   15.6070 C.3       6 GLL5        0.0000 
     41 CA         11.3660   26.3390   12.1850 C.3       4 GLP5        0.0000 
     42 CA         12.5165   24.9055   19.4480 C.3       2 GLC5        0.0000 
     43 CA         11.3820   25.1050   17.8350 C.3       6 GLL5        0.0000 
     44 CA         13.6510   24.7060   21.0610 C.3       4 GLP5        0.0000 
     45 CA          9.5420   19.4360   12.5150 C.3       2 GLC5        0.0000 
     46 CA          9.0210   21.0180   14.0220 C.3       6 GLL5        0.0000 
     47 CA         10.0630   17.8540   11.0080 C.3       4 GLP5        0.0000 
     48 CA          8.3405   20.5890   19.3825 C.3       2 GLC5        0.0000 
     49 CA          8.1010   19.8220   17.6360 C.3       6 GLL5        0.0000 
     50 CA          8.5800   21.3560   21.1290 C.3       4 GLP5        0.0000 
     51 CA          7.4020   18.8605   19.3170 C.3       2 GLC5        0.0000 
     52 CA          9.9015   19.7270   18.4245 C.3       2 GLC5        0.0000 
     53 CA          7.4730   15.4500   12.4330 C.3       2 GLC5        0.0000 
     54 CA          7.6080   17.3280   13.4070 C.3       6 GLL5        0.0000 
     55 CA          7.3380   13.5720   11.4590 C.3       4 GLP5        0.0000 
     56 CA          8.8355   17.5910   12.2075 C.3       2 GLC5        0.0000 
     57 CA          6.4205   18.0075   12.0455 C.3       2 GLC5        0.0000 
     58 CA          5.2330   18.6870   10.6840 C.3       4 GLP5        0.0000 
     59 CA          4.9800   14.4345   18.6900 C.3       2 GLC5        0.0000 
     60 CA          4.3460   16.0720   18.0310 C.3       6 GLL5        0.0000 
     61 CA          5.5245   16.9855   19.5145 C.3       2 GLC5        0.0000 
     62 CA          3.1360   17.7425   18.1705 C.3       2 GLC5        0.0000 
     63 CA          1.9260   19.4130   18.3100 C.3       4 GLP5        0.0000 
     64 N           4.8290   22.7020   14.0635 N.am      1 SEC2        0.0000 
     65 N           5.8220   22.9150   14.7880 N.am      5 SEL2        0.0000 
     66 N           3.8360   22.4890   13.3390 N.am      3 SEP2        0.0000 
     67 N           6.9770   26.2955   19.7135 N.am      1 SEC2        0.0000 
     68 N           7.9100   27.7010   19.4630 N.am      5 SEL2        0.0000 
     69 N           6.0440   24.8900   19.9640 N.am      3 SEP2        0.0000 
     70 N          12.3500   27.6720   21.2875 N.am      1 SEC2        0.0000 
     71 N          11.4400   27.8240   20.1880 N.am      5 SEL2        0.0000 
     72 N          13.2600   27.5200   22.3870 N.am      3 SEP2        0.0000 
     73 CA          6.0630   25.7630   17.5890 C.3       2 GLC5        0.0000 
     74 CA          4.5700   26.1730   18.5240 C.3       4 GLP5        0.0000 
     75 CA         12.4823   21.9430   16.7523 C.3       2 GLC5        0.0000 
     76 CA         10.7480   22.9110   15.8860 C.3       6 GLL5        0.0000 
     77 CA         14.4550   21.6920   17.5060 C.3       4 GLP5        0.0000 
     78 CA          5.5370   19.7010   13.5583 C.3       2 GLC5        0.0000 
     79 CA          6.8660   19.5820   15.5100 C.3       6 GLL5        0.0000 
     80 CA          4.6030   19.3090   11.7780 C.3       4 GLP5        0.0000 
     81 CA          4.9700   20.6300   16.5452 C.3       2 GLC5        0.0000 
     82 CA          3.4690   21.1670   17.7520 C.3       4 GLP5        0.0000 
     83 CA         10.5243   17.3065   15.0295 C.3       2 GLC5        0.0000 
     84 CA         12.1440   16.6590   14.2590 C.3       4 GLP5        0.0000 
     85 CA          9.7777   16.6965   17.0465 C.3       2 GLC5        0.0000 
     86 CA         10.6510   15.4390   18.2930 C.3       4 GLP5        0.0000 
     87 CA         11.1052   30.7910   19.5240 C.3       2 GLC5        0.0000 
     88 CA         10.9250   29.4520   18.4430 C.3       6 GLL5        0.0000 
     89 CA         11.9950   32.1190   20.3090 C.3       4 GLP5        0.0000 
@<TRIPOS>BOND
@<TRIPOS>SUBSTRUCTURE
     1 SEC2       64 GROUP        1 X    SEC  0     ROOT SEC X 2
     2 GLC5        1 GROUP        1 X    GLC  0     **** GLC X 6
     3 SEP2       66 GROUP        1 Y    SEP  0     ROOT SEP Y 9
     4 GLP5        3 GROUP        1 Y    GLP  0     **** GLP Y 13
     5 SEL2       65 GROUP        1 Z    SEL  0     ROOT SEL Z 16
     6 GLL5        2 GROUP        1 Z    GLL  0     **** GLL Z 20
@<TRIPOS>SET

