#    Name: 2bel_CBO_1_ligand
#    Modification time : Mon Mar 24 20:48:17 2014

@<TRIPOS>MOLECULE
2bel_CBO_1_ligand
   89    93     1     0     0
SMALL
NO_CHARGES


@<TRIPOS>ATOM
      1 C1          7.3040   24.6540   16.5020 C.3       1 CBO1270     0.0000 
      2 C2          7.8080   26.0520   16.8060 C.3       1 CBO1270     0.0000 
      3 C3          9.1200   26.0090   17.5620 C.3       1 CBO1270     0.0000 
      4 C4         10.2310   25.2620   16.8180 C.3       1 CBO1270     0.0000 
      5 C5          9.6950   23.8570   16.4990 C.3       1 CBO1270     0.0000 
      6 C6         10.7480   22.9110   15.8860 C.3       1 CBO1270     0.0000 
      7 C7         10.2710   21.4770   16.1110 C.3       1 CBO1270     0.0000 
      8 C8          8.8580   21.1690   15.5470 C.3       1 CBO1270     0.0000 
      9 C9          7.8570   22.2970   15.9100 C.3       1 CBO1270     0.0000 
     10 C10         8.3370   23.7780   15.7750 C.3       1 CBO1270     0.0000 
     11 C11         6.5260   22.0150   15.2560 C.2       1 CBO1270     0.0000 
     12 C12         6.0760   20.6040   15.1670 C.2       1 CBO1270     0.0000 
     13 C13         6.8660   19.5820   15.5100 C.2       1 CBO1270     0.0000 
     14 C14         8.2750   19.8250   16.0870 C.3       1 CBO1270     0.0000 
     15 C15         9.2400   18.6440   15.7970 C.3       1 CBO1270     0.0000 
     16 C16         8.5690   17.2640   15.8030 C.3       1 CBO1270     0.0000 
     17 C17         7.3060   17.1460   14.9140 C.3       1 CBO1270     0.0000 
     18 C18         6.2750   18.1950   15.3510 C.3       1 CBO1270     0.0000 
     19 C19         8.3700   24.2310   14.3060 C.3       1 CBO1270     0.0000 
     20 C20         5.5560   17.8130   16.6720 C.3       1 CBO1270     0.0000 
     21 C21         4.9430   16.4050   16.6700 C.3       1 CBO1270     0.0000 
     22 C22         6.0570   15.3930   16.3390 C.3       1 CBO1270     0.0000 
     23 C23         6.7920   15.6970   15.0290 C.3       1 CBO1270     0.0000 
     24 C24        10.7650   26.0570   15.6070 C.3       1 CBO1270     0.0000 
     25 C25        11.3820   25.1050   17.8350 C.3       1 CBO1270     0.0000 
     26 C26         9.0210   21.0180   14.0220 C.3       1 CBO1270     0.0000 
     27 C27         8.1010   19.8220   17.6360 C.3       1 CBO1270     0.0000 
     28 C28         7.6080   17.3280   13.4070 C.3       1 CBO1270     0.0000 
     29 C29         8.8870   28.1150   18.8280 C.2       1 CBO1270     0.0000 
     30 C30         9.5060   29.4740   19.0350 C.3       1 CBO1270     0.0000 
     31 C31        10.9250   29.4520   18.4430 C.3       1 CBO1270     0.0000 
     32 C32        11.8750   28.5880   19.2670 C.2       1 CBO1270     0.0000 
     33 C33         3.7590   16.3130   15.7230 C.2       1 CBO1270     0.0000 
     34 C34         4.3460   16.0720   18.0310 C.3       1 CBO1270     0.0000 
     35 O3          9.5660   27.3310   17.8060 O.3       1 CBO1270     0.0000 
     36 O11         5.8220   22.9150   14.7880 O.2       1 CBO1270     0.0000 
     37 O29         7.9100   27.7010   19.4630 O.2       1 CBO1270     0.0000 
     38 O32        13.0950   28.6790   18.9810 O.co2     1 CBO1270     0.0000 
     39 O33        11.4400   27.8240   20.1880 O.co2     1 CBO1270     0.0000 
     40 O34         3.1360   17.3620   15.4680 O.co2     1 CBO1270     0.0000 
     41 O35         3.3870   15.1940   15.2560 O.co2     1 CBO1270     0.0000 
     42 H           6.3994   24.7191   15.8796 H         1 CBO1270     0.0000 
     43 H           7.0203   24.1558   17.4407 H         1 CBO1270     0.0000 
     44 H           7.0625   26.5823   17.4040 H         1 CBO1270     0.0000 
     45 H           7.9475   26.5970   15.8689 H         1 CBO1270     0.0000 
     46 H           8.9541   25.4917   18.5086 H         1 CBO1270     0.0000 
     47 H           9.4851   23.3808   17.5461 H         1 CBO1270     0.0000 
     48 H          11.6893   23.0627   16.3806 H         1 CBO1270     0.0000 
     49 H          10.8276   23.1065   14.8329 H         1 CBO1270     0.0000 
     50 H          10.2662   21.2613   17.1925 H         1 CBO1270     0.0000 
     51 H          10.9879   20.7788   15.6477 H         1 CBO1270     0.0000 
     52 H           7.6577   22.1464   17.0389 H         1 CBO1270     0.0000 
     53 H           5.1055   20.4710   14.8197 H         1 CBO1270     0.0000 
     54 H          10.0426   18.6579   16.5499 H         1 CBO1270     0.0000 
     55 H           9.7101   18.8120   14.8162 H         1 CBO1270     0.0000 
     56 H           8.2913   17.0042   16.8395 H         1 CBO1270     0.0000 
     57 H           9.3011   16.5073   15.4708 H         1 CBO1270     0.0000 
     58 H           5.4932   18.2530   14.5763 H         1 CBO1270     0.0000 
     59 H           4.7627   18.5506   16.8627 H         1 CBO1270     0.0000 
     60 H           6.2794   17.8894   17.4970 H         1 CBO1270     0.0000 
     61 H           5.6149   14.3890   16.2778 H         1 CBO1270     0.0000 
     62 H           6.7826   15.3845   17.1640 H         1 CBO1270     0.0000 
     63 H           7.6480   15.0109   14.9305 H         1 CBO1270     0.0000 
     64 H           6.1159   15.4950   14.1832 H         1 CBO1270     0.0000 
     65 H           9.5697   29.6969   20.0890 H         1 CBO1270     0.0000 
     66 H           8.9258   30.2283   18.5260 H         1 CBO1270     0.0000 
     67 H          11.3077   30.4750   18.4040 H         1 CBO1270     0.0000 
     68 H          10.8763   29.0643   17.4223 H         1 CBO1270     0.0000 
     69 H           8.6345   25.1915   14.2194 H         1 CBO1270     0.0000 
     70 H           9.0223   23.6976   13.7674 H         1 CBO1270     0.0000 
     71 H           7.4771   24.1321   13.8667 H         1 CBO1270     0.0000 
     72 H          11.1426   26.9416   15.8807 H         1 CBO1270     0.0000 
     73 H          11.4919   25.5631   15.1298 H         1 CBO1270     0.0000 
     74 H          10.0459   26.2400   14.9366 H         1 CBO1270     0.0000 
     75 H          12.1622   24.6194   17.4408 H         1 CBO1270     0.0000 
     76 H          11.7189   25.9908   18.1542 H         1 CBO1270     0.0000 
     77 H          11.0954   24.5916   18.6439 H         1 CBO1270     0.0000 
     78 H           9.3769   21.8529   13.6021 H         1 CBO1270     0.0000 
     79 H           9.6531   20.2795   13.7874 H         1 CBO1270     0.0000 
     80 H           8.1509   20.8125   13.5740 H         1 CBO1270     0.0000 
     81 H           8.9705   19.9683   18.1077 H         1 CBO1270     0.0000 
     82 H           7.4774   20.5417   17.9411 H         1 CBO1270     0.0000 
     83 H           7.7307   18.9538   17.9665 H         1 CBO1270     0.0000 
     84 H           8.0098   18.2232   13.2142 H         1 CBO1270     0.0000 
     85 H           8.2511   16.6397   13.0713 H         1 CBO1270     0.0000 
     86 H           6.7806   17.2521   12.8506 H         1 CBO1270     0.0000 
     87 H           5.0342   16.1025   18.7559 H         1 CBO1270     0.0000 
     88 H           3.6227   16.7136   18.2863 H         1 CBO1270     0.0000 
     89 H           3.9444   15.1563   18.0464 H         1 CBO1270     0.0000 
@<TRIPOS>BOND
     1    2    1 1    
     2   10    1 1    
     3   42    1 1    
     4   43    1 1    
     5    3    2 1    
     6   44    2 1    
     7   45    2 1    
     8    4    3 1    
     9   35    3 1    
    10   46    3 1    
    11    5    4 1    
    12   24    4 1    
    13   25    4 1    
    14    6    5 1    
    15   10    5 1    
    16   47    5 1    
    17    7    6 1    
    18   48    6 1    
    19   49    6 1    
    20    8    7 1    
    21   50    7 1    
    22   51    7 1    
    23    9    8 1    
    24   14    8 1    
    25   26    8 1    
    26   10    9 1    
    27   11    9 1    
    28   52    9 1    
    29   19   10 1    
    30   12   11 1    
    31   36   11 2    
    32   13   12 2    
    33   53   12 1    
    34   14   13 1    
    35   18   13 1    
    36   15   14 1    
    37   27   14 1    
    38   16   15 1    
    39   54   15 1    
    40   55   15 1    
    41   17   16 1    
    42   56   16 1    
    43   57   16 1    
    44   18   17 1    
    45   23   17 1    
    46   28   17 1    
    47   20   18 1    
    48   58   18 1    
    49   69   19 1    
    50   70   19 1    
    51   71   19 1    
    52   21   20 1    
    53   59   20 1    
    54   60   20 1    
    55   22   21 1    
    56   33   21 1    
    57   34   21 1    
    58   23   22 1    
    59   61   22 1    
    60   62   22 1    
    61   63   23 1    
    62   64   23 1    
    63   72   24 1    
    64   73   24 1    
    65   74   24 1    
    66   75   25 1    
    67   76   25 1    
    68   77   25 1    
    69   78   26 1    
    70   79   26 1    
    71   80   26 1    
    72   81   27 1    
    73   82   27 1    
    74   83   27 1    
    75   84   28 1    
    76   85   28 1    
    77   86   28 1    
    78   30   29 1    
    79   35   29 1    
    80   37   29 2    
    81   31   30 1    
    82   65   30 1    
    83   66   30 1    
    84   32   31 1    
    85   67   31 1    
    86   68   31 1    
    87   38   32 ar   
    88   39   32 ar   
    89   40   33 ar   
    90   41   33 ar   
    91   87   34 1    
    92   88   34 1    
    93   89   34 1    
@<TRIPOS>SUBSTRUCTURE
     1 CBO1270     1 GROUP   
@<TRIPOS>SET

