#    Name: 3rbq_GLY_ALA_GLY_ALA_DAO_2_INTS_M
#    Modification time : Tue Mar 25 11:20:25 2014

@<TRIPOS>MOLECULE
3rbq_GLY_ALA_GLY_ALA_DAO_2_INTS_M
   88     0     9     0     0
SMALL
NO_CHARGES


@<TRIPOS>ATOM
      1 O          46.5815   14.3715   -9.3790 O.2       1 ALC1        0.0000 
      2 O          45.3850   14.0650   -8.5300 O.2       7 ALL1        0.0000 
      3 O          47.7780   14.6780  -10.2280 O.2       4 ALP1        0.0000 
      4 O          46.2620   15.2615   -8.5860 O.2       1 ALC1        0.0000 
      5 O          47.1390   16.4580   -8.6420 O.2       4 ALP1        0.0000 
      6 CA         43.5205   13.7680   -6.2750 C.3       3 GLC5        0.0000 
      7 CA         44.4300   14.9420   -7.8170 C.3       9 GLL5        0.0000 
      8 CA         42.6110   12.5940   -4.7330 C.3       6 GLP5        0.0000 
      9 CA         45.7115   16.4040   -8.3510 C.3       3 GLC5        0.0000 
     10 CA         46.9930   17.8660   -8.8850 C.3       6 GLP5        0.0000 
     11 CA         43.9200   16.6610   -7.2105 C.3       3 GLC5        0.0000 
     12 CA         43.4100   18.3800   -6.6040 C.3       6 GLP5        0.0000 
     13 N          41.7795   16.9155   -7.9490 N.am      2 SEC2        0.0000 
     14 N          42.1330   15.5830   -7.8670 N.am      8 SEL2        0.0000 
     15 N          41.4260   18.2480   -8.0310 N.am      5 SEP2        0.0000 
     16 CA         40.7495   16.4590  -11.4015 C.3       3 GLC5        0.0000 
     17 CA         41.8420   14.9080  -10.6000 C.3       9 GLL5        0.0000 
     18 CA         39.6570   18.0100  -12.2030 C.3       6 GLP5        0.0000 
     19 CA         40.5760   15.9330  -12.6185 C.3       3 GLC5        0.0000 
     20 CA         42.1240   14.6680  -12.1320 C.3       9 GLL5        0.0000 
     21 CA         39.0280   17.1980  -13.1050 C.3       6 GLP5        0.0000 
     22 CA         41.9110   12.9280  -12.7015 C.3       3 GLC5        0.0000 
     23 CA         41.6980   11.1880  -13.2710 C.3       6 GLP5        0.0000 
     24 CA         42.1010   13.9855  -14.1220 C.3       3 GLC5        0.0000 
     25 CA         42.0780   13.3030  -16.1120 C.3       6 GLP5        0.0000 
     26 CA         40.8740   10.9670   -9.9785 C.3       3 GLC5        0.0000 
     27 CA         40.2570   12.0000   -8.6740 C.3       9 GLL5        0.0000 
     28 CA         41.4910    9.9340  -11.2830 C.3       6 GLP5        0.0000 
     29 CA         39.8375    9.9000   -8.6355 C.3       3 GLC5        0.0000 
     30 CA         39.4180    7.8000   -8.5970 C.3       6 GLP5        0.0000 
     31 CA         38.4425   10.9215   -9.1945 C.3       3 GLC5        0.0000 
     32 CA         36.6280    9.8430   -9.7150 C.3       6 GLP5        0.0000 
     33 CA         41.7340   10.6000   -7.7365 C.3       3 GLC5        0.0000 
     34 CA         43.2110    9.2000   -6.7990 C.3       6 GLP5        0.0000 
     35 CA         39.9450   17.2730   -4.3670 C.3       3 GLC5        0.0000 
     36 CA         39.8650   15.4630   -5.2630 C.3       9 GLL5        0.0000 
     37 CA         40.0250   19.0830   -3.4710 C.3       6 GLP5        0.0000 
     38 CA         40.6885   15.8385   -3.3605 C.3       3 GLC5        0.0000 
     39 CA         41.5120   16.2140   -1.4580 C.3       6 GLP5        0.0000 
     40 CA         44.8545   11.0790  -10.7505 C.3       3 GLC5        0.0000 
     41 CA         46.0270   11.8500   -9.3900 C.3       9 GLL5        0.0000 
     42 CA         43.6820   10.3080  -12.1110 C.3       6 GLP5        0.0000 
     43 CA         44.5275   10.0860  -10.0840 C.3       3 GLC5        0.0000 
     44 CA         46.1550   10.3970   -8.9750 C.3       9 GLL5        0.0000 
     45 CA         42.9000    9.7750  -11.1930 C.3       6 GLP5        0.0000 
     46 CA         47.1210    9.5360   -7.1830 C.3       3 GLC5        0.0000 
     47 CA         48.0870    8.6750   -5.3910 C.3       6 GLP5        0.0000 
     48 CA         45.4295   10.0330  -11.0100 C.3       3 GLC5        0.0000 
     49 CA         47.1770    9.7580   -9.9090 C.3       9 GLL5        0.0000 
     50 CA         48.0925   10.4215  -11.5640 C.3       3 GLC5        0.0000 
     51 CA         49.0080   11.0850  -13.2190 C.3       6 GLP5        0.0000 
     52 CA         47.8035    8.5175   -7.4040 C.3       3 GLC5        0.0000 
     53 CA         47.5200    8.3600   -9.4170 C.3       9 GLL5        0.0000 
     54 CA         48.4970    8.8865  -12.2340 C.3       3 GLC5        0.0000 
     55 CA         48.4950    7.6760  -10.3960 C.3       9 GLL5        0.0000 
     56 CA         48.4990   10.0970  -14.0720 C.3       6 GLP5        0.0000 
     57 CA         53.6185    8.8790  -11.5785 C.3       3 GLC5        0.0000 
     58 CA         52.4280    7.6580  -10.5820 C.3       9 GLL5        0.0000 
     59 CA         54.8090   10.1000  -12.5750 C.3       6 GLP5        0.0000 
     60 CA         53.6730    9.3695  -10.4205 C.3       3 GLC5        0.0000 
     61 CA         52.9730    7.6420   -9.1640 C.3       9 GLL5        0.0000 
     62 CA         54.3730   11.0970  -11.6770 C.3       6 GLP5        0.0000 
     63 CA         52.7595    5.6965   -9.9560 C.3       3 GLC5        0.0000 
     64 CA         52.5460    3.7510  -10.7480 C.3       6 GLP5        0.0000 
     65 CA         54.6515    8.9780  -10.9355 C.3       3 GLC5        0.0000 
     66 CA         54.4940    7.8560   -9.2960 C.3       9 GLL5        0.0000 
     67 CA         55.9225    7.9690   -6.2880 C.3       3 GLC5        0.0000 
     68 CA         55.2580    7.1760   -8.1650 C.3       9 GLL5        0.0000 
     69 CA         56.5870    8.7620   -4.4110 C.3       6 GLP5        0.0000 
     70 CA         55.0950    5.3115   -9.3770 C.3       3 GLC5        0.0000 
     71 CA         54.9320    3.4470  -10.5890 C.3       6 GLP5        0.0000 
     72 CA         40.3980   13.5747   -4.7547 C.3       3 GLC5        0.0000 
     73 CA         41.3310   12.2010   -3.9010 C.3       6 GLP5        0.0000 
     74 CA         45.1890   10.3708   -7.5798 C.3       3 GLC5        0.0000 
     75 CA         44.2870    9.6180   -5.9770 C.3       6 GLP5        0.0000 
     76 CA         46.4642    6.9095  -10.1232 C.3       3 GLC5        0.0000 
     77 CA         44.9210    5.8010  -10.3400 C.3       6 GLP5        0.0000 
     78 CA         49.6649    5.7791   -9.6224 C.3       3 GLC5        0.0000 
     79 CA         50.9550    7.2490  -10.8110 C.3       9 GLL5        0.0000 
     80 CA         49.2390    3.9860   -8.7100 C.3       6 GLP5        0.0000 
     81 CA         52.1962    5.8697  -11.3478 C.3       3 GLC5        0.0000 
     82 CA         52.7010    4.2860  -11.9990 C.3       6 GLP5        0.0000 
     83 CA         51.3226    8.9020  -11.9625 C.3       3 GLC5        0.0000 
     84 CA         51.2030   10.1340  -13.4010 C.3       6 GLP5        0.0000 
     85 CA         53.3842    9.7050   -8.3830 C.3       3 GLC5        0.0000 
     86 CA         53.0350   11.6610   -7.5360 C.3       6 GLP5        0.0000 
     87 CA         56.3785    7.2235   -9.8283 C.3       3 GLC5        0.0000 
     88 CA         57.8810    6.9310  -10.9260 C.3       6 GLP5        0.0000 
@<TRIPOS>BOND
@<TRIPOS>SUBSTRUCTURE
     1 ALC1        1 GROUP        1 X    ALC  0     ROOT ALC X 1
     2 SEC2       13 GROUP        1 X    SEC  0     **** SEC X 2
     3 GLC5        6 GROUP        1 X    GLC  0     **** GLC X 6
     4 ALP1        3 GROUP        1 Y    ALP  0     ROOT ALP Y 8
     5 SEP2       15 GROUP        1 Y    SEP  0     **** SEP Y 9
     6 GLP5        8 GROUP        1 Y    GLP  0     **** GLP Y 13
     7 ALL1        2 GROUP        1 Z    ALL  0     ROOT ALL Z 15
     8 SEL2       14 GROUP        1 Z    SEL  0     **** SEL Z 16
     9 GLL5        7 GROUP        1 Z    GLL  0     **** GLL Z 20
@<TRIPOS>SET

