#    Name: 3rbq_GLY_ALA_GLY_ALA_DAO_2_ligand
#    Modification time : Tue Mar 25 11:20:25 2014

@<TRIPOS>MOLECULE
3rbq_GLY_ALA_GLY_ALA_DAO_2_ligand
   71    70     5     0     0
SMALL
NO_CHARGES


@<TRIPOS>ATOM
      1 N          45.3850   14.0650   -8.5300 N.am      1 GLY501      0.0000
      2 CA         44.4300   14.9420   -7.8170 C.3       1 GLY501      0.0000
      3 C          43.1210   15.1530   -8.5230 C.2       1 GLY501      0.0000
      4 O          42.1330   15.5830   -7.8670 O.2       1 GLY501      0.0000
      5 HNCA       46.2044   14.4132   -8.9135 H         1 GLY501      0.0000
      6 HA2        44.9008   15.9353   -7.6361 H         1 GLY501      0.0000
      7 HA3        44.2250   14.5238   -6.8050 H         1 GLY501      0.0000
      8 N          43.0900   14.8480   -9.8190 N.am      2 ALA502      0.0000
      9 CA         41.8420   14.9080  -10.6000 C.3       2 ALA502      0.0000
     10 C          40.7650   13.9360  -10.0520 C.2       2 ALA502      0.0000
     11 O          39.5550   14.1800  -10.1740 O.2       2 ALA502      0.0000
     12 CB         42.1240   14.6680  -12.1320 C.3       2 ALA502      0.0000
     13 H          43.9341   14.5537  -10.3477 H         2 ALA502      0.0000
     14 HA         41.4212   15.9284  -10.5262 H         2 ALA502      0.0000
     15 HB1        42.7433   15.3572  -12.5081 H         2 ALA502      0.0000
     16 HB2        42.5438   13.7755  -12.2970 H         2 ALA502      0.0000
     17 HB3        41.2842   14.7016  -12.6739 H         2 ALA502      0.0000
     18 N          41.2030   12.8670   -9.4060 N.am      3 GLY503      0.0000
     19 CA         40.2570   12.0000   -8.6740 C.3       3 GLY503      0.0000
     20 C          39.4510   12.6720   -7.5250 C.2       3 GLY503      0.0000
     21 O          38.4570   12.1270   -7.1120 O.2       3 GLY503      0.0000
     22 HNCA       42.1910   12.5811   -9.3725 H         3 GLY503      0.0000
     23 HA2        40.7957   11.1283   -8.2318 H         3 GLY503      0.0000
     24 HA3        39.5155   11.5559   -9.3800 H         3 GLY503      0.0000
     25 N          39.8300   13.8350   -7.0340 N.am      4 ALA504      0.0000
     26 CA         39.0650   14.4340   -5.9540 C.3       4 ALA504      0.0000
     27 C          37.7100   15.0400   -6.4440 C.2       4 ALA504      0.0000
     28 O          36.7260   14.8450   -5.7200 O.2       4 ALA504      0.0000
     29 CB         39.8650   15.4630   -5.2630 C.3       4 ALA504      0.0000
     30 H          40.6467   14.3600   -7.3685 H         4 ALA504      0.0000
     31 HA         38.8005   13.6552   -5.2175 H         4 ALA504      0.0000
     32 H          37.7973   15.5354   -7.3211 H         4 ALA504      0.0000
     33 HB1        40.7009   15.0810   -4.8690 H         4 ALA504      0.0000
     34 HB2        40.1421   16.1967   -5.8834 H         4 ALA504      0.0000
     35 HB3        39.3561   15.8885   -4.5147 H         4 ALA504      0.0000
     36 O1         43.9260   12.2340   -8.1890 O.co2     5 DAO500      0.0000
     37 C1         45.0050   12.6650   -8.6090 C.2       5 DAO500      0.0000
     38 C2         46.0270   11.8500   -9.3900 C.3       5 DAO500      0.0000
     39 C3         46.1550   10.3970   -8.9750 C.3       5 DAO500      0.0000
     40 C4         47.1770    9.7580   -9.9090 C.3       5 DAO500      0.0000
     41 C5         47.5200    8.3600   -9.4170 C.3       5 DAO500      0.0000
     42 C6         48.4950    7.6760  -10.3960 C.3       5 DAO500      0.0000
     43 C7         49.9580    8.1150  -10.1210 C.3       5 DAO500      0.0000
     44 C8         50.9550    7.2490  -10.8110 C.3       5 DAO500      0.0000
     45 C9         52.4280    7.6580  -10.5820 C.3       5 DAO500      0.0000
     46 C10        52.9730    7.6420   -9.1640 C.3       5 DAO500      0.0000
     47 C11        54.4940    7.8560   -9.2960 C.3       5 DAO500      0.0000
     48 C12        55.2580    7.1760   -8.1650 C.3       5 DAO500      0.0000
     49 H          47.0193   12.3400   -9.2961 H         5 DAO500      0.0000
     50 H          45.7679   11.8947  -10.4690 H         5 DAO500      0.0000
     51 H          45.2086    9.9014   -9.0860 H         5 DAO500      0.0000
     52 H          46.5078   10.3368   -7.9623 H         5 DAO500      0.0000
     53 H          48.0760   10.3658   -9.9277 H         5 DAO500      0.0000
     54 H          46.7609    9.6976  -10.9095 H         5 DAO500      0.0000
     55 H          46.6156    7.7641   -9.3482 H         5 DAO500      0.0000
     56 H          47.9882    8.4205   -8.4399 H         5 DAO500      0.0000
     57 H          48.2318    7.9481  -11.4131 H         5 DAO500      0.0000
     58 H          48.4235    6.5993  -10.2799 H         5 DAO500      0.0000
     59 H          50.1187    8.0919   -9.0349 H         5 DAO500      0.0000
     60 H          50.0650    9.1573  -10.4498 H         5 DAO500      0.0000
     61 H          50.7684    7.2517  -11.9024 H         5 DAO500      0.0000
     62 H          50.8393    6.1991  -10.4788 H         5 DAO500      0.0000
     63 H          52.5692    8.6849  -11.0120 H         5 DAO500      0.0000
     64 H          53.0703    6.9985  -11.2237 H         5 DAO500      0.0000
     65 H          52.7899    6.6928   -8.7109 H         5 DAO500      0.0000
     66 H          52.5530    8.4454   -8.6001 H         5 DAO500      0.0000
     67 H          54.7009    8.9272   -9.2821 H         5 DAO500      0.0000
     68 H          54.8244    7.4503  -10.2534 H         5 DAO500      0.0000
     69 H          56.2451    7.3123   -8.2491 H         5 DAO500      0.0000
     70 H          54.9885    7.5300   -7.2694 H         5 DAO500      0.0000
     71 H          55.0986    6.1889   -8.1501 H         5 DAO500      0.0000
@<TRIPOS>BOND
     1    2    1 1
     2    5    1 1
     3    3    2 1
     4    6    2 1
     5    7    2 1
     6    4    3 2
     7    9    8 1
     8   13    8 1
     9   10    9 1
    10   12    9 1
    11   14    9 1
    12   11   10 2
    13   15   12 1
    14   16   12 1
    15   17   12 1
    16   19   18 1
    17   22   18 1
    18   20   19 1
    19   23   19 1
    20   24   19 1
    21   21   20 2
    22   26   25 1
    23   30   25 1
    24   27   26 1
    25   29   26 1
    26   31   26 1
    27   28   27 2
    28   32   27 1
    29   33   29 1
    30   34   29 1
    31   35   29 1
    32   37   36 ar
    33   38   37 1
    34   39   38 1
    35   49   38 1
    36   50   38 1
    37   40   39 1
    38   51   39 1
    39   52   39 1
    40   41   40 1
    41   53   40 1
    42   54   40 1
    43   42   41 1
    44   55   41 1
    45   56   41 1
    46   43   42 1
    47   57   42 1
    48   58   42 1
    49   44   43 1
    50   59   43 1
    51   60   43 1
    52   45   44 1
    53   61   44 1
    54   62   44 1
    55   46   45 1
    56   63   45 1
    57   64   45 1
    58   47   46 1
    59   65   46 1
    60   66   46 1
    61   48   47 1
    62   67   47 1
    63   68   47 1
    64   69   48 1
    65   70   48 1
    66   71   48 1
    67   37    1 1 
    68    8    3 am
    69   18   10 am
    70   25   20 am
@<TRIPOS>SUBSTRUCTURE
     1 GLY501      1 RESIDUE
     2 ALA502      8 RESIDUE
     3 GLY503     18 RESIDUE
     4 ALA504     25 RESIDUE
     5 DAO500     36 GROUP
@<TRIPOS>SET

