#    Name: 3lt4_FB4_2_INTS_M
#    Modification time : Mon Mar 24 22:16:01 2014

@<TRIPOS>MOLECULE
3lt4_FB4_2_INTS_M
   61     0     9     0     0
SMALL
NO_CHARGES


@<TRIPOS>ATOM
      1 CA         16.0555   96.6670   24.7885 C.3       3 GLC5        0.0000 
      2 CA         14.0710   96.3230   24.9680 C.3       9 GLL5        0.0000 
      3 CA         18.0400   97.0110   24.6090 C.3       6 GLP5        0.0000 
      4 CA         10.2735   94.5825   25.7720 C.3       3 GLC5        0.0000 
      5 CA         11.9440   95.1920   25.3660 C.3       9 GLL5        0.0000 
      6 CA          8.6030   93.9730   26.1780 C.3       6 GLP5        0.0000 
      7 CA          9.7220   95.7715   25.7865 C.3       3 GLC5        0.0000 
      8 CA         11.4620   96.3340   26.0030 C.3       9 GLL5        0.0000 
      9 CA          7.9820   95.2090   25.5700 C.3       6 GLP5        0.0000 
     10 CA          9.7475  103.7140   26.0600 C.3       3 GLC5        0.0000 
     11 CA          9.8710  101.5700   26.1300 C.3       9 GLL5        0.0000 
     12 CA          9.6240  105.8580   25.9900 C.3       6 GLP5        0.0000 
     13 CA         10.0545  100.8290   22.0830 C.3       3 GLC5        0.0000 
     14 CA         10.5350  100.5610   23.9850 C.3       9 GLL5        0.0000 
     15 CA          9.5740  101.0970   20.1810 C.3       6 GLP5        0.0000 
     16 CA         15.4700   93.6505   23.1075 C.3       3 GLC5        0.0000 
     17 CA         13.8960   93.7240   24.0430 C.3       9 GLL5        0.0000 
     18 CA         17.0440   93.5770   22.1720 C.3       6 GLP5        0.0000 
     19 CA         14.1615   91.9450   25.3130 C.3       3 GLC5        0.0000 
     20 CA         14.4270   90.1660   26.5830 C.3       6 GLP5        0.0000 
     21 CA         12.8375   93.7495   22.4215 C.3       3 GLC5        0.0000 
     22 CA         11.7790   93.7750   20.8000 C.3       6 GLP5        0.0000 
     23 CA         12.3590   92.5845   24.3860 C.3       3 GLC5        0.0000 
     24 CA         10.8220   91.4450   24.7290 C.3       6 GLP5        0.0000 
     25 CA         14.6645   94.1605   25.7530 C.3       3 GLC5        0.0000 
     26 CA         15.4330   94.5970   27.4630 C.3       6 GLP5        0.0000 
     27 CA          9.3160  104.3385   24.9150 C.3       3 GLC5        0.0000 
     28 CA          9.0080  102.8190   23.8400 C.3       9 GLL5        0.0000 
     29 CA          9.6570  104.2775   22.6990 C.3       3 GLC5        0.0000 
     30 CA         10.3060  105.7360   21.5580 C.3       6 GLP5        0.0000 
     31 CA          8.8015  102.5435   21.9155 C.3       3 GLC5        0.0000 
     32 CA          8.5950  102.2680   19.9910 C.3       6 GLP5        0.0000 
     33 CA         10.8910  102.9040   22.8005 C.3       3 GLC5        0.0000 
     34 CA         12.7740  102.9890   21.7610 C.3       6 GLP5        0.0000 
     35 O          11.0395   99.6215   29.5250 O.2       1 ALC1        0.0000 
     36 O          10.5480  100.5470   28.1680 O.2       7 ALL1        0.0000 
     37 O          11.5310   98.6960   30.8820 O.2       4 ALP1        0.0000 
     38 N          14.5110   99.2900   26.7545 N.am      2 SEC2        0.0000 
     39 N          14.3610   98.5880   25.7260 N.am      8 SEL2        0.0000 
     40 N          14.6610   99.9920   27.7830 N.am      5 SEP2        0.0000 
     41 O          14.9160   99.1255   24.7285 O.2       1 ALC1        0.0000 
     42 O          14.3610   98.5880   25.7260 O.2       7 ALL1        0.0000 
     43 O          15.4710   99.6630   23.7310 O.2       4 ALP1        0.0000 
     44 CA         11.0767   96.9188   24.1285 C.3       3 GLC5        0.0000 
     45 CA         12.2910   97.4570   26.1070 C.3       9 GLL5        0.0000 
     46 CA         10.2770   96.9420   22.2020 C.3       6 GLP5        0.0000 
     47 CA         13.4922   98.3738   27.3590 C.3       3 GLC5        0.0000 
     48 CA         14.0460   99.2870   28.8640 C.3       6 GLP5        0.0000 
     49 CA         11.4367   96.0667   23.6573 C.3       3 GLC5        0.0000 
     50 CA         13.2490   95.1910   24.8590 C.3       9 GLL5        0.0000 
     51 CA         11.7092   93.3183   24.9207 C.3       3 GLC5        0.0000 
     52 CA         12.4518   99.6733   27.6495 C.3       3 GLC5        0.0000 
     53 CA         10.5290  100.5560   26.8060 C.3       9 GLL5        0.0000 
     54 CA         11.6111  102.0624   26.9622 C.3       3 GLC5        0.0000 
     55 CA         11.1860   99.5630   26.0640 C.3       9 GLL5        0.0000 
     56 CA         12.8580  103.3100   27.6420 C.3       6 GLP5        0.0000 
     57 CA          8.9956   99.8699   27.1962 C.3       3 GLC5        0.0000 
     58 CA          7.6270   98.9250   28.1100 C.3       6 GLP5        0.0000 
     59 CA         11.4897  102.0208   23.0595 C.3       3 GLC5        0.0000 
     60 CA          9.8760  101.5440   24.7310 C.3       9 GLL5        0.0000 
     61 CA         10.5705   98.5002   23.2643 C.3       3 GLC5        0.0000 
@<TRIPOS>BOND
@<TRIPOS>SUBSTRUCTURE
     1 ALC1       35 GROUP        1 X    ALC  0     ROOT ALC X 1
     2 SEC2       38 GROUP        1 X    SEC  0     **** SEC X 2
     3 GLC5        1 GROUP        1 X    GLC  0     **** GLC X 6
     4 ALP1       37 GROUP        1 Y    ALP  0     ROOT ALP Y 8
     5 SEP2       40 GROUP        1 Y    SEP  0     **** SEP Y 9
     6 GLP5        3 GROUP        1 Y    GLP  0     **** GLP Y 13
     7 ALL1       36 GROUP        1 Z    ALL  0     ROOT ALL Z 15
     8 SEL2       39 GROUP        1 Z    SEL  0     **** SEL Z 16
     9 GLL5        2 GROUP        1 Z    GLL  0     **** GLL Z 20
@<TRIPOS>SET

