#    Name: 3lt4_FB4_2_ligand
#    Modification time : Mon Mar 24 22:16:01 2014

@<TRIPOS>MOLECULE
3lt4_FB4_2_ligand
   26    27     1     0     0
SMALL
NO_CHARGES


@<TRIPOS>ATOM
      1 C1         12.2910   97.4570   26.1070 C.ar      1 FB4602      0.0000 
      2 C2         13.5860   97.4640   25.6010 C.ar      1 FB4602      0.0000 
      3 C3         14.0710   96.3230   24.9680 C.ar      1 FB4602      0.0000 
      4 C4         13.2490   95.1910   24.8590 C.ar      1 FB4602      0.0000 
      5 C5         11.9440   95.1920   25.3660 C.ar      1 FB4602      0.0000 
      6 C6         11.4620   96.3340   26.0030 C.ar      1 FB4602      0.0000 
      7 O7         11.8410   98.5810   26.7360 O.3       1 FB4602      0.0000 
      8 C8         11.1860   99.5630   26.0640 C.ar      1 FB4602      0.0000 
      9 C9         10.5290  100.5560   26.8060 C.ar      1 FB4602      0.0000 
     10 C10         9.8710  101.5700   26.1300 C.ar      1 FB4602      0.0000 
     11 C11         9.8760  101.5440   24.7310 C.ar      1 FB4602      0.0000 
     12 C12        10.5350  100.5610   23.9850 C.ar      1 FB4602      0.0000 
     13 C13        11.1930   99.5560   24.6680 C.ar      1 FB4602      0.0000 
     14 CL14       13.8960   93.7240   24.0430 Cl        1 FB4602      0.0000 
     15 CL15        9.0080  102.8190   23.8400 Cl        1 FB4602      0.0000 
     16 N16        10.5480  100.5470   28.1680 N.pl3     1 FB4602      0.0000 
     17 O17        14.3610   98.5880   25.7260 O.3       1 FB4602      0.0000 
     18 H          15.0183   96.3049   24.5837 H         1 FB4602      0.0000 
     19 H          11.3545   94.3642   25.2687 H         1 FB4602      0.0000 
     20 H          10.5181   96.3539   26.3892 H         1 FB4602      0.0000 
     21 H           9.3959  102.3151   26.6299 H         1 FB4602      0.0000 
     22 H          10.5254  100.5922   22.9701 H         1 FB4602      0.0000 
     23 H          11.6816   98.8124   24.1623 H         1 FB4602      0.0000 
     24 H          10.0409  101.2809   28.6200 H         1 FB4602      0.0000 
     25 H          11.0673   99.8073   28.5959 H         1 FB4602      0.0000 
     26 H          14.3957   98.9818   24.8074 H         1 FB4602      0.0000 
@<TRIPOS>BOND
     1    2    1 ar   
     2    6    1 ar   
     3    7    1 1    
     4    3    2 ar   
     5   17    2 1    
     6    4    3 ar   
     7   18    3 1    
     8    5    4 ar   
     9   14    4 1    
    10    6    5 ar   
    11   19    5 1    
    12   20    6 1    
    13    8    7 1    
    14    9    8 ar   
    15   13    8 ar   
    16   10    9 ar   
    17   16    9 1    
    18   11   10 ar   
    19   21   10 1    
    20   12   11 ar   
    21   15   11 1    
    22   13   12 ar   
    23   22   12 1    
    24   23   13 1    
    25   24   16 1    
    26   25   16 1    
    27   26   17 1    
@<TRIPOS>SUBSTRUCTURE
     1 FB4602      1 GROUP   
@<TRIPOS>SET

