#    Name: 3S8P_1_CAVITY_N1_6.mol2
#    Modification time : Mon Mar 10 23:09:04 2014

@<TRIPOS>MOLECULE
3S8P_1_CAVITY_N1_6.mol2
  115     0     6     0     0
SMALL
NO_CHARGES


@<TRIPOS>ATOM
      1 N          17.7944   51.7565   -3.4912 N.2       2 ALA2        0.0000 
      2 OG         17.0621   53.0633   -3.4145 O.2       1 SER1        0.0000 
      3 OG         16.3299   54.3702   -3.3379 O.2       1 SER1        0.0000 
      4 N          17.0612   51.4199   -4.7558 N.2       2 ALA2        0.0000 
      5 N          16.3290   52.7267   -4.6791 N.2       2 ALA2        0.0000 
      6 CA         15.5968   54.0336   -4.6025 C.3       5 GLY6        0.0000 
      7 CA         16.3281   51.0833   -6.0204 C.3       5 GLY6        0.0000 
      8 CA         15.5958   52.3901   -5.9437 C.3       5 GLY6        0.0000 
      9 CZ         16.7098   51.1017   -2.6881 C.ar      4 PHE5        0.0000 
     10 OG         15.9776   52.4086   -2.6114 O.2       1 SER1        0.0000 
     11 CZ         15.9766   50.7651   -3.9527 C.ar      4 PHE5        0.0000 
     12 OG         15.2444   52.0720   -3.8760 O.2       1 SER1        0.0000 
     13 CZ         14.5113   51.7354   -5.1406 C.ar      4 PHE5        0.0000 
     14 CA         13.7790   53.0422   -5.0640 C.3       5 GLY6        0.0000 
     15 CA         14.5103   50.0919   -6.4819 C.3       5 GLY6        0.0000 
     16 CZ         15.6252   50.4469   -1.8850 C.ar      4 PHE5        0.0000 
     17 CZ         13.4267   51.0806   -4.3376 C.ar      4 PHE5        0.0000 
     18 OG         12.6944   52.3875   -4.2609 O.2       1 SER1        0.0000 
     19 CZ         13.4258   49.4371   -5.6788 C.ar      4 PHE5        0.0000 
     20 CZ         12.6935   50.7440   -5.6022 C.ar      4 PHE5        0.0000 
     21 DU         11.9613   52.0509   -5.5255 H         6 CUB7        0.0000 
     22 DU         11.2291   53.3577   -5.4488 H         6 CUB7        0.0000 
     23 N          11.9604   50.4074   -6.8668 N.2       2 ALA2        0.0000 
     24 CZ         16.0060   48.8218    0.1060 C.ar      4 PHE5        0.0000 
     25 CA         15.2738   50.1287    0.1826 C.3       5 GLY6        0.0000 
     26 OG         14.5415   51.4356    0.2593 O.2       1 SER1        0.0000 
     27 CZ         14.5406   49.7921   -1.0820 C.ar      4 PHE5        0.0000 
     28 OG         13.0752   50.7624   -2.2699 O.2       1 SER1        0.0000 
     29 CZ         12.3421   50.4258   -3.5345 C.ar      4 PHE5        0.0000 
     30 OG         11.6099   51.7327   -3.4578 O.2       1 SER1        0.0000 
     31 OG         10.8776   53.0396   -3.3812 O.2       1 SER1        0.0000 
     32 N          10.1454   54.3464   -3.3045 N.2       2 ALA2        0.0000 
     33 CZ         11.6089   50.0892   -4.7991 C.ar      4 PHE5        0.0000 
     34 DU         10.8767   51.3961   -4.7224 H         6 CUB7        0.0000 
     35 NZ         10.1445   52.7030   -4.6458 N.2       3 LYS4        0.0000 
     36 N          10.8758   49.7526   -6.0637 N.2       2 ALA2        0.0000 
     37 DU         10.1436   51.0595   -5.9870 H         6 CUB7        0.0000 
     38 NZ          9.4113   52.3664   -5.9104 N.2       3 LYS4        0.0000 
     39 CZ         15.6546   48.5036    2.1736 C.ar      4 PHE5        0.0000 
     40 CZ         14.9214   48.1670    0.9090 C.ar      4 PHE5        0.0000 
     41 CZ         14.1892   49.4739    0.9857 C.ar      4 PHE5        0.0000 
     42 OG         13.4569   50.7808    1.0624 O.2       1 SER1        0.0000 
     43 OG         12.7247   52.0877    1.1390 O.2       1 SER1        0.0000 
     44 CZ         14.1883   47.8304   -0.3555 C.ar      4 PHE5        0.0000 
     45 CZ         13.4560   49.1373   -0.2789 C.ar      4 PHE5        0.0000 
     46 OG         12.7238   50.4442   -0.2022 O.2       1 SER1        0.0000 
     47 OG         11.9916   51.7511   -0.1256 O.2       1 SER1        0.0000 
     48 N          11.2593   53.0580   -0.0489 N.2       2 ALA2        0.0000 
     49 CZ         12.7229   48.8007   -1.5435 C.ar      4 PHE5        0.0000 
     50 OG         11.9906   50.1076   -1.4668 O.2       1 SER1        0.0000 
     51 OG         11.2584   51.4145   -1.3902 O.2       1 SER1        0.0000 
     52 OG         10.5262   52.7214   -1.3135 O.2       1 SER1        0.0000 
     53 N           9.7939   54.0283   -1.2369 N.2       2 ALA2        0.0000 
     54 N           9.0617   55.3351   -1.1602 N.2       2 ALA2        0.0000 
     55 CZ         11.2575   49.7710   -2.7314 C.ar      4 PHE5        0.0000 
     56 CA         10.5253   51.0779   -2.6548 C.3       5 GLY6        0.0000 
     57 DU          9.7930   52.3848   -2.5781 H         6 CUB7        0.0000 
     58 N           9.0608   53.6917   -2.5014 N.2       2 ALA2        0.0000 
     59 CZ         10.5244   49.4344   -3.9960 C.ar      4 PHE5        0.0000 
     60 NZ          9.7921   50.7413   -3.9194 N.2       3 LYS4        0.0000 
     61 NZ          9.0599   52.0482   -3.8427 N.2       3 LYS4        0.0000 
     62 CZ          9.7912   49.0978   -5.2606 C.ar      4 PHE5        0.0000 
     63 NZ          9.0590   50.4047   -5.1839 N.2       3 LYS4        0.0000 
     64 N          13.8377   49.1557    3.0534 N.2       2 ALA2        0.0000 
     65 N          13.8368   47.5122    1.7121 N.2       2 ALA2        0.0000 
     66 N          13.1046   48.8191    1.7888 N.2       2 ALA2        0.0000 
     67 NZ         12.3724   50.1260    1.8654 N.2       3 LYS4        0.0000 
     68 CA          9.4434   55.3535    2.1721 C.3       5 GLY6        0.0000 
     69 CZ         13.1037   47.1756    0.4475 C.ar      4 PHE5        0.0000 
     70 CZ         12.3714   48.4825    0.5242 C.ar      4 PHE5        0.0000 
     71 DU         11.6392   49.7894    0.6008 H         6 CUB7        0.0000 
     72 CA         10.9070   51.0963    0.6775 C.3       5 GLY6        0.0000 
     73 CA         10.1747   52.4032    0.7542 C.3       5 GLY6        0.0000 
     74 N           9.4425   53.7101    0.8308 N.2       2 ALA2        0.0000 
     75 N           8.7103   55.0169    0.9075 N.2       2 ALA2        0.0000 
     76 CZ         11.6383   48.1459   -0.7404 C.ar      4 PHE5        0.0000 
     77 N          10.9061   49.4528   -0.6638 N.2       2 ALA2        0.0000 
     78 CA         10.1738   50.7597   -0.5871 C.3       5 GLY6        0.0000 
     79 CA          9.4416   52.0666   -0.5104 C.3       5 GLY6        0.0000 
     80 CA          8.7094   53.3735   -0.4338 C.3       5 GLY6        0.0000 
     81 N           7.9771   54.6804   -0.3571 N.2       2 ALA2        0.0000 
     82 N          10.1729   49.1162   -1.9283 N.2       2 ALA2        0.0000 
     83 CA          8.7084   51.7300   -1.7750 C.3       5 GLY6        0.0000 
     84 N           7.9762   53.0369   -1.6984 N.2       2 ALA2        0.0000 
     85 CA          8.7075   50.0865   -3.1163 C.3       5 GLY6        0.0000 
     86 N           9.0920   55.0354    4.2397 N.2       2 ALA2        0.0000 
     87 N           8.3597   56.3422    4.3164 N.2       2 ALA2        0.0000 
     88 N          12.0200   48.1643    2.5919 N.2       2 ALA2        0.0000 
     89 NZ         11.2878   49.4712    2.6685 N.2       3 LYS4        0.0000 
     90 NZ          9.0911   53.3919    2.8985 N.2       3 LYS4        0.0000 
     91 CA          8.3588   54.6988    2.9751 C.3       5 GLY6        0.0000 
     92 OG         11.2869   47.8277    1.3273 O.2       1 SER1        0.0000 
     93 CA         10.5546   49.1346    1.4039 C.3       5 GLY6        0.0000 
     94 CA          9.8224   50.4415    1.4806 C.3       5 GLY6        0.0000 
     95 CA          9.0902   51.7484    1.5572 C.3       5 GLY6        0.0000 
     96 CA          8.3579   53.0553    1.6339 C.3       5 GLY6        0.0000 
     97 CZ          7.6257   54.3622    1.7105 C.ar      4 PHE5        0.0000 
     98 N           6.8925   54.0256    0.4460 N.2       2 ALA2        0.0000 
     99 NZ         10.9363   49.1530    4.7362 N.2       3 LYS4        0.0000 
    100 NZ          8.7396   53.0737    4.9661 N.2       3 LYS4        0.0000 
    101 CA          8.0074   54.3806    5.0428 C.3       5 GLY6        0.0000 
    102 N           7.2752   55.6875    5.1195 N.2       2 ALA2        0.0000 
    103 N          10.9354   47.5095    3.3949 N.2       2 ALA2        0.0000 
    104 NZ         10.2032   48.8164    3.4716 N.2       3 LYS4        0.0000 
    105 NZ          9.4709   50.1233    3.5482 N.2       3 LYS4        0.0000 
    106 NZ          8.7387   51.4302    3.6249 N.2       3 LYS4        0.0000 
    107 CA          8.0065   52.7371    3.7016 C.3       5 GLY6        0.0000 
    108 CA          7.2742   54.0440    3.7782 C.3       5 GLY6        0.0000 
    109 CA          6.5420   55.3509    3.8549 C.3       5 GLY6        0.0000 
    110 N           9.4700   48.4798    2.2070 N.2       2 ALA2        0.0000 
    111 CZ          7.2733   52.4005    2.4370 C.ar      4 PHE5        0.0000 
    112 CZ          6.5411   53.7074    2.5136 C.ar      4 PHE5        0.0000 
    113 N           9.1186   48.1616    4.2747 N.2       2 ALA2        0.0000 
    114 NZ         18.1467   53.7181   -4.2176 N.2       3 LYS4        0.0000 
    115 CA         17.4136   53.3815   -5.4822 C.3       5 GLY6        0.0000 
@<TRIPOS>BOND
@<TRIPOS>SUBSTRUCTURE
     1 SER1        2 GROUP   
     2 ALA2        1 GROUP   
     3 LYS4       35 GROUP   
     4 PHE5        9 GROUP   
     5 GLY6        6 GROUP   
     6 CUB7       21 GROUP   
@<TRIPOS>SET

