#    Name: 3s8p_SAM_1_INTS_M
#    Modification time : Tue Mar 25 12:20:38 2014

@<TRIPOS>MOLECULE
3s8p_SAM_1_INTS_M
   71     0    12     0     0
SMALL
NO_CHARGES


@<TRIPOS>ATOM
      1 OD1        11.9730   50.8625    4.8030 O.co2     3 ASC3        0.0000 
      2 OD1        12.4070   49.5080    5.5110 O.co2    11 ASL3        0.0000 
      3 OD1        11.5390   52.2170    4.0950 O.co2     7 ASP3        0.0000 
      4 OD1        12.9925   50.7185    5.1595 O.co2     3 ASC3        0.0000 
      5 OD1        13.5780   51.9290    4.8080 O.co2     7 ASP3        0.0000 
      6 O          11.9730   50.8625    4.8030 O.2       1 ALC1        0.0000 
      7 O          12.4070   49.5080    5.5110 O.2       9 ALL1        0.0000 
      8 O          11.5390   52.2170    4.0950 O.2       5 ALP1        0.0000 
      9 O          12.9925   50.7185    5.1595 O.2       1 ALC1        0.0000 
     10 O          13.5780   51.9290    4.8080 O.2       5 ALP1        0.0000 
     11 O          12.6830   49.1865    6.8560 O.2       1 ALC1        0.0000 
     12 O          12.9590   48.8650    8.2010 O.2       5 ALP1        0.0000 
     13 O          13.1765   48.3945    5.1675 O.2       1 ALC1        0.0000 
     14 O          13.9460   47.2810    4.8240 O.2       5 ALP1        0.0000 
     15 N          11.1410   50.9555    7.8110 N.am      2 SEC2        0.0000 
     16 N          10.2970   50.6130    6.8020 N.am     10 SEL2        0.0000 
     17 N          11.9850   51.2980    8.8200 N.am      6 SEP2        0.0000 
     18 N           7.7060   50.0620    5.2500 N.am      2 SEC2        0.0000 
     19 N           9.0020   50.4770    5.0040 N.am     10 SEL2        0.0000 
     20 N           6.4100   49.6470    5.4960 N.am      6 SEP2        0.0000 
     21 CA          7.2085   45.9575    1.4825 C.3       4 GLC5        0.0000 
     22 CA          8.9900   46.0890    2.0480 C.3      12 GLL5        0.0000 
     23 CA          5.4270   45.8260    0.9170 C.3       8 GLP5        0.0000 
     24 CA         10.5970   45.0480    1.3730 C.3       4 GLC5        0.0000 
     25 CA         12.2040   44.0070    0.6980 C.3       8 GLP5        0.0000 
     26 CA         11.5355   46.2375    0.3685 C.3       4 GLC5        0.0000 
     27 CA         10.7900   47.7980    1.2460 C.3      12 GLL5        0.0000 
     28 CA         12.2810   44.6770   -0.5090 C.3       8 GLP5        0.0000 
     29 CA          9.4590   49.7490    0.7465 C.3       4 GLC5        0.0000 
     30 CA         11.4030   49.2060    1.2380 C.3      12 GLL5        0.0000 
     31 CA          7.5150   50.2920    0.2550 C.3       8 GLP5        0.0000 
     32 CA         14.9180   51.3940    1.1760 C.3       4 GLC5        0.0000 
     33 CA         13.1190   50.5230    0.2060 C.3      12 GLL5        0.0000 
     34 CA         16.7170   52.2650    2.1460 C.3       8 GLP5        0.0000 
     35 O          13.1860   52.5305   -0.4385 O.2       1 ALC1        0.0000 
     36 O          12.6600   51.8160    0.5940 O.2       9 ALL1        0.0000 
     37 O          13.7120   53.2450   -1.4710 O.2       5 ALP1        0.0000 
     38 CA         15.1185   50.1465    2.6470 C.3       4 GLC5        0.0000 
     39 CA         13.6560   49.8970    1.4770 C.3      12 GLL5        0.0000 
     40 CA         16.5810   50.3960    3.8170 C.3       8 GLP5        0.0000 
     41 N          15.5355   45.3550    1.6960 N.am      2 SEC2        0.0000 
     42 N          15.6550   46.8340    1.3080 N.am     10 SEL2        0.0000 
     43 N          15.4160   43.8760    2.0840 N.am      6 SEP2        0.0000 
     44 CA         18.7725   46.3775   -1.7665 C.3       4 GLC5        0.0000 
     45 CA         17.4990   47.3690   -0.4510 C.3      12 GLL5        0.0000 
     46 CA         20.0460   45.3860   -3.0820 C.3       8 GLP5        0.0000 
     47 CA         19.4960   48.2970   -0.9010 C.3       4 GLC5        0.0000 
     48 CA         21.4930   49.2250   -1.3510 C.3       8 GLP5        0.0000 
     49 O          18.1415   45.0645    0.4425 O.2       1 ALC1        0.0000 
     50 O          18.1430   46.1840   -0.4010 O.2       9 ALL1        0.0000 
     51 O          18.1400   43.9450    1.2860 O.2       5 ALP1        0.0000 
     52 N          19.2440   48.5150   -1.8125 N.am      2 SEC2        0.0000 
     53 N          17.8970   48.3780   -1.2560 N.am     10 SEL2        0.0000 
     54 N          20.5910   48.6520   -2.3690 N.am      6 SEP2        0.0000 
     55 CA         16.9835   50.9190    0.4325 C.3       4 GLC5        0.0000 
     56 CA         17.2500   49.5730   -1.2810 C.3      12 GLL5        0.0000 
     57 CA         19.0795   50.0575   -1.0415 C.3       4 GLC5        0.0000 
     58 CA         20.9090   50.5420   -0.8020 C.3       8 GLP5        0.0000 
     59 CA         16.1850   50.5780    1.2335 C.3       4 GLC5        0.0000 
     60 CA         15.6530   48.8910    0.3210 C.3      12 GLL5        0.0000 
     61 CA          9.8968   46.4778    5.9943 C.3       4 GLC5        0.0000 
     62 CA         10.7470   47.0830    3.8220 C.3      12 GLL5        0.0000 
     63 CA          9.1360   45.4750    7.5140 C.3       8 GLP5        0.0000 
     64 CA          8.8912   48.9680    1.0717 C.3       4 GLC5        0.0000 
     65 CA          9.7450   47.4900    2.5310 C.3      12 GLL5        0.0000 
     66 CA         13.6960   49.0132   -1.4615 C.3       4 GLC5        0.0000 
     67 CA         11.9610   49.6040   -0.1260 C.3      12 GLL5        0.0000 
     68 CA         14.8520   47.9630   -2.9630 C.3       8 GLP5        0.0000 
     69 CA         16.2622   45.4610   -0.1760 C.3       4 GLC5        0.0000 
     70 CA         16.3240   47.5850    0.4150 C.3      12 GLL5        0.0000 
     71 CA         15.6130   43.4450   -0.3340 C.3       8 GLP5        0.0000 
@<TRIPOS>BOND
@<TRIPOS>SUBSTRUCTURE
     1 ALC1        6 GROUP        1 X    ALC  0     ROOT ALC X 1
     2 SEC2       15 GROUP        1 X    SEC  0     **** SEC X 2
     3 ASC3        1 GROUP        1 X    ASC  0     **** ASC X 3
     4 GLC5       21 GROUP        1 X    GLC  0     **** GLC X 6
     5 ALP1        8 GROUP        1 Y    ALP  0     ROOT ALP Y 8
     6 SEP2       17 GROUP        1 Y    SEP  0     **** SEP Y 9
     7 ASP3        3 GROUP        1 Y    ASP  0     **** ASP Y 10
     8 GLP5       23 GROUP        1 Y    GLP  0     **** GLP Y 13
     9 ALL1        7 GROUP        1 Z    ALL  0     ROOT ALL Z 15
    10 SEL2       16 GROUP        1 Z    SEL  0     **** SEL Z 16
    11 ASL3        2 GROUP        1 Z    ASL  0     **** ASL Z 17
    12 GLL5       22 GROUP        1 Z    GLL  0     **** GLL Z 20
@<TRIPOS>SET

