#    Name: 3s8p_SAM_1_ligand
#    Modification time : Tue Mar 25 12:20:38 2014

@<TRIPOS>MOLECULE
3s8p_SAM_1_ligand
   50    52     1     0     0
SMALL
NO_CHARGES


@<TRIPOS>ATOM
      1 N          12.4070   49.5080    5.5110 N.4       1 SAM500      0.0000 
      2 CA         11.0520   49.3270    4.9640 C.3       1 SAM500      0.0000 
      3 C          10.0540   50.2100    5.6370 C.2       1 SAM500      0.0000 
      4 O          10.2970   50.6130    6.8020 O.co2     1 SAM500      0.0000 
      5 OXT         9.0020   50.4770    5.0040 O.co2     1 SAM500      0.0000 
      6 CB         10.5680   47.8780    5.1270 C.3       1 SAM500      0.0000 
      7 CG         10.7470   47.0830    3.8220 C.3       1 SAM500      0.0000 
      8 SD          9.7450   47.4900    2.5310 S.3       1 SAM500      0.0000 
      9 CE          8.9900   46.0890    2.0480 C.3       1 SAM500      0.0000 
     10 C5'        10.7900   47.7980    1.2460 C.3       1 SAM500      0.0000 
     11 C4'        11.4030   49.2060    1.2380 C.3       1 SAM500      0.0000 
     12 O4'        12.5400   49.2890    2.1050 O.3       1 SAM500      0.0000 
     13 C3'        11.9610   49.6040   -0.1260 C.3       1 SAM500      0.0000 
     14 O3'        10.9810   50.2310   -0.9500 O.3       1 SAM500      0.0000 
     15 C2'        13.1190   50.5230    0.2060 C.3       1 SAM500      0.0000 
     16 O2'        12.6600   51.8160    0.5940 O.3       1 SAM500      0.0000 
     17 C1'        13.6560   49.8970    1.4770 C.3       1 SAM500      0.0000 
     18 N9         14.6370   48.8230    1.1770 N.pl3     1 SAM500      0.0000 
     19 C8         14.6370   47.6020    1.7640 C.2       1 SAM500      0.0000 
     20 N7         15.6550   46.8340    1.3080 N.2       1 SAM500      0.0000 
     21 C5         16.3240   47.5850    0.4150 C.ar      1 SAM500      0.0000 
     22 C6         17.4990   47.3690   -0.4510 C.ar      1 SAM500      0.0000 
     23 N6         18.1430   46.1840   -0.4010 N.pl3     1 SAM500      0.0000 
     24 N1         17.8970   48.3780   -1.2560 N.ar      1 SAM500      0.0000 
     25 C2         17.2500   49.5730   -1.2810 C.ar      1 SAM500      0.0000 
     26 N3         16.1570   49.8380   -0.5350 N.ar      1 SAM500      0.0000 
     27 C4         15.6530   48.8910    0.3210 C.ar      1 SAM500      0.0000 
     28 H          11.0435   49.5472    3.8986 H         1 SAM500      0.0000 
     29 H           9.5150   47.8812    5.4006 H         1 SAM500      0.0000 
     30 H          11.1390   47.3969    5.9183 H         1 SAM500      0.0000 
     31 H          10.5754   46.0090    3.9922 H         1 SAM500      0.0000 
     32 H          11.7722   47.1914    3.4360 H         1 SAM500      0.0000 
     33 H          10.2004   47.6206    0.3462 H         1 SAM500      0.0000 
     34 H          11.5635   47.0327    1.3138 H         1 SAM500      0.0000 
     35 H          10.6622   49.9274    1.5168 H         1 SAM500      0.0000 
     36 H          12.3737   48.7106   -0.5721 H         1 SAM500      0.0000 
     37 H          13.8348   50.5010   -0.5199 H         1 SAM500      0.0000 
     38 H          14.0867   50.6447    2.0839 H         1 SAM500      0.0000 
     39 H          13.9811   47.3107    2.4358 H         1 SAM500      0.0000 
     40 H          18.6123   45.9026   -1.2380 H         1 SAM500      0.0000 
     41 H          18.0937   45.6927    0.4686 H         1 SAM500      0.0000 
     42 H          17.6263   50.3335   -1.9207 H         1 SAM500      0.0000 
     43 H          13.0726   48.9146    5.0583 H         1 SAM500      0.0000 
     44 H          12.7296   50.4481    5.4005 H         1 SAM500      0.0000 
     45 H          12.4442   49.2983    6.4881 H         1 SAM500      0.0000 
     46 H           9.6476   45.3936    1.7584 H         1 SAM500      0.0000 
     47 H           8.4447   45.6882    2.7842 H         1 SAM500      0.0000 
     48 H           8.3719   46.2467    1.2779 H         1 SAM500      0.0000 
     49 H          11.0300   51.2022   -0.7168 H         1 SAM500      0.0000 
     50 H          12.9676   52.4289   -0.1339 H         1 SAM500      0.0000 
@<TRIPOS>BOND
     1    2    1 1    
     2   43    1 1    
     3   44    1 1    
     4   45    1 1    
     5    3    2 1    
     6    6    2 1    
     7   28    2 1    
     8    4    3 ar   
     9    5    3 ar   
    10    7    6 1    
    11   29    6 1    
    12   30    6 1    
    13    8    7 1    
    14   31    7 1    
    15   32    7 1    
    16    9    8 1    
    17   10    8 1    
    18   46    9 1    
    19   47    9 1    
    20   48    9 1    
    21   11   10 1    
    22   33   10 1    
    23   34   10 1    
    24   12   11 1    
    25   13   11 1    
    26   35   11 1    
    27   17   12 1    
    28   14   13 1    
    29   15   13 1    
    30   36   13 1    
    31   49   14 1    
    32   16   15 1    
    33   17   15 1    
    34   37   15 1    
    35   50   16 1    
    36   18   17 1    
    37   38   17 1    
    38   19   18 1    
    39   27   18 1    
    40   20   19 2    
    41   39   19 1    
    42   21   20 1    
    43   22   21 ar   
    44   27   21 ar   
    45   23   22 1    
    46   24   22 ar   
    47   40   23 1    
    48   41   23 1    
    49   25   24 ar   
    50   26   25 ar   
    51   42   25 1    
    52   27   26 ar   
@<TRIPOS>SUBSTRUCTURE
     1 SAM500      1 GROUP   
@<TRIPOS>SET

