#    Name: 2ivu_ZD6_1_INTS_M
#    Modification time : Tue Mar 25 18:46:23 2014

@<TRIPOS>MOLECULE
2ivu_ZD6_1_INTS_M
   70     0     3     0     0
SMALL
NO_CHARGES


@<TRIPOS>ATOM
      1 CA        -22.6185   15.4075  -13.0850 C.3       1 GLC5        0.0000 
      2 CA        -24.6920   15.9600  -13.5540 C.3       3 GLL5        0.0000 
      3 CA        -20.5450   14.8550  -12.6160 C.3       2 GLP5        0.0000 
      4 CA        -24.9905   15.1180  -15.5670 C.3       1 GLC5        0.0000 
      5 CA        -25.2890   14.2760  -17.5800 C.3       2 GLP5        0.0000 
      6 CA        -24.6645   15.2250   -9.6695 C.3       1 GLC5        0.0000 
      7 CA        -25.5480   15.6720  -11.2810 C.3       3 GLL5        0.0000 
      8 CA        -23.7810   14.7780   -8.0580 C.3       2 GLP5        0.0000 
      9 CA        -23.6390   13.1680  -10.5990 C.3       1 GLC5        0.0000 
     10 CA        -24.3880   13.7520  -12.4290 C.3       3 GLL5        0.0000 
     11 CA        -22.8900   12.5840   -8.7690 C.3       2 GLP5        0.0000 
     12 CA        -22.4920   13.7795  -12.0725 C.3       1 GLC5        0.0000 
     13 CA        -20.5960   13.8070  -11.7160 C.3       2 GLP5        0.0000 
     14 CA        -26.2785   11.5515   -8.5245 C.3       1 GLC5        0.0000 
     15 CA        -27.4580   10.4010   -9.4730 C.3       3 GLL5        0.0000 
     16 CA        -25.0990   12.7020   -7.5760 C.3       2 GLP5        0.0000 
     17 CA        -28.1215   10.5730   -7.6180 C.3       1 GLC5        0.0000 
     18 CA        -28.7850   10.7450   -5.7630 C.3       2 GLP5        0.0000 
     19 CA        -22.6435    2.1165   -7.0235 C.3       1 GLC5        0.0000 
     20 CA        -21.2330    1.6390   -8.2120 C.3       3 GLL5        0.0000 
     21 CA        -24.0540    2.5940   -5.8350 C.3       2 GLP5        0.0000 
     22 CA        -21.9090   -0.2425   -7.9840 C.3       1 GLC5        0.0000 
     23 CA        -22.5850   -2.1240   -7.7560 C.3       2 GLP5        0.0000 
     24 CA        -20.4350    0.3440   -9.1655 C.3       1 GLC5        0.0000 
     25 CA        -19.6370   -0.9510  -10.1190 C.3       2 GLP5        0.0000 
     26 CA        -20.5915    0.5300   -6.7755 C.3       1 GLC5        0.0000 
     27 CA        -19.9500   -0.5790   -5.3390 C.3       2 GLP5        0.0000 
     28 CA        -22.6330    7.8035   -7.7685 C.3       1 GLC5        0.0000 
     29 CA        -21.6440    6.6220   -8.4900 C.3       3 GLL5        0.0000 
     30 CA        -23.6220    8.9850   -7.0470 C.3       2 GLP5        0.0000 
     31 CA        -20.2980    7.0175   -6.8610 C.3       1 GLC5        0.0000 
     32 CA        -18.9520    7.4130   -5.2320 C.3       2 GLP5        0.0000 
     33 CA        -25.6175   13.1167  -13.6762 C.3       1 GLC5        0.0000 
     34 CA        -26.3850   11.8830  -14.8340 C.3       2 GLP5        0.0000 
     35 CA        -23.5005   11.9522  -10.3370 C.3       1 GLC5        0.0000 
     36 CA        -24.7220   11.5280  -11.6550 C.3       3 GLL5        0.0000 
     37 CA        -25.0295    9.6182  -12.8955 C.3       1 GLC5        0.0000 
     38 CA        -25.9480    7.9160  -13.8860 C.3       2 GLP5        0.0000 
     39 CA        -22.6977   10.0407  -14.0537 C.3       1 GLC5        0.0000 
     40 CA        -23.0230    9.8400  -11.8940 C.3       3 GLL5        0.0000 
     41 CA        -22.1340    9.6050  -16.0830 C.3       2 GLP5        0.0000 
     42 CA        -24.0690   11.3035   -9.7617 C.3       1 GLC5        0.0000 
     43 CA        -25.0120    9.3770  -10.6250 C.3       3 GLL5        0.0000 
     44 CA        -25.5913   11.4389  -13.1142 C.3       1 GLC5        0.0000 
     45 CA        -25.4840   10.6690  -10.8840 C.3       3 GLL5        0.0000 
     46 CA        -25.5980    8.9695  -12.3202 C.3       1 GLC5        0.0000 
     47 CA        -24.0090    9.0768   -8.9638 C.3       1 GLC5        0.0000 
     48 CA        -23.1457   10.9920  -10.1420 C.3       1 GLC5        0.0000 
     49 CA        -23.7800    8.9600  -11.1360 C.3       3 GLL5        0.0000 
     50 CA        -21.7373    9.3285  -10.3765 C.3       1 GLC5        0.0000 
     51 CA        -20.0730    9.2570   -9.2380 C.3       2 GLP5        0.0000 
     52 CA        -24.6748    8.6580  -12.7005 C.3       1 GLC5        0.0000 
     53 CA        -24.1977    5.8430   -8.2198 C.3       1 GLC5        0.0000 
     54 CA        -23.3730    5.4880   -9.7110 C.3       3 GLL5        0.0000 
     55 CA        -24.7430    6.8030   -6.5400 C.3       2 GLP5        0.0000 
     56 CA        -23.9047    5.5150  -11.9703 C.3       1 GLC5        0.0000 
     57 CA        -24.1570    6.1470  -14.0410 C.3       2 GLP5        0.0000 
     58 CA        -23.4115    2.8580   -7.5507 C.3       1 GLC5        0.0000 
     59 CA        -23.3430    3.0920   -9.6630 C.3       3 GLL5        0.0000 
     60 CA        -20.1175    2.7858   -9.3350 C.3       1 GLC5        0.0000 
     61 CA        -22.1950    3.1520   -8.8700 C.3       3 GLL5        0.0000 
     62 CA        -18.5210    3.1760  -10.1290 C.3       2 GLP5        0.0000 
     63 CA        -23.3457    5.8662   -7.6237 C.3       1 GLC5        0.0000 
     64 CA        -21.6590    4.3550   -8.5000 C.3       3 GLL5        0.0000 
     65 CA        -21.0070    7.6600   -8.9703 C.3       1 GLC5        0.0000 
     66 CA        -22.2380    5.5040   -8.9150 C.3       3 GLL5        0.0000 
     67 CA        -21.9891    4.8194   -6.8159 C.3       1 GLC5        0.0000 
     68 CA        -22.1820    3.8630   -5.0330 C.3       2 GLP5        0.0000 
     69 CA        -20.5691    5.6304   -9.6631 C.3       1 GLC5        0.0000 
     70 CA        -19.2000    5.4870  -10.6280 C.3       2 GLP5        0.0000 
@<TRIPOS>BOND
@<TRIPOS>SUBSTRUCTURE
     1 GLC5        1 GROUP        1 X    GLC  0     ROOT GLC X 6
     2 GLP5        3 GROUP        1 Y    GLP  0     ROOT GLP Y 13
     3 GLL5        2 GROUP        1 Z    GLL  0     ROOT GLL Z 20
@<TRIPOS>SET

