#    Name: 2ivu_ZD6_1_ligand
#    Modification time : Tue Mar 25 18:46:23 2014

@<TRIPOS>MOLECULE
2ivu_ZD6_1_ligand
   55    58     1     0     0
SMALL
NO_CHARGES


@<TRIPOS>ATOM
      1 CAK       -24.6920   15.9600  -13.5540 C.3       1 ZD63015     0.0000 
      2 CAM       -25.6660   17.1090  -13.8300 C.3       1 ZD63015     0.0000 
      3 NBD       -26.2060   17.7350  -12.5960 N.4       1 ZD63015     0.0000 
      4 CAB       -27.4810   18.3480  -13.0230 C.3       1 ZD63015     0.0000 
      5 CAN       -26.5500   16.8150  -11.4660 C.3       1 ZD63015     0.0000 
      6 CAL       -25.5480   15.6720  -11.2810 C.3       1 ZD63015     0.0000 
      7 CBC       -25.3120   14.9490  -12.6080 C.3       1 ZD63015     0.0000 
      8 CAO       -24.3880   13.7520  -12.4290 C.3       1 ZD63015     0.0000 
      9 OAT       -25.2470   12.7670  -11.8870 O.3       1 ZD63015     0.0000 
     10 CAY       -24.7220   11.5280  -11.6550 C.ar      1 ZD63015     0.0000 
     11 CAI       -23.5000   11.1130  -12.1550 C.ar      1 ZD63015     0.0000 
     12 CAX       -25.4840   10.6690  -10.8840 C.ar      1 ZD63015     0.0000 
     13 OAS       -26.6940   11.1710  -10.4290 O.3       1 ZD63015     0.0000 
     14 CAA       -27.4580   10.4010   -9.4730 C.3       1 ZD63015     0.0000 
     15 CAJ       -25.0120    9.3770  -10.6250 C.ar      1 ZD63015     0.0000 
     16 C5        -23.7800    8.9600  -11.1360 C.ar      1 ZD63015     0.0000 
     17 C4        -23.0230    9.8400  -11.8940 C.ar      1 ZD63015     0.0000 
     18 N3        -21.8330    9.4340  -12.4010 N.pl3     1 ZD63015     0.0000 
     19 C2        -21.3730    8.2090  -12.1660 C.2       1 ZD63015     0.0000 
     20 N1        -22.0550    7.3510  -11.4160 N.2       1 ZD63015     0.0000 
     21 C6        -23.2520    7.6690  -10.8930 C.2       1 ZD63015     0.0000 
     22 NAR       -23.9680    6.7080  -10.1040 N.2       1 ZD63015     0.0000 
     23 CAW       -23.3730    5.4880   -9.7110 C.ar      1 ZD63015     0.0000 
     24 CAF       -23.9320    4.2780  -10.0880 C.ar      1 ZD63015     0.0000 
     25 CAE       -23.3430    3.0920   -9.6630 C.ar      1 ZD63015     0.0000 
     26 CAU       -22.1950    3.1520   -8.8700 C.ar      1 ZD63015     0.0000 
     27 BR        -21.2330    1.6390   -8.2120 Br        1 ZD63015     0.0000 
     28 CAH       -21.6590    4.3550   -8.5000 C.ar      1 ZD63015     0.0000 
     29 CAV       -22.2380    5.5040   -8.9150 C.ar      1 ZD63015     0.0000 
     30 FAC       -21.6440    6.6220   -8.4900 F         1 ZD63015     0.0000 
     31 H         -23.7827   16.3640  -13.1119 H         1 ZD63015     0.0000 
     32 H         -24.4412   15.4735  -14.4952 H         1 ZD63015     0.0000 
     33 H         -26.4931   16.7191  -14.4494 H         1 ZD63015     0.0000 
     34 H         -25.1425   17.8661  -14.4403 H         1 ZD63015     0.0000 
     35 H         -25.5612   18.5194  -12.2597 H         1 ZD63015     0.0000 
     36 H         -27.5497   16.3781  -11.6322 H         1 ZD63015     0.0000 
     37 H         -26.6042   17.3864  -10.5235 H         1 ZD63015     0.0000 
     38 H         -25.9391   14.9673  -10.5524 H         1 ZD63015     0.0000 
     39 H         -24.6065   16.0761  -10.9195 H         1 ZD63015     0.0000 
     40 H         -26.2517   14.6332  -13.0020 H         1 ZD63015     0.0000 
     41 H         -23.6033   14.0321  -11.7551 H         1 ZD63015     0.0000 
     42 H         -24.0020   13.4797  -13.3909 H         1 ZD63015     0.0000 
     43 H         -22.9355   11.7627  -12.7315 H         1 ZD63015     0.0000 
     44 H         -25.5752    8.7323  -10.0559 H         1 ZD63015     0.0000 
     45 H         -21.2755   10.1051  -12.9861 H         1 ZD63015     0.0000 
     46 H         -20.4484    7.9134  -12.5836 H         1 ZD63015     0.0000 
     47 H         -24.7720    4.2543  -10.6748 H         1 ZD63015     0.0000 
     48 H         -23.7416    2.1901   -9.9252 H         1 ZD63015     0.0000 
     49 H         -20.8114    4.3778   -7.9031 H         1 ZD63015     0.0000 
     50 H         -27.3423   19.0349  -13.7364 H         1 ZD63015     0.0000 
     51 H         -28.1154   17.6679  -13.3903 H         1 ZD63015     0.0000 
     52 H         -27.9466   18.8035  -12.2642 H         1 ZD63015     0.0000 
     53 H         -26.9476   10.2478   -8.6268 H         1 ZD63015     0.0000 
     54 H         -28.3101   10.8604   -9.2223 H         1 ZD63015     0.0000 
     55 H         -27.7050    9.5014   -9.8332 H         1 ZD63015     0.0000 
@<TRIPOS>BOND
     1    2    1 1    
     2    7    1 1    
     3   31    1 1    
     4   32    1 1    
     5    3    2 1    
     6   33    2 1    
     7   34    2 1    
     8    4    3 1    
     9    5    3 1    
    10   35    3 1    
    11   50    4 1    
    12   51    4 1    
    13   52    4 1    
    14    6    5 1    
    15   36    5 1    
    16   37    5 1    
    17    7    6 1    
    18   38    6 1    
    19   39    6 1    
    20    8    7 1    
    21   40    7 1    
    22    9    8 1    
    23   41    8 1    
    24   42    8 1    
    25   10    9 1    
    26   11   10 ar   
    27   12   10 ar   
    28   17   11 ar   
    29   43   11 1    
    30   13   12 1    
    31   15   12 ar   
    32   14   13 1    
    33   53   14 1    
    34   54   14 1    
    35   55   14 1    
    36   16   15 ar   
    37   44   15 1    
    38   17   16 ar   
    39   21   16 1    
    40   18   17 1    
    41   19   18 1    
    42   45   18 1    
    43   20   19 2    
    44   46   19 1    
    45   21   20 1    
    46   22   21 2    
    47   23   22 1    
    48   24   23 ar   
    49   29   23 ar   
    50   25   24 ar   
    51   47   24 1    
    52   26   25 ar   
    53   48   25 1    
    54   27   26 1    
    55   28   26 ar   
    56   29   28 ar   
    57   49   28 1    
    58   30   29 1    
@<TRIPOS>SUBSTRUCTURE
     1 ZD63015     1 GROUP   
@<TRIPOS>SET

