#    Name: 2wd3_MS4_1_INTS_M
#    Modification time : Tue Mar 25 04:05:15 2014

@<TRIPOS>MOLECULE
2wd3_MS4_1_INTS_M
   37     0    12     0     0
SMALL
NO_CHARGES


@<TRIPOS>ATOM
      1 N         -17.0330   10.9345  -18.8335 N.am      2 SEC2        0.0000 
      2 N         -15.6130   11.0990  -18.4290 N.am     10 SEL2        0.0000 
      3 N         -18.4530   10.7700  -19.2380 N.am      6 SEP2        0.0000 
      4 O         -16.6555    9.3110  -17.0325 O.2       1 ALC1        0.0000 
      5 O         -15.8020   10.1600  -16.3340 O.2       9 ALL1        0.0000 
      6 O         -17.5090    8.4620  -17.7310 O.2       5 ALP1        0.0000 
      7 Zn        -15.1820    9.5525  -15.8615 Zn        3 ZIC7        0.0000 
      8 Zn        -15.8020   10.1600  -16.3340 Zn       11 ZIL7        0.0000 
      9 Zn        -14.5620    8.9450  -15.3890 Zn        7 ZIP7        0.0000 
     10 N         -17.6850   14.1455   -7.1680 N.am      2 SEC2        0.0000 
     11 N         -17.3280   15.7710   -6.7710 N.am     10 SEL2        0.0000 
     12 N         -18.0420   12.5200   -7.5650 N.am      6 SEP2        0.0000 
     13 CA        -16.6015   18.2545  -14.2470 C.3       4 GLC5        0.0000 
     14 CA        -17.8220   17.1550  -13.3060 C.3      12 GLL5        0.0000 
     15 CA        -15.3810   19.3540  -15.1880 C.3       8 GLP5        0.0000 
     16 CA        -13.2840   15.7275  -16.2970 C.3       4 GLC5        0.0000 
     17 CA        -14.9300   15.1510  -16.8460 C.3      12 GLL5        0.0000 
     18 CA        -11.6380   16.3040  -15.7480 C.3       8 GLP5        0.0000 
     19 CA        -14.6570   16.5525  -17.8335 C.3       4 GLC5        0.0000 
     20 CA        -14.3840   17.9540  -18.8210 C.3       8 GLP5        0.0000 
     21 CA        -13.3175   14.5315  -18.1025 C.3       4 GLC5        0.0000 
     22 CA        -11.7050   13.9120  -19.3590 C.3       8 GLP5        0.0000 
     23 CA        -13.5935   14.1565  -15.2295 C.3       4 GLC5        0.0000 
     24 CA        -15.7470   14.4300  -15.4860 C.3      12 GLL5        0.0000 
     25 CA        -11.4400   13.8830  -14.9730 C.3       8 GLP5        0.0000 
     26 CA        -17.3195   14.2530  -16.9700 C.3       4 GLC5        0.0000 
     27 CA        -16.3300   13.1520  -15.5240 C.3      12 GLL5        0.0000 
     28 CA        -18.3090   15.3540  -18.4160 C.3       8 GLP5        0.0000 
     29 CA        -18.4160   11.1750  -14.4185 C.3       4 GLC5        0.0000 
     30 CA        -16.9750   12.6760  -14.3950 C.3      12 GLL5        0.0000 
     31 CA        -19.8570    9.6740  -14.4420 C.3       8 GLP5        0.0000 
     32 CA        -14.2705   14.0055   -7.4630 C.3       4 GLC5        0.0000 
     33 CA        -15.5060   15.3970   -8.3090 C.3      12 GLL5        0.0000 
     34 CA        -13.0350   12.6140   -6.6170 C.3       8 GLP5        0.0000 
     35 CA        -13.7070   16.0700   -7.4165 C.3       4 GLC5        0.0000 
     36 CA        -11.9080   16.7430   -6.5240 C.3       8 GLP5        0.0000 
     37 CA        -16.8238   15.0723  -17.2910 C.3       4 GLC5        0.0000 
@<TRIPOS>BOND
@<TRIPOS>SUBSTRUCTURE
     1 ALC1        4 GROUP        1 X    ALC  0     ROOT ALC X 1
     2 SEC2        1 GROUP        1 X    SEC  0     **** SEC X 2
     3 ZIC7        7 GROUP        1 X    ZIC  0     **** ZIC X 5
     4 GLC5       13 GROUP        1 X    GLC  0     **** GLC X 6
     5 ALP1        6 GROUP        1 Y    ALP  0     ROOT ALP Y 8
     6 SEP2        3 GROUP        1 Y    SEP  0     **** SEP Y 9
     7 ZIP7        9 GROUP        1 Y    ZIP  0     **** ZIP Y 12
     8 GLP5       15 GROUP        1 Y    GLP  0     **** GLP Y 13
     9 ALL1        5 GROUP        1 Z    ALL  0     ROOT ALL Z 15
    10 SEL2        2 GROUP        1 Z    SEL  0     **** SEL Z 16
    11 ZIL7        8 GROUP        1 Z    ZIL  0     **** ZIL Z 19
    12 GLL5       14 GROUP        1 Z    GLL  0     **** GLL Z 20
@<TRIPOS>SET

