#    Name: 2wd3_MS4_1_ligand
#    Modification time : Tue Mar 25 04:05:15 2014

@<TRIPOS>MOLECULE
2wd3_MS4_1_ligand
   37    39     1     0     0
SMALL
NO_CHARGES


@<TRIPOS>ATOM
      1 S2        -15.3570   11.5170  -17.0620 S.o2      1 MS41261     0.0000 
      2 O1        -14.0280   11.6180  -16.5390 O.2       1 MS41261     0.0000 
      3 O2        -15.6130   11.0990  -18.4290 O.2       1 MS41261     0.0000 
      4 O3        -16.3900   12.3520  -16.6420 O.3       1 MS41261     0.0000 
      5 N1        -15.8020   10.1600  -16.3340 N.pl3     1 MS41261     0.0000 
      6 N3        -16.5230   17.3560   -5.5350 N.2       1 MS41261     0.0000 
      7 N4        -17.3280   15.7710   -6.7710 N.2       1 MS41261     0.0000 
      8 N5        -16.1870   16.0450   -7.1710 N.pl3     1 MS41261     0.0000 
      9 N6        -18.3060   17.5710  -14.2610 N.1       1 MS41261     0.0000 
     10 C1        -17.5900   16.5750   -5.7360 C.2       1 MS41261     0.0000 
     11 C2        -15.6310   17.0140   -6.4520 C.2       1 MS41261     0.0000 
     12 C3        -16.1220   15.8410   -9.6530 C.ar      1 MS41261     0.0000 
     13 C4        -16.7900   17.0660   -9.7480 C.ar      1 MS41261     0.0000 
     14 C5        -17.3330   17.4740  -10.9590 C.ar      1 MS41261     0.0000 
     15 C6        -17.2220   16.6660  -12.0880 C.ar      1 MS41261     0.0000 
     16 C7        -16.5290   15.4360  -12.0080 C.ar      1 MS41261     0.0000 
     17 C8        -15.9880   15.0220  -10.7850 C.ar      1 MS41261     0.0000 
     18 C9        -17.8220   17.1550  -13.3060 C.1       1 MS41261     0.0000 
     19 CL        -14.9300   15.1510  -16.8460 Cl        1 MS41261     0.0000 
     20 C12       -15.8080   15.1650  -14.3070 C.ar      1 MS41261     0.0000 
     21 C13       -15.7470   14.4300  -15.4860 C.ar      1 MS41261     0.0000 
     22 C14       -16.3300   13.1520  -15.5240 C.ar      1 MS41261     0.0000 
     23 C15       -16.9750   12.6760  -14.3950 C.ar      1 MS41261     0.0000 
     24 C16       -17.0240   13.4030  -13.2110 C.ar      1 MS41261     0.0000 
     25 CAO       -15.5060   15.3970   -8.3090 C.3       1 MS41261     0.0000 
     26 CAV       -16.4430   14.6610  -13.1660 C.ar      1 MS41261     0.0000 
     27 H         -18.4101   16.5899   -5.2206 H         1 MS41261     0.0000 
     28 H         -14.7546   17.3904   -6.5752 H         1 MS41261     0.0000 
     29 H         -16.8770   17.6638   -8.9151 H         1 MS41261     0.0000 
     30 H         -17.8212   18.3794  -11.0248 H         1 MS41261     0.0000 
     31 H         -15.4975   14.1279  -10.7150 H         1 MS41261     0.0000 
     32 H         -15.3754   16.1061  -14.2684 H         1 MS41261     0.0000 
     33 H         -17.4399   11.7420  -14.4316 H         1 MS41261     0.0000 
     34 H         -17.4835   13.0130  -12.3841 H         1 MS41261     0.0000 
     35 H         -15.5902   14.3079   -8.2415 H         1 MS41261     0.0000 
     36 H         -14.4426   15.6557   -8.3222 H         1 MS41261     0.0000 
     37 H         -16.3848    9.6900  -16.9968 H         1 MS41261     0.0000 
@<TRIPOS>BOND
     1    2    1 2    
     2    3    1 2    
     3    4    1 1    
     4    5    1 1    
     5   22    4 1    
     6   37    5 1    
     7   10    6 1    
     8   11    6 2    
     9    8    7 1    
    10   10    7 2    
    11   11    8 1    
    12   25    8 1    
    13   18    9 3    
    14   27   10 1    
    15   28   11 1    
    16   13   12 ar   
    17   17   12 ar   
    18   25   12 1    
    19   14   13 ar   
    20   29   13 1    
    21   15   14 ar   
    22   30   14 1    
    23   16   15 ar   
    24   18   15 1    
    25   17   16 ar   
    26   26   16 1    
    27   31   17 1    
    28   21   19 1    
    29   21   20 ar   
    30   26   20 ar   
    31   32   20 1    
    32   22   21 ar   
    33   23   22 ar   
    34   24   23 ar   
    35   33   23 1    
    36   26   24 ar   
    37   34   24 1    
    38   35   25 1    
    39   36   25 1    
@<TRIPOS>SUBSTRUCTURE
     1 MS41261     1 GROUP   
@<TRIPOS>SET

