#    Name: 3t5f_M34_1_INTS_M
#    Modification time : Mon Mar 24 19:11:37 2014

@<TRIPOS>MOLECULE
3t5f_M34_1_INTS_M
   79     0     9     0     0
SMALL
NO_CHARGES


@<TRIPOS>ATOM
      1 CA         13.7175  -17.8590   25.4430 C.3       3 GLC5        0.0000 
      2 CA         13.7740  -19.7130   24.3940 C.3       9 GLL5        0.0000 
      3 CA         13.6610  -16.0050   26.4920 C.3       6 GLP5        0.0000 
      4 N          13.3340  -16.4375   23.3670 N.am      2 SEC2        0.0000 
      5 N          14.3670  -16.2530   22.1550 N.am      8 SEL2        0.0000 
      6 N          12.3010  -16.6220   24.5790 N.am      5 SEP2        0.0000 
      7 CA         19.0135  -11.9490   26.4085 C.3       3 GLC5        0.0000 
      8 CA         20.2230  -13.1580   25.4770 C.3       9 GLL5        0.0000 
      9 CA         17.8040  -10.7400   27.3400 C.3       6 GLP5        0.0000 
     10 N          15.4700  -12.1310   23.9600 N.am      2 SEC2        0.0000 
     11 N          16.2540  -12.7010   22.8270 N.am      8 SEL2        0.0000 
     12 N          14.6860  -11.5610   25.0930 N.am      5 SEP2        0.0000 
     13 CA         19.1200  -10.6575   21.9035 C.3       3 GLC5        0.0000 
     14 CA         17.5920  -11.6020   20.7340 C.3       9 GLL5        0.0000 
     15 CA         20.6480   -9.7130   23.0730 C.3       6 GLP5        0.0000 
     16 CA         17.5275  -10.9615   22.7505 C.3       3 GLC5        0.0000 
     17 CA         17.4630  -10.3210   24.7670 C.3       6 GLP5        0.0000 
     18 CA         20.1220  -11.1105   21.4005 C.3       3 GLC5        0.0000 
     19 CA         19.5960  -12.5080   19.7280 C.3       9 GLL5        0.0000 
     20 O          16.2555   -9.3350   21.4920 O.2       1 ALC1        0.0000 
     21 O          15.5310  -10.3350   20.7050 O.2       7 ALL1        0.0000 
     22 O          16.9800   -8.3350   22.2790 O.2       4 ALP1        0.0000 
     23 CA         14.7985   -8.5200   18.9530 C.3       3 GLC5        0.0000 
     24 CA         14.1330  -10.0560   20.4160 C.3       9 GLL5        0.0000 
     25 CA         15.4640   -6.9840   17.4900 C.3       6 GLP5        0.0000 
     26 CA         11.9495  -12.0990   18.9215 C.3       3 GLC5        0.0000 
     27 CA         12.4840  -12.4240   21.0680 C.3       9 GLL5        0.0000 
     28 CA         11.4150  -11.7740   16.7750 C.3       6 GLP5        0.0000 
     29 CA         10.7705  -13.2540   20.9135 C.3       3 GLC5        0.0000 
     30 CA          9.0570  -14.0840   20.7590 C.3       6 GLP5        0.0000 
     31 O          13.7130  -13.8255   23.1420 O.2       1 ALC1        0.0000 
     32 O          13.2290  -13.4660   21.7560 O.2       7 ALL1        0.0000 
     33 O          14.1970  -14.1850   24.5280 O.2       4 ALP1        0.0000 
     34 O          12.0760  -13.9635   22.7265 O.2       1 ALC1        0.0000 
     35 O          10.9230  -14.4610   23.6970 O.2       4 ALP1        0.0000 
     36 CA         11.4050   -9.3460   25.8975 C.3       3 GLC5        0.0000 
     37 CA         11.5730  -10.0660   23.8730 C.3       9 GLL5        0.0000 
     38 CA         11.2370   -8.6260   27.9220 C.3       6 GLP5        0.0000 
     39 CA         10.8385   -7.3790   23.3255 C.3       3 GLC5        0.0000 
     40 CA         12.3170   -7.5310   24.6140 C.3       9 GLL5        0.0000 
     41 CA          9.3600   -7.2270   22.0370 C.3       6 GLP5        0.0000 
     42 CA         11.7770   -8.0785   26.2680 C.3       3 GLC5        0.0000 
     43 CA         11.3790   -5.9965   25.3715 C.3       3 GLC5        0.0000 
     44 CA         10.4410   -4.4620   26.1290 C.3       6 GLP5        0.0000 
     45 CA         14.8187  -17.2918   25.2413 C.3       3 GLC5        0.0000 
     46 CA         15.6400  -18.5650   23.3820 C.3       9 GLL5        0.0000 
     47 CA         12.5628  -18.1313   23.8537 C.3       3 GLC5        0.0000 
     48 CA         14.3690  -19.1240   23.2810 C.3       9 GLL5        0.0000 
     49 CA         11.0540  -16.8440   23.8700 C.3       6 GLP5        0.0000 
     50 CA         14.5503  -18.0637   26.7400 C.3       3 GLC5        0.0000 
     51 CA         14.4500  -19.7380   25.6110 C.3       9 GLL5        0.0000 
     52 CA         14.0150  -16.6680   27.8180 C.3       6 GLP5        0.0000 
     53 CA         18.2470  -12.1908   24.5050 C.3       3 GLC5        0.0000 
     54 CA         18.3480  -14.3910   24.3280 C.3       9 GLL5        0.0000 
     55 CA         20.3082  -11.5785   23.9453 C.3       3 GLC5        0.0000 
     56 CA         19.7140  -13.7300   24.1580 C.3       9 GLL5        0.0000 
     57 CA         19.0242  -10.2751   19.0366 C.3       3 GLC5        0.0000 
     58 CA         19.2490   -8.4960   18.1630 C.3       6 GLP5        0.0000 
     59 CA         21.2600  -13.3180   20.0048 C.3       3 GLC5        0.0000 
     60 CA         23.1670  -13.6220   19.7660 C.3       6 GLP5        0.0000 
     61 CA         18.6857  -13.8564   18.7981 C.3       3 GLC5        0.0000 
     62 CA         19.1100  -13.5200   20.7590 C.3       9 GLL5        0.0000 
     63 CA         18.3140  -14.9260   17.4220 C.3       6 GLP5        0.0000 
     64 CA         12.8863   -7.6338   21.6808 C.3       3 GLC5        0.0000 
     65 CA         13.1970   -8.9650   22.4630 C.3       9 GLL5        0.0000 
     66 CA         12.5530   -5.7480   21.3120 C.3       6 GLP5        0.0000 
     67 CA         12.8995  -11.7308   24.2075 C.3       3 GLC5        0.0000 
     68 CA         12.4600  -11.1830   21.9310 C.3       9 GLL5        0.0000 
     69 CA         13.7500  -12.2800   25.9240 C.3       6 GLP5        0.0000 
     70 CA         10.5920  -11.1869   20.9761 C.3       3 GLC5        0.0000 
     71 CA         11.6380  -11.1800   23.0510 C.3       9 GLL5        0.0000 
     72 CA          9.1290  -10.8820   19.6770 C.3       6 GLP5        0.0000 
     73 CA         12.8603  -10.8987   24.8238 C.3       3 GLC5        0.0000 
     74 CA         12.3680   -8.9690   23.5740 C.3       9 GLL5        0.0000 
     75 CA         12.4477   -6.9990   22.7030 C.3       3 GLC5        0.0000 
     76 CA         14.2147   -8.9970   24.2450 C.3       3 GLC5        0.0000 
     77 CA         16.0870   -9.7440   24.3960 C.3       6 GLP5        0.0000 
     78 CA         10.9719   -8.2341   22.5651 C.3       3 GLC5        0.0000 
     79 CA         14.7646   -9.6295   23.0703 C.3       3 GLC5        0.0000 
@<TRIPOS>BOND
@<TRIPOS>SUBSTRUCTURE
     1 ALC1       20 GROUP        1 X    ALC  0     ROOT ALC X 1
     2 SEC2        4 GROUP        1 X    SEC  0     **** SEC X 2
     3 GLC5        1 GROUP        1 X    GLC  0     **** GLC X 6
     4 ALP1       22 GROUP        1 Y    ALP  0     ROOT ALP Y 8
     5 SEP2        6 GROUP        1 Y    SEP  0     **** SEP Y 9
     6 GLP5        3 GROUP        1 Y    GLP  0     **** GLP Y 13
     7 ALL1       21 GROUP        1 Z    ALL  0     ROOT ALL Z 15
     8 SEL2        5 GROUP        1 Z    SEL  0     **** SEL Z 16
     9 GLL5        2 GROUP        1 Z    GLL  0     **** GLL Z 20
@<TRIPOS>SET

