#    Name: 3t5f_M34_1_ligand
#    Modification time : Mon Mar 24 19:11:37 2014

@<TRIPOS>MOLECULE
3t5f_M34_1_ligand
   72    74     1     0     0
SMALL
NO_CHARGES


@<TRIPOS>ATOM
      1 C7         16.2800  -17.9220   22.1700 C.3       1 M341        0.0000 
      2 S8         15.7990  -16.3270   22.0500 S.o2      1 M341        0.0000 
      3 C4         15.6400  -18.5650   23.3820 C.ar      1 M341        0.0000 
      4 C5         14.3690  -19.1240   23.2810 C.ar      1 M341        0.0000 
      5 C6         13.7740  -19.7130   24.3940 C.ar      1 M341        0.0000 
      6 C1         14.4500  -19.7380   25.6110 C.ar      1 M341        0.0000 
      7 C2         15.7210  -19.1810   25.7130 C.ar      1 M341        0.0000 
      8 C34        16.3130  -18.5920   24.5990 C.ar      1 M341        0.0000 
      9 O7         14.3670  -16.2530   22.1550 O.2       1 M341        0.0000 
     10 O19        16.2160  -15.8120   20.7790 O.2       1 M341        0.0000 
     11 N9         16.4600  -15.4670   23.2390 N.pl3     1 M341        0.0000 
     12 C10        17.6200  -14.6260   23.0040 C.3       1 M341        0.0000 
     13 C20        18.3480  -14.3910   24.3280 C.3       1 M341        0.0000 
     14 C21        19.7140  -13.7300   24.1580 C.3       1 M341        0.0000 
     15 C22        20.7340  -14.7030   23.5770 C.3       1 M341        0.0000 
     16 C23        20.2230  -13.1580   25.4770 C.3       1 M341        0.0000 
     17 C11        17.2130  -13.3170   22.3870 C.2       1 M341        0.0000 
     18 O24        16.2540  -12.7010   22.8270 O.2       1 M341        0.0000 
     19 N12        17.9450  -12.8710   21.3690 N.am      1 M341        0.0000 
     20 C13        17.5920  -11.6020   20.7340 C.3       1 M341        0.0000 
     21 C14        16.1330  -11.4820   20.3970 C.2       1 M341        0.0000 
     22 O28        15.5310  -12.4090   19.8700 O.2       1 M341        0.0000 
     23 C27        18.4140  -11.5990   19.4510 C.3       1 M341        0.0000 
     24 C26        19.5960  -12.5080   19.7280 C.3       1 M341        0.0000 
     25 C25        19.1100  -13.5200   20.7590 C.3       1 M341        0.0000 
     26 N15        15.5310  -10.3350   20.7050 N.am      1 M341        0.0000 
     27 C16        14.1330  -10.0560   20.4160 C.3       1 M341        0.0000 
     28 C17        13.2420  -10.0740   21.6360 C.ar      1 M341        0.0000 
     29 C29        12.4600  -11.1830   21.9310 C.ar      1 M341        0.0000 
     30 C35        12.4840  -12.4240   21.0680 C.3       1 M341        0.0000 
     31 N36        13.2290  -13.4660   21.7560 N.4       1 M341        0.0000 
     32 C33        11.6380  -11.1800   23.0510 C.ar      1 M341        0.0000 
     33 C32        11.5730  -10.0660   23.8730 C.ar      1 M341        0.0000 
     34 C31        12.3680   -8.9690   23.5740 C.ar      1 M341        0.0000 
     35 CL28       12.3170   -7.5310   24.6140 Cl        1 M341        0.0000 
     36 C30        13.1970   -8.9650   22.4630 C.ar      1 M341        0.0000 
     37 H          17.3499  -17.8972   22.2480 H         1 M341        0.0000 
     38 H          15.9662  -18.3891   21.2564 H         1 M341        0.0000 
     39 H          13.8682  -19.1021   22.3829 H         1 M341        0.0000 
     40 H          12.8379  -20.1283   24.3170 H         1 M341        0.0000 
     41 H          14.0096  -20.1682   26.4342 H         1 M341        0.0000 
     42 H          16.2225  -19.2042   26.6094 H         1 M341        0.0000 
     43 H          17.2509  -18.1757   24.6768 H         1 M341        0.0000 
     44 H          16.0187  -15.5579   24.1241 H         1 M341        0.0000 
     45 H          18.3127  -15.1270   22.3342 H         1 M341        0.0000 
     46 H          18.4775  -15.3552   24.8403 H         1 M341        0.0000 
     47 H          17.7212  -13.7582   24.9727 H         1 M341        0.0000 
     48 H          19.6040  -12.8995   23.4532 H         1 M341        0.0000 
     49 H          17.9170  -10.7799   21.3281 H         1 M341        0.0000 
     50 H          18.7567  -10.6081   19.2464 H         1 M341        0.0000 
     51 H          17.8298  -11.9954   18.6493 H         1 M341        0.0000 
     52 H          20.4049  -11.9395   20.1368 H         1 M341        0.0000 
     53 H          19.8816  -13.0177   18.8317 H         1 M341        0.0000 
     54 H          18.8335  -14.4215   20.2565 H         1 M341        0.0000 
     55 H          19.8843  -13.6826   21.4771 H         1 M341        0.0000 
     56 H          16.0529   -9.5547   21.1854 H         1 M341        0.0000 
     57 H          13.7343  -10.7933   19.6855 H         1 M341        0.0000 
     58 H          14.0298   -9.0629   19.9268 H         1 M341        0.0000 
     59 H          12.9507  -12.1758   20.1129 H         1 M341        0.0000 
     60 H          11.4556  -12.7382   20.8801 H         1 M341        0.0000 
     61 H          11.0716  -12.0150   23.2715 H         1 M341        0.0000 
     62 H          10.9522  -10.0523   24.6832 H         1 M341        0.0000 
     63 H          13.7758   -8.1410   22.2549 H         1 M341        0.0000 
     64 H          21.6305  -14.2756   23.4606 H         1 M341        0.0000 
     65 H          20.8638  -15.5006   24.1660 H         1 M341        0.0000 
     66 H          20.4530  -15.0438   22.6798 H         1 M341        0.0000 
     67 H          21.1195  -12.7272   25.3737 H         1 M341        0.0000 
     68 H          19.6045  -12.4631   25.8438 H         1 M341        0.0000 
     69 H          20.3169  -13.8658   26.1772 H         1 M341        0.0000 
     70 H          13.5655  -13.1565   22.6454 H         1 M341        0.0000 
     71 H          12.6674  -14.2767   21.9211 H         1 M341        0.0000 
     72 H          14.0250  -13.7633   21.2287 H         1 M341        0.0000 
@<TRIPOS>BOND
     1    2    1 1    
     2    3    1 1    
     3   37    1 1    
     4   38    1 1    
     5    9    2 2    
     6   10    2 2    
     7   11    2 1    
     8    4    3 ar   
     9    8    3 ar   
    10    5    4 ar   
    11   39    4 1    
    12    6    5 ar   
    13   40    5 1    
    14    7    6 ar   
    15   41    6 1    
    16    8    7 ar   
    17   42    7 1    
    18   43    8 1    
    19   12   11 1    
    20   44   11 1    
    21   13   12 1    
    22   17   12 1    
    23   45   12 1    
    24   14   13 1    
    25   46   13 1    
    26   47   13 1    
    27   15   14 1    
    28   16   14 1    
    29   48   14 1    
    30   64   15 1    
    31   65   15 1    
    32   66   15 1    
    33   67   16 1    
    34   68   16 1    
    35   69   16 1    
    36   18   17 2    
    37   19   17 am   
    38   20   19 1    
    39   25   19 1    
    40   21   20 1    
    41   23   20 1    
    42   49   20 1    
    43   22   21 2    
    44   26   21 am   
    45   24   23 1    
    46   50   23 1    
    47   51   23 1    
    48   25   24 1    
    49   52   24 1    
    50   53   24 1    
    51   54   25 1    
    52   55   25 1    
    53   27   26 1    
    54   56   26 1    
    55   28   27 1    
    56   57   27 1    
    57   58   27 1    
    58   29   28 ar   
    59   36   28 ar   
    60   30   29 1    
    61   32   29 ar   
    62   31   30 1    
    63   59   30 1    
    64   60   30 1    
    65   70   31 1    
    66   71   31 1    
    67   72   31 1    
    68   33   32 ar   
    69   61   32 1    
    70   34   33 ar   
    71   62   33 1    
    72   35   34 1    
    73   36   34 ar   
    74   63   36 1    
@<TRIPOS>SUBSTRUCTURE
     1 M341        1 GROUP   
@<TRIPOS>SET

