#    Name: 2vi5_Y19_10_INTS_M
#    Modification time : Tue Mar 25 01:50:48 2014

@<TRIPOS>MOLECULE
2vi5_Y19_10_INTS_M
   48     0     9     0     0
SMALL
NO_CHARGES


@<TRIPOS>ATOM
      1 O           5.6185    8.2510   47.9055 O.2       1 ALC1        0.0000 
      2 O           6.3510    7.1270   47.7590 O.2       7 ALL1        0.0000 
      3 O           4.8860    9.3750   48.0520 O.2       4 ALP1        0.0000 
      4 N           8.2805    8.8260   49.4875 N.am      2 SEC2        0.0000 
      5 N           8.1150    7.3340   49.1210 N.am      8 SEL2        0.0000 
      6 N           8.4460   10.3180   49.8540 N.am      5 SEP2        0.0000 
      7 CA          6.5535    4.7370   49.3820 C.3       3 GLC5        0.0000 
      8 CA          7.9360    5.2440   48.0140 C.3       9 GLL5        0.0000 
      9 CA          5.1710    4.2300   50.7500 C.3       6 GLP5        0.0000 
     10 N           9.8225    1.8945   50.4365 N.am      2 SEC2        0.0000 
     11 N           9.7860    3.3590   50.4040 N.am      8 SEL2        0.0000 
     12 N           9.8590    0.4300   50.4690 N.am      5 SEP2        0.0000 
     13 CA          4.9140    2.6170   46.8930 C.3       3 GLC5        0.0000 
     14 CA          6.4850    2.5280   45.7760 C.3       9 GLL5        0.0000 
     15 CA          3.3430    2.7060   48.0100 C.3       6 GLP5        0.0000 
     16 N           6.1465    4.5155   42.3640 N.am      2 SEC2        0.0000 
     17 N           6.5150    3.9870   43.8470 N.am      8 SEL2        0.0000 
     18 N           5.7780    5.0440   40.8810 N.am      5 SEP2        0.0000 
     19 O           4.4250    1.4295   42.7165 O.2       1 ALC1        0.0000 
     20 O           5.2670    1.2760   43.6040 O.2       7 ALL1        0.0000 
     21 O           3.5830    1.5830   41.8290 O.2       4 ALP1        0.0000 
     22 O           9.5825   -0.4450   43.1210 O.2       1 ALC1        0.0000 
     23 O           8.8930    0.6750   43.3200 O.2       7 ALL1        0.0000 
     24 O          10.2720   -1.5650   42.9220 O.2       4 ALP1        0.0000 
     25 CA          6.6265   -2.2495   41.3040 C.3       3 GLC5        0.0000 
     26 CA          7.0540   -0.8090   42.8170 C.3       9 GLL5        0.0000 
     27 CA          6.1990   -3.6900   39.7910 C.3       6 GLP5        0.0000 
     28 CA          8.6880   -1.2880   41.6710 C.3       3 GLC5        0.0000 
     29 CA         10.3220   -1.7670   40.5250 C.3       6 GLP5        0.0000 
     30 CA          6.5595   -2.5915   43.3260 C.3       3 GLC5        0.0000 
     31 CA          6.0650   -4.3740   43.8350 C.3       6 GLP5        0.0000 
     32 CA          5.0550   -1.3020   42.7600 C.3       3 GLC5        0.0000 
     33 CA          3.0560   -1.7950   42.7030 C.3       6 GLP5        0.0000 
     34 N           8.0830   -1.1770   40.7525 N.am      2 SEC2        0.0000 
     35 N           7.2290   -0.5180   41.4280 N.am      8 SEL2        0.0000 
     36 N           8.9370   -1.8360   40.0770 N.am      5 SEP2        0.0000 
     37 O           6.0090   -0.0180   40.8940 O.2       1 ALC1        0.0000 
     38 O           7.2290   -0.5180   41.4280 O.2       7 ALL1        0.0000 
     39 O           4.7890    0.4820   40.3600 O.2       4 ALP1        0.0000 
     40 CA         12.0405    3.5765   47.4170 C.3       3 GLC5        0.0000 
     41 CA         10.5510    4.3450   48.3790 C.3       9 GLL5        0.0000 
     42 CA         12.8400    2.7710   46.1470 C.3       6 GLP5        0.0000 
     43 CA          4.9066    2.9701   44.1653 C.3       3 GLC5        0.0000 
     44 CA          6.6520    1.6100   43.4320 C.3       9 GLL5        0.0000 
     45 CA          3.1080    3.8140   44.0780 C.3       6 GLP5        0.0000 
     46 CA          7.8080    2.5039   42.3930 C.3       3 GLC5        0.0000 
     47 CA          7.0320    2.7570   44.3700 C.3       9 GLL5        0.0000 
     48 CA          8.4300    3.7280   41.0100 C.3       6 GLP5        0.0000 
@<TRIPOS>BOND
@<TRIPOS>SUBSTRUCTURE
     1 ALC1        1 GROUP        1 X    ALC  0     ROOT ALC X 1
     2 SEC2        4 GROUP        1 X    SEC  0     **** SEC X 2
     3 GLC5        7 GROUP        1 X    GLC  0     **** GLC X 6
     4 ALP1        3 GROUP        1 Y    ALP  0     ROOT ALP Y 8
     5 SEP2        6 GROUP        1 Y    SEP  0     **** SEP Y 9
     6 GLP5        9 GROUP        1 Y    GLP  0     **** GLP Y 13
     7 ALL1        2 GROUP        1 Z    ALL  0     ROOT ALL Z 15
     8 SEL2        5 GROUP        1 Z    SEL  0     **** SEL Z 16
     9 GLL5        8 GROUP        1 Z    GLL  0     **** GLL Z 20
@<TRIPOS>SET

