#    Name: 2vi5_Y19_10_ligand
#    Modification time : Tue Mar 25 01:50:48 2014

@<TRIPOS>MOLECULE
2vi5_Y19_10_ligand
   43    43     1     0     0
SMALL
NO_CHARGES


@<TRIPOS>ATOM
      1 O2          4.5710    6.9340   46.3830 O.2       1 Y19201      0.0000 
      2 C2          5.5940    6.4210   46.8870 C.2       1 Y19201      0.0000 
      3 N3          6.3510    7.1270   47.7590 N.am      1 Y19201      0.0000 
      4 C4          7.4600    6.6160   48.3370 C.2       1 Y19201      0.0000 
      5 O4          8.1150    7.3340   49.1210 O.2       1 Y19201      0.0000 
      6 N1          5.9280    5.1570   46.5580 N.2       1 Y19201      0.0000 
      7 C6          7.0200    4.5450   47.0760 C.2       1 Y19201      0.0000 
      8 C5          7.9360    5.2440   48.0140 C.3       1 Y19201      0.0000 
      9 N13         8.2540    4.4630   49.2020 N.am      1 Y19201      0.0000 
     10 C14         9.4960    4.0160   49.4180 C.2       1 Y19201      0.0000 
     11 C15        10.5510    4.3450   48.3790 C.3       1 Y19201      0.0000 
     12 C16        11.9310    4.4190   48.9950 C.3       1 Y19201      0.0000 
     13 O23         9.7860    3.3590   50.4040 O.2       1 Y19201      0.0000 
     14 N7          7.3260    3.2730   46.7030 N.pl3     1 Y19201      0.0000 
     15 C8          6.4850    2.5280   45.7760 C.3       1 Y19201      0.0000 
     16 C9          7.0320    2.7570   44.3700 C.3       1 Y19201      0.0000 
     17 O9          6.5150    3.9870   43.8470 O.3       1 Y19201      0.0000 
     18 C10         6.6520    1.6100   43.4320 C.3       1 Y19201      0.0000 
     19 O10         5.2670    1.2760   43.6040 O.3       1 Y19201      0.0000 
     20 C11         7.5300    0.3760   43.6510 C.3       1 Y19201      0.0000 
     21 O11         8.8930    0.6750   43.3200 O.3       1 Y19201      0.0000 
     22 C12         7.0540   -0.8090   42.8170 C.3       1 Y19201      0.0000 
     23 O12         7.2290   -0.5180   41.4280 O.3       1 Y19201      0.0000 
     24 H           6.0623    8.1171   47.9964 H         1 Y19201      0.0000 
     25 H           8.9137    5.3866   47.4428 H         1 Y19201      0.0000 
     26 H           7.4737    4.2798   49.8549 H         1 Y19201      0.0000 
     27 H          10.3099    5.3050   47.9122 H         1 Y19201      0.0000 
     28 H          10.5419    3.5762   47.6003 H         1 Y19201      0.0000 
     29 H           8.1654    2.7879   47.0627 H         1 Y19201      0.0000 
     30 H           5.4596    2.8782   45.8067 H         1 Y19201      0.0000 
     31 H           6.5133    1.4650   45.9865 H         1 Y19201      0.0000 
     32 H           8.1136    2.7945   44.4305 H         1 Y19201      0.0000 
     33 H           6.8249    1.9574   42.4059 H         1 Y19201      0.0000 
     34 H           7.4520    0.0949   44.7015 H         1 Y19201      0.0000 
     35 H           6.0025   -0.9925   43.0632 H         1 Y19201      0.0000 
     36 H           7.6311   -1.6885   43.1226 H         1 Y19201      0.0000 
     37 H          12.6300    4.6396   48.3148 H         1 Y19201      0.0000 
     38 H          11.9830    5.1197   49.7066 H         1 Y19201      0.0000 
     39 H          12.1962    3.5522   49.4173 H         1 Y19201      0.0000 
     40 H           6.1807    4.4874   44.6457 H         1 Y19201      0.0000 
     41 H           4.7732    1.9005   42.9989 H         1 Y19201      0.0000 
     42 H           9.3187   -0.2136   43.1493 H         1 Y19201      0.0000 
     43 H           6.3413   -0.1739   41.1219 H         1 Y19201      0.0000 
@<TRIPOS>BOND
     1    2    1 2    
     2    3    2 1    
     3    6    2 1    
     4    4    3 1    
     5   24    3 1    
     6    5    4 2    
     7    8    4 1    
     8    7    6 2    
     9    8    7 1    
    10   14    7 1    
    11    9    8 1    
    12   25    8 1    
    13   10    9 am   
    14   26    9 1    
    15   11   10 1    
    16   13   10 2    
    17   12   11 1    
    18   27   11 1    
    19   28   11 1    
    20   37   12 1    
    21   38   12 1    
    22   39   12 1    
    23   15   14 1    
    24   29   14 1    
    25   16   15 1    
    26   30   15 1    
    27   31   15 1    
    28   17   16 1    
    29   18   16 1    
    30   32   16 1    
    31   40   17 1    
    32   19   18 1    
    33   20   18 1    
    34   33   18 1    
    35   41   19 1    
    36   21   20 1    
    37   22   20 1    
    38   34   20 1    
    39   42   21 1    
    40   23   22 1    
    41   35   22 1    
    42   36   22 1    
    43   43   23 1    
@<TRIPOS>SUBSTRUCTURE
     1 Y19201      1 GROUP   
@<TRIPOS>SET

