#    Name: 4ige_CHJ_1_INTS_M
#    Modification time : Tue Mar 25 03:55:24 2014

@<TRIPOS>MOLECULE
4ige_CHJ_1_INTS_M
   53     0     9     0     0
SMALL
NO_CHARGES


@<TRIPOS>ATOM
      1 N          48.1235   91.0185   33.4010 N.am      2 SEC2        0.0000 
      2 N          48.5860   92.2150   32.9880 N.am      8 SEL2        0.0000 
      3 N          47.6610   89.8220   33.8140 N.am      5 SEP2        0.0000 
      4 O          48.6380   92.2010   31.7465 O.2       1 ALC1        0.0000 
      5 O          48.5860   92.2150   32.9880 O.2       7 ALL1        0.0000 
      6 O          48.6900   92.1870   30.5050 O.2       4 ALP1        0.0000 
      7 CA         47.2170   94.4260   32.3605 C.3       3 GLC5        0.0000 
      8 CA         48.8970   94.5100   33.5260 C.3       9 GLL5        0.0000 
      9 CA         45.5370   94.3420   31.1950 C.3       6 GLP5        0.0000 
     10 CA         48.1955   97.7570   32.6410 C.3       3 GLC5        0.0000 
     11 CA         49.2920   97.1540   33.8770 C.3       9 GLL5        0.0000 
     12 CA         47.0990   98.3600   31.4050 C.3       6 GLP5        0.0000 
     13 CA         48.5965   98.6015   35.4045 C.3       3 GLC5        0.0000 
     14 CA         47.9010  100.0490   36.9320 C.3       6 GLP5        0.0000 
     15 CA         50.9680   97.5595   33.2565 C.3       3 GLC5        0.0000 
     16 CA         52.6440   97.9650   32.6360 C.3       6 GLP5        0.0000 
     17 CA         47.8100   95.8995   34.7450 C.3       3 GLC5        0.0000 
     18 CA         46.3280   94.6450   35.6130 C.3       6 GLP5        0.0000 
     19 CA         52.8100   90.1640   31.0075 C.3       3 GLC5        0.0000 
     20 CA         53.1650   90.2600   33.2230 C.3       9 GLL5        0.0000 
     21 CA         52.4550   90.0680   28.7920 C.3       6 GLP5        0.0000 
     22 CA         55.6410   87.4620   30.7970 C.3       3 GLC5        0.0000 
     23 CA         55.6290   88.6840   32.6120 C.3       9 GLL5        0.0000 
     24 CA         55.6530   86.2400   28.9820 C.3       6 GLP5        0.0000 
     25 CA         56.8080   89.8890   31.6695 C.3       3 GLC5        0.0000 
     26 CA         57.9870   91.0940   30.7270 C.3       6 GLP5        0.0000 
     27 CA         54.4255   88.5990   36.3415 C.3       3 GLC5        0.0000 
     28 CA         54.9810   87.3300   34.5920 C.3       9 GLL5        0.0000 
     29 CA         53.8700   89.8680   38.0910 C.3       6 GLP5        0.0000 
     30 CA         50.7652   89.0178   33.5730 C.3       3 GLC5        0.0000 
     31 CA         51.2890   90.6860   34.6470 C.3       9 GLL5        0.0000 
     32 CA         49.8630   87.1880   33.0570 C.3       6 GLP5        0.0000 
     33 CA         53.3753   92.4462   33.4310 C.3       3 GLC5        0.0000 
     34 CA         52.0460   91.0090   33.5310 C.3       9 GLL5        0.0000 
     35 CA         54.1450   94.2580   33.4850 C.3       6 GLP5        0.0000 
     36 CA         52.6627   90.0058   36.5682 C.3       3 GLC5        0.0000 
     37 CA         49.4923   89.9648   35.1262 C.3       3 GLC5        0.0000 
     38 CA         51.6220   89.6010   35.4440 C.3       9 GLL5        0.0000 
     39 CA         47.5290   89.7860   35.2070 C.3       6 GLP5        0.0000 
     40 CA         48.5940   91.3913   34.7157 C.3       3 GLC5        0.0000 
     41 CA         50.1410   92.8190   34.6990 C.3       9 GLL5        0.0000 
     42 CA         51.7528   94.7965   36.6292 C.3       3 GLC5        0.0000 
     43 CA         50.6240   95.1380   35.0800 C.3       9 GLL5        0.0000 
     44 CA         52.7550   95.1220   38.0470 C.3       6 GLP5        0.0000 
     45 CA         52.3558   94.2414   34.2677 C.3       3 GLC5        0.0000 
     46 CA         50.5949   97.0879   35.7839 C.3       3 GLC5        0.0000 
     47 CA         51.1480   98.4500   37.0110 C.3       6 GLP5        0.0000 
     48 CA         53.5053   89.4420   36.3263 C.3       3 GLC5        0.0000 
     49 CA         52.7380   88.8610   35.1140 C.3       9 GLL5        0.0000 
     50 CA         51.3623   88.1945   33.8505 C.3       3 GLC5        0.0000 
     51 CA         54.3286   86.5019   32.9245 C.3       3 GLC5        0.0000 
     52 CA         54.7180   88.3590   33.7600 C.3       9 GLL5        0.0000 
     53 CA         53.5800   85.0780   31.9600 C.3       6 GLP5        0.0000 
@<TRIPOS>BOND
@<TRIPOS>SUBSTRUCTURE
     1 ALC1        4 GROUP        1 X    ALC  0     ROOT ALC X 1
     2 SEC2        1 GROUP        1 X    SEC  0     **** SEC X 2
     3 GLC5        7 GROUP        1 X    GLC  0     **** GLC X 6
     4 ALP1        6 GROUP        1 Y    ALP  0     ROOT ALP Y 8
     5 SEP2        3 GROUP        1 Y    SEP  0     **** SEP Y 9
     6 GLP5        9 GROUP        1 Y    GLP  0     **** GLP Y 13
     7 ALL1        5 GROUP        1 Z    ALL  0     ROOT ALL Z 15
     8 SEL2        2 GROUP        1 Z    SEL  0     **** SEL Z 16
     9 GLL5        8 GROUP        1 Z    GLL  0     **** GLL Z 20
@<TRIPOS>SET

