#    Name: 4ige_CHJ_1_ligand
#    Modification time : Tue Mar 25 03:55:24 2014

@<TRIPOS>MOLECULE
4ige_CHJ_1_ligand
   32    34     1     0     0
SMALL
NO_CHARGES


@<TRIPOS>ATOM
      1 C1         52.0460   91.0090   33.5310 C.ar      1 CHJ501      0.0000 
      2 C2         51.2890   90.6860   34.6470 C.ar      1 CHJ501      0.0000 
      3 O13        50.2060   91.4660   35.0400 O.3       1 CHJ501      0.0000 
      4 C14        50.1410   92.8190   34.6990 C.ar      1 CHJ501      0.0000 
      5 C15        49.1770   93.1740   33.7500 C.ar      1 CHJ501      0.0000 
      6 O20        48.5860   92.2150   32.9880 O.3       1 CHJ501      0.0000 
      7 C16        48.8970   94.5100   33.5260 C.ar      1 CHJ501      0.0000 
      8 C17        49.6270   95.4730   34.1900 C.ar      1 CHJ501      0.0000 
      9 CL1        49.2920   97.1540   33.8770 Cl        1 CHJ501      0.0000 
     10 C18        50.6240   95.1380   35.0800 C.ar      1 CHJ501      0.0000 
     11 C19        50.8770   93.8040   35.3430 C.ar      1 CHJ501      0.0000 
     12 C3         51.6220   89.6010   35.4440 C.ar      1 CHJ501      0.0000 
     13 C4         52.7380   88.8610   35.1140 C.ar      1 CHJ501      0.0000 
     14 C5         53.5430   89.1710   34.0090 C.ar      1 CHJ501      0.0000 
     15 C6         53.1650   90.2600   33.2230 C.ar      1 CHJ501      0.0000 
     16 C7         54.7180   88.3590   33.7600 C.2       1 CHJ501      0.0000 
     17 C12        55.6290   88.6840   32.6120 C.3       1 CHJ501      0.0000 
     18 C8         54.9810   87.3300   34.5920 C.2       1 CHJ501      0.0000 
     19 C9         54.1350   86.9980   35.7340 C.2       1 CHJ501      0.0000 
     20 O10        54.2820   86.0710   36.4930 O.2       1 CHJ501      0.0000 
     21 O11        53.0320   87.7970   35.9470 O.3       1 CHJ501      0.0000 
     22 H          51.7736   91.8030   32.9369 H         1 CHJ501      0.0000 
     23 H          48.1531   94.7796   32.8719 H         1 CHJ501      0.0000 
     24 H          51.1750   95.8696   35.5446 H         1 CHJ501      0.0000 
     25 H          51.6103   93.5394   36.0156 H         1 CHJ501      0.0000 
     26 H          51.0523   89.3588   36.2549 H         1 CHJ501      0.0000 
     27 H          53.7380   90.5065   32.3945 H         1 CHJ501      0.0000 
     28 H          55.8159   86.7167   34.4515 H         1 CHJ501      0.0000 
     29 H          56.0154   89.6027   32.6931 H         1 CHJ501      0.0000 
     30 H          56.3975   88.0467   32.5558 H         1 CHJ501      0.0000 
     31 H          55.1502   88.6438   31.7350 H         1 CHJ501      0.0000 
     32 H          49.0220   92.2919   32.0913 H         1 CHJ501      0.0000 
@<TRIPOS>BOND
     1    2    1 ar   
     2   15    1 ar   
     3   22    1 1    
     4    3    2 1    
     5   12    2 ar   
     6    4    3 1    
     7    5    4 ar   
     8   11    4 ar   
     9    6    5 1    
    10    7    5 ar   
    11   32    6 1    
    12    8    7 ar   
    13   23    7 1    
    14    9    8 1    
    15   10    8 ar   
    16   11   10 ar   
    17   24   10 1    
    18   25   11 1    
    19   13   12 ar   
    20   26   12 1    
    21   14   13 ar   
    22   21   13 1    
    23   15   14 ar   
    24   16   14 1    
    25   27   15 1    
    26   17   16 1    
    27   18   16 2    
    28   29   17 1    
    29   30   17 1    
    30   31   17 1    
    31   19   18 1    
    32   28   18 1    
    33   20   19 2    
    34   21   19 1    
@<TRIPOS>SUBSTRUCTURE
     1 CHJ501      1 GROUP   
@<TRIPOS>SET

