#    Name: 1vji_FMN_1_INTS_M
#    Modification time : Tue Mar 25 07:56:48 2014

@<TRIPOS>MOLECULE
1vji_FMN_1_INTS_M
   76     0    12     0     0
SMALL
NO_CHARGES


@<TRIPOS>ATOM
      1 N          14.5655   39.7290   58.4100 N.am      2 SEC2        0.0000 
      2 N          14.6400   40.5530   59.5540 N.am     10 SEL2        0.0000 
      3 N          14.4910   38.9050   57.2660 N.am      6 SEP2        0.0000 
      4 N          15.7660   41.4235   59.5275 N.am      2 SEC2        0.0000 
      5 N          16.8920   42.2940   59.5010 N.am      6 SEP2        0.0000 
      6 O          12.3970   40.2320   58.2555 O.2       1 ALC1        0.0000 
      7 O          12.5570   41.2620   59.2380 O.2       9 ALL1        0.0000 
      8 O          12.2370   39.2020   57.2730 O.2       5 ALP1        0.0000 
      9 N           9.2975   42.3340   59.0975 N.am      2 SEC2        0.0000 
     10 N          10.5460   42.0780   58.6360 N.am     10 SEL2        0.0000 
     11 N           8.0490   42.5900   59.5590 N.am      6 SEP2        0.0000 
     12 N           9.9225   41.3355   57.3940 N.am      2 SEC2        0.0000 
     13 N           9.2990   40.5930   56.1520 N.am      6 SEP2        0.0000 
     14 N          10.0750   44.6965   59.0670 N.am      2 SEC2        0.0000 
     15 N          10.9740   44.4430   60.0290 N.am     10 SEL2        0.0000 
     16 N           9.1760   44.9500   58.1050 N.am      6 SEP2        0.0000 
     17 CA          9.5210   44.8390   60.1505 C.3       4 GLC5        0.0000 
     18 CA         11.3770   45.7270   60.5200 C.3      12 GLL5        0.0000 
     19 CA          7.6650   43.9510   59.7810 C.3       8 GLP5        0.0000 
     20 CA          9.1180   45.7320   59.4880 C.3       4 GLC5        0.0000 
     21 CA         10.4620   46.7750   60.5900 C.3      12 GLL5        0.0000 
     22 CA          7.7740   44.6890   58.3860 C.3       8 GLP5        0.0000 
     23 CA         10.0975   50.6245   59.3100 C.3       4 GLC5        0.0000 
     24 CA          9.8490   49.1840   60.8680 C.3      12 GLL5        0.0000 
     25 CA         10.3460   52.0650   57.7520 C.3       8 GLP5        0.0000 
     26 CA          9.8665   50.8520   61.6505 C.3       4 GLC5        0.0000 
     27 CA          9.8840   52.5200   62.4330 C.3       8 GLP5        0.0000 
     28 CA          8.9220   48.6855   62.2325 C.3       4 GLC5        0.0000 
     29 CA          7.9950   48.1870   63.5970 C.3       8 GLP5        0.0000 
     30 CA         13.6340   51.1155   61.5055 C.3       4 GLC5        0.0000 
     31 CA         12.5330   49.6440   61.8570 C.3      12 GLL5        0.0000 
     32 CA         14.7350   52.5870   61.1540 C.3       8 GLP5        0.0000 
     33 CA         11.8235   51.4240   62.1215 C.3       4 GLC5        0.0000 
     34 CA         11.1140   53.2040   62.3860 C.3       8 GLP5        0.0000 
     35 CA         14.5270   47.0865   58.8125 C.3       4 GLC5        0.0000 
     36 CA         15.8160   45.8420   59.9050 C.3      12 GLL5        0.0000 
     37 CA         13.2380   48.3310   57.7200 C.3       8 GLP5        0.0000 
     38 N          16.3550   43.6250   59.1540 N.am      2 SEC2        0.0000 
     39 N          15.8180   44.9560   58.8070 N.am     10 SEL2        0.0000 
     40 N          17.2755   44.1650   58.7525 N.am      2 SEC2        0.0000 
     41 N          18.7330   43.3740   58.6980 N.am      6 SEP2        0.0000 
     42 O          14.6690   44.7605   58.1510 O.2       1 ALC1        0.0000 
     43 O          15.8180   44.9560   58.8070 O.2       9 ALL1        0.0000 
     44 O          13.5200   44.5650   57.4950 O.2       5 ALP1        0.0000 
     45 N          17.4870   43.7705   60.1450 N.am      2 SEC2        0.0000 
     46 N          18.0820   45.2470   60.7890 N.am     10 SEL2        0.0000 
     47 N          18.4075   44.3105   59.7435 N.am      2 SEC2        0.0000 
     48 CA         20.3625   47.6825   62.0820 C.3       4 GLC5        0.0000 
     49 CA         18.5550   47.9540   61.8910 C.3      12 GLL5        0.0000 
     50 CA         22.1700   47.4110   62.2730 C.3       8 GLP5        0.0000 
     51 NZ         19.1700   51.3650   62.7685 N.4       3 LYC4        0.0000 
     52 NZ         19.7950   50.7410   61.6050 N.4      11 LYL4        0.0000 
     53 NZ         17.3120   52.5430   63.7830 N.4       7 LYP4        0.0000 
     54 N          21.0140   50.2680   62.0745 N.am      2 SEC2        0.0000 
     55 N          19.7950   50.7410   61.6050 N.am     10 SEL2        0.0000 
     56 N          22.2330   49.7950   62.5440 N.am      6 SEP2        0.0000 
     57 N          19.1700   51.3650   62.7685 N.am      2 SEC2        0.0000 
     58 N          18.5450   51.9890   63.9320 N.am      6 SEP2        0.0000 
     59 NZ         17.0320   51.4555   61.7175 N.4       3 LYC4        0.0000 
     60 NZ         17.5030   50.6390   60.7000 N.4      11 LYL4        0.0000 
     61 N          16.7445   51.1345   59.5880 N.am      2 SEC2        0.0000 
     62 N          17.5030   50.6390   60.7000 N.am     10 SEL2        0.0000 
     63 N          15.9860   51.6300   58.4760 N.am      6 SEP2        0.0000 
     64 N          17.0320   51.4555   61.7175 N.am      2 SEC2        0.0000 
     65 N          16.5610   52.2720   62.7350 N.am      6 SEP2        0.0000 
     66 N          18.6310   50.1775   58.0250 N.am      2 SEC2        0.0000 
     67 N          19.4070   50.4320   59.1800 N.am     10 SEL2        0.0000 
     68 N          17.8550   49.9230   56.8700 N.am      6 SEP2        0.0000 
     69 CA         11.0117   46.0370   58.7245 C.3       4 GLC5        0.0000 
     70 CA         11.1040   45.8230   56.8940 C.3       8 GLP5        0.0000 
     71 CA         12.6135   48.6080   59.6551 C.3       4 GLC5        0.0000 
     72 CA         10.7870   48.0200   61.1140 C.3      12 GLL5        0.0000 
     73 CA         13.0545   47.4530   59.4720 C.3       4 GLC5        0.0000 
     74 CA         13.0500   47.1950   61.4820 C.3      12 GLL5        0.0000 
     75 CA         16.7978   46.1418   58.0705 C.3       4 GLC5        0.0000 
     76 CA         17.0620   46.2040   56.0220 C.3       8 GLP5        0.0000 
@<TRIPOS>BOND
@<TRIPOS>SUBSTRUCTURE
     1 ALC1        6 GROUP        1 X    ALC  0     ROOT ALC X 1
     2 SEC2        1 GROUP        1 X    SEC  0     **** SEC X 2
     3 LYC4       51 GROUP        1 X    LYC  0     **** LYC X 4
     4 GLC5       17 GROUP        1 X    GLC  0     **** GLC X 6
     5 ALP1        8 GROUP        1 Y    ALP  0     ROOT ALP Y 8
     6 SEP2        3 GROUP        1 Y    SEP  0     **** SEP Y 9
     7 LYP4       53 GROUP        1 Y    LYP  0     **** LYP Y 11
     8 GLP5       19 GROUP        1 Y    GLP  0     **** GLP Y 13
     9 ALL1        7 GROUP        1 Z    ALL  0     ROOT ALL Z 15
    10 SEL2        2 GROUP        1 Z    SEL  0     **** SEL Z 16
    11 LYL4       52 GROUP        1 Z    LYL  0     **** LYL Z 18
    12 GLL5       18 GROUP        1 Z    GLL  0     **** GLL Z 20
@<TRIPOS>SET

