#    Name: 1vji_FMN_1_ligand
#    Modification time : Tue Mar 25 07:56:48 2014

@<TRIPOS>MOLECULE
1vji_FMN_1_ligand
   50    52     1     0     0
SMALL
NO_CHARGES


@<TRIPOS>ATOM
      1 N1         14.1900   42.6630   60.2290 N.2       1 FMN373      0.0000 
      2 C2         13.8200   41.4600   59.6940 C.2       1 FMN373      0.0000 
      3 O2         14.6400   40.5530   59.5540 O.2       1 FMN373      0.0000 
      4 N3         12.5570   41.2620   59.2380 N.am      1 FMN373      0.0000 
      5 C4         11.5860   42.2130   59.3540 C.2       1 FMN373      0.0000 
      6 O4         10.5460   42.0780   58.6360 O.2       1 FMN373      0.0000 
      7 C4A        11.9290   43.4260   59.9410 C.2       1 FMN373      0.0000 
      8 N5         10.9740   44.4430   60.0290 N.2       1 FMN373      0.0000 
      9 C5A        11.3770   45.7270   60.5200 C.ar      1 FMN373      0.0000 
     10 C6         10.4620   46.7750   60.5900 C.ar      1 FMN373      0.0000 
     11 C7         10.7870   48.0200   61.1140 C.ar      1 FMN373      0.0000 
     12 C7M         9.8490   49.1840   60.8680 C.3       1 FMN373      0.0000 
     13 C8         12.1030   48.2320   61.5330 C.ar      1 FMN373      0.0000 
     14 C8M        12.5330   49.6440   61.8570 C.3       1 FMN373      0.0000 
     15 C9         13.0500   47.1950   61.4820 C.ar      1 FMN373      0.0000 
     16 C9A        12.6920   45.9550   60.9660 C.ar      1 FMN373      0.0000 
     17 N10        13.6380   44.9200   60.8200 N.pl3     1 FMN373      0.0000 
     18 C10        13.2360   43.6610   60.3580 C.2       1 FMN373      0.0000 
     19 C1'        15.1040   45.1820   61.0980 C.3       1 FMN373      0.0000 
     20 C2'        15.8160   45.8420   59.9050 C.3       1 FMN373      0.0000 
     21 O2'        15.8180   44.9560   58.8070 O.3       1 FMN373      0.0000 
     22 C3'        17.2510   46.3170   60.3330 C.3       1 FMN373      0.0000 
     23 O3'        18.0820   45.2470   60.7890 O.3       1 FMN373      0.0000 
     24 C4'        17.1830   47.3770   61.4820 C.3       1 FMN373      0.0000 
     25 O4'        16.2490   48.4330   61.1800 O.3       1 FMN373      0.0000 
     26 C5'        18.5550   47.9540   61.8910 C.3       1 FMN373      0.0000 
     27 O5'        19.0130   48.5270   60.6970 O.3       1 FMN373      0.0000 
     28 P          18.9500   50.1850   60.5900 P.3       1 FMN373      0.0000 
     29 O1P        19.7950   50.7410   61.6050 O.co2     1 FMN373      0.0000 
     30 O2P        17.5030   50.6390   60.7000 O.co2     1 FMN373      0.0000 
     31 O3P        19.4070   50.4320   59.1800 O.co2     1 FMN373      0.0000 
     32 H          12.3160   40.3453   58.7793 H         1 FMN373      0.0000 
     33 H           9.4908   46.6166   60.2330 H         1 FMN373      0.0000 
     34 H          14.0014   47.3596   61.8264 H         1 FMN373      0.0000 
     35 H          15.6085   44.2372   61.3282 H         1 FMN373      0.0000 
     36 H          15.2007   45.8377   61.9702 H         1 FMN373      0.0000 
     37 H          15.2455   46.7560   59.6749 H         1 FMN373      0.0000 
     38 H          17.7000   46.8206   59.4780 H         1 FMN373      0.0000 
     39 H          16.8030   46.8204   62.3815 H         1 FMN373      0.0000 
     40 H          19.1592   47.1382   62.2295 H         1 FMN373      0.0000 
     41 H          18.3843   48.6703   62.6675 H         1 FMN373      0.0000 
     42 H          10.1856   50.0272   61.2871 H         1 FMN373      0.0000 
     43 H           9.7332   49.3678   59.8919 H         1 FMN373      0.0000 
     44 H           8.9383   49.0130   61.2441 H         1 FMN373      0.0000 
     45 H          13.4888   49.6836   62.1483 H         1 FMN373      0.0000 
     46 H          12.4420   50.2504   61.0671 H         1 FMN373      0.0000 
     47 H          11.9852   50.0391   62.5945 H         1 FMN373      0.0000 
     48 H          14.8694   44.9329   58.4915 H         1 FMN373      0.0000 
     49 H          17.8159   45.1008   61.7418 H         1 FMN373      0.0000 
     50 H          16.8154   49.2414   61.0199 H         1 FMN373      0.0000 
@<TRIPOS>BOND
     1    2    1 1    
     2   18    1 2    
     3    3    2 2    
     4    4    2 am   
     5    5    4 am   
     6   32    4 1    
     7    6    5 2    
     8    7    5 1    
     9    8    7 2    
    10   18    7 1    
    11    9    8 1    
    12   10    9 ar   
    13   16    9 ar   
    14   11   10 ar   
    15   33   10 1    
    16   12   11 1    
    17   13   11 ar   
    18   42   12 1    
    19   43   12 1    
    20   44   12 1    
    21   14   13 1    
    22   15   13 ar   
    23   45   14 1    
    24   46   14 1    
    25   47   14 1    
    26   16   15 ar   
    27   34   15 1    
    28   17   16 1    
    29   18   17 1    
    30   19   17 1    
    31   20   19 1    
    32   35   19 1    
    33   36   19 1    
    34   21   20 1    
    35   22   20 1    
    36   37   20 1    
    37   48   21 1    
    38   23   22 1    
    39   24   22 1    
    40   38   22 1    
    41   49   23 1    
    42   25   24 1    
    43   26   24 1    
    44   39   24 1    
    45   50   25 1    
    46   27   26 1    
    47   40   26 1    
    48   41   26 1    
    49   28   27 1    
    50   29   28 ar   
    51   30   28 ar   
    52   31   28 ar   
@<TRIPOS>SUBSTRUCTURE
     1 FMN373      1 GROUP   
@<TRIPOS>SET

