#    Name: 4ehy_ADP_1_INTS_M
#    Modification time : Mon Mar 24 17:52:26 2014

@<TRIPOS>MOLECULE
4ehy_ADP_1_INTS_M
   77     0    15     0     0
SMALL
NO_CHARGES


@<TRIPOS>ATOM
      1 NZ          6.6930   -2.6480   -5.8280 N.4       3 LYC4        0.0000 
      2 NZ          7.6060   -3.0630   -4.2190 N.4      13 LYL4        0.0000 
      3 NZ          5.7800   -2.2330   -7.4370 N.4       8 LYP4        0.0000 
      4 Zn          8.3665   -2.4895   -4.6445 Zn        4 ZIC7        0.0000 
      5 Zn          7.6060   -3.0630   -4.2190 Zn       14 ZIL7        0.0000 
      6 Zn          9.1270   -1.9160   -5.0700 Zn        9 ZIP7        0.0000 
      7 NZ          5.4635   -2.7860   -6.1010 N.4       3 LYC4        0.0000 
      8 NZ          5.1470   -3.3390   -4.7650 N.4      13 LYL4        0.0000 
      9 N           3.8450   -2.8210   -4.3900 N.am      2 SEC2        0.0000 
     10 N           5.1470   -3.3390   -4.7650 N.am     12 SEL2        0.0000 
     11 N           2.5430   -2.3030   -4.0150 N.am      7 SEP2        0.0000 
     12 N           3.8175   -2.9120   -5.6565 N.am      2 SEC2        0.0000 
     13 N           2.4880   -2.4850   -6.5480 N.am      7 SEP2        0.0000 
     14 N           4.3905   -4.8395   -5.1385 N.am      2 SEC2        0.0000 
     15 N           3.6340   -6.3400   -5.5120 N.am      7 SEP2        0.0000 
     16 N           5.4635   -2.7860   -6.1010 N.am      2 SEC2        0.0000 
     17 N           5.7800   -2.2330   -7.4370 N.am      7 SEP2        0.0000 
     18 N           6.3445   -6.4600   -4.6170 N.am      2 SEC2        0.0000 
     19 N           6.4660   -5.2720   -3.8700 N.am     12 SEL2        0.0000 
     20 N           6.2230   -7.6480   -5.3640 N.am      7 SEP2        0.0000 
     21 N           7.5480   -5.9725   -4.1150 N.am      2 SEC2        0.0000 
     22 N           8.6300   -6.6730   -4.3600 N.am      7 SEP2        0.0000 
     23 NZ          9.1075   -1.9775   -1.1380 N.4       3 LYC4        0.0000 
     24 NZ          7.6270   -1.8420   -1.1070 N.4      13 LYL4        0.0000 
     25 NZ         10.5880   -2.1130   -1.1690 N.4       8 LYP4        0.0000 
     26 N           7.6070   -0.4955   -0.5800 N.am      2 SEC2        0.0000 
     27 N           7.6270   -1.8420   -1.1070 N.am     12 SEL2        0.0000 
     28 N           7.5870    0.8510   -0.0530 N.am      7 SEP2        0.0000 
     29 N           9.1075   -1.9775   -1.1380 N.am      2 SEC2        0.0000 
     30 N          10.5880   -2.1130   -1.1690 N.am      7 SEP2        0.0000 
     31 CA          7.6410   -6.7840   -2.3475 C.3       5 GLC5        0.0000 
     32 CA          7.0770   -5.6080   -0.7850 C.3      15 GLL5        0.0000 
     33 CA          8.2050   -7.9600   -3.9100 C.3      10 GLP5        0.0000 
     34 CA          5.5860   -8.9750    1.4705 C.3       5 GLC5        0.0000 
     35 CA          7.1070   -7.5900    0.6870 C.3      15 GLL5        0.0000 
     36 CA          4.0650  -10.3600    2.2540 C.3      10 GLP5        0.0000 
     37 O           6.1245   -9.1680   -0.4070 O.2       1 ALC1        0.0000 
     38 O           7.6140   -8.6840   -0.0720 O.2      11 ALL1        0.0000 
     39 O           4.6350   -9.6520   -0.7420 O.2       6 ALP1        0.0000 
     40 CA          8.1125   -8.4915    3.9890 C.3       5 GLC5        0.0000 
     41 CA          7.3800   -7.7380    2.1660 C.3      15 GLL5        0.0000 
     42 CA          8.8450   -9.2450    5.8120 C.3      10 GLP5        0.0000 
     43 CA          5.8760   -8.9435    2.8850 C.3       5 GLC5        0.0000 
     44 CA          4.3720  -10.1490    3.6040 C.3      10 GLP5        0.0000 
     45 N          10.1060   -7.9550    3.1035 N.am      2 SEC2        0.0000 
     46 N           8.6560   -8.3630    2.3300 N.am     12 SEL2        0.0000 
     47 N          11.5560   -7.5470    3.8770 N.am      7 SEP2        0.0000 
     48 CA          8.1440   -4.4085    3.0015 C.3       5 GLC5        0.0000 
     49 CA          7.5150   -6.3090    2.6530 C.3      15 GLL5        0.0000 
     50 CA          8.7730   -2.5080    3.3500 C.3      10 GLP5        0.0000 
     51 CA          8.0760   -6.1400    4.4130 C.3       5 GLC5        0.0000 
     52 CA          8.6370   -5.9710    6.1730 C.3      10 GLP5        0.0000 
     53 N           2.8805   -5.3580    2.8235 N.am      2 SEC2        0.0000 
     54 N           4.3150   -4.6500    3.3370 N.am     12 SEL2        0.0000 
     55 N           1.4460   -6.0660    2.3100 N.am      7 SEP2        0.0000 
     56 N           3.6725   -3.4410    3.2330 N.am      2 SEC2        0.0000 
     57 N           3.0300   -2.2320    3.1290 N.am      7 SEP2        0.0000 
     58 CA          5.4630   -3.6930    4.3750 C.3       5 GLC5        0.0000 
     59 CA          4.3220   -5.5280    4.3580 C.3      15 GLL5        0.0000 
     60 CA          6.6040   -1.8580    4.3920 C.3      10 GLP5        0.0000 
     61 CA          3.7060   -3.8820    6.3845 C.3       5 GLC5        0.0000 
     62 CA          3.4140   -5.8500    5.4860 C.3      15 GLL5        0.0000 
     63 CA          3.9980   -1.9140    7.2830 C.3      10 GLP5        0.0000 
     64 O           1.6785   -4.2085    4.7380 O.2       1 ALC1        0.0000 
     65 O           2.2310   -5.1840    5.6750 O.2      11 ALL1        0.0000 
     66 O           1.1260   -3.2330    3.8010 O.2       6 ALP1        0.0000 
     67 CA          6.3210   -6.2125    6.4180 C.3       5 GLC5        0.0000 
     68 CA          4.9660   -7.5070    6.1530 C.3      15 GLL5        0.0000 
     69 CA          7.6760   -4.9180    6.6830 C.3      10 GLP5        0.0000 
     70 CA          6.9055   -8.3760    5.9825 C.3       5 GLC5        0.0000 
     71 CA          9.1973   -4.9447    0.1542 C.3       5 GLC5        0.0000 
     72 CA          7.8440   -6.3250    0.3200 C.3      15 GLL5        0.0000 
     73 CA         10.9340   -3.9230    0.5410 C.3      10 GLP5        0.0000 
     74 CA          9.3797   -6.3872    2.3148 C.3       5 GLC5        0.0000 
     75 CA         11.3120   -5.7510    2.2200 C.3      10 GLP5        0.0000 
     76 CA          6.3102   -5.4168    5.4910 C.3       5 GLC5        0.0000 
     77 CA          5.5670   -6.3030    4.2400 C.3      15 GLL5        0.0000 
@<TRIPOS>BOND
@<TRIPOS>SUBSTRUCTURE
     1 ALC1       37 GROUP        1 X    ALC  0     ROOT ALC X 1
     2 SEC2        9 GROUP        1 X    SEC  0     **** SEC X 2
     3 LYC4        1 GROUP        1 X    LYC  0     **** LYC X 4
     4 ZIC7        4 GROUP        1 X    ZIC  0     **** ZIC X 5
     5 GLC5       31 GROUP        1 X    GLC  0     **** GLC X 6
     6 ALP1       39 GROUP        1 Y    ALP  0     ROOT ALP Y 8
     7 SEP2       11 GROUP        1 Y    SEP  0     **** SEP Y 9
     8 LYP4        3 GROUP        1 Y    LYP  0     **** LYP Y 11
     9 ZIP7        6 GROUP        1 Y    ZIP  0     **** ZIP Y 12
    10 GLP5       33 GROUP        1 Y    GLP  0     **** GLP Y 13
    11 ALL1       38 GROUP        1 Z    ALL  0     ROOT ALL Z 15
    12 SEL2       10 GROUP        1 Z    SEL  0     **** SEL Z 16
    13 LYL4        2 GROUP        1 Z    LYL  0     **** LYL Z 18
    14 ZIL7        5 GROUP        1 Z    ZIL  0     **** ZIL Z 19
    15 GLL5       32 GROUP        1 Z    GLL  0     **** GLL Z 20
@<TRIPOS>SET

