#    Name: 4ehy_ADP_1_ligand
#    Modification time : Mon Mar 24 17:52:26 2014

@<TRIPOS>MOLECULE
4ehy_ADP_1_ligand
   39    41     1     0     0
SMALL
NO_CHARGES


@<TRIPOS>ATOM
      1 PB          6.3110   -3.7660   -3.8990 P.3       1 ADP401      0.0000 
      2 O1B         7.6060   -3.0630   -4.2190 O.co2     1 ADP401      0.0000 
      3 O2B         5.1470   -3.3390   -4.7650 O.co2     1 ADP401      0.0000 
      4 O3B         6.4660   -5.2720   -3.8700 O.co2     1 ADP401      0.0000 
      5 PA          6.7090   -3.0310   -1.0710 P.3       1 ADP401      0.0000 
      6 O1A         5.6120   -3.1120   -0.0460 O.co2     1 ADP401      0.0000 
      7 O2A         7.6270   -1.8420   -1.1070 O.co2     1 ADP401      0.0000 
      8 O3A         5.8710   -3.2430   -2.4460 O.3       1 ADP401      0.0000 
      9 O5'         7.6460   -4.3140   -0.8970 O.3       1 ADP401      0.0000 
     10 C5'         7.0770   -5.6080   -0.7850 C.3       1 ADP401      0.0000 
     11 C4'         7.8440   -6.3250    0.3200 C.3       1 ADP401      0.0000 
     12 O4'         7.8680   -5.5080    1.5160 O.3       1 ADP401      0.0000 
     13 C3'         7.1070   -7.5900    0.6870 C.3       1 ADP401      0.0000 
     14 O3'         7.6140   -8.6840   -0.0720 O.3       1 ADP401      0.0000 
     15 C2'         7.3800   -7.7380    2.1660 C.3       1 ADP401      0.0000 
     16 O2'         8.6560   -8.3630    2.3300 O.3       1 ADP401      0.0000 
     17 C1'         7.5150   -6.3090    2.6530 C.3       1 ADP401      0.0000 
     18 N9          6.1980   -5.8430    3.1580 N.pl3     1 ADP401      0.0000 
     19 C8          5.4560   -4.8520    2.6270 C.2       1 ADP401      0.0000 
     20 N7          4.3150   -4.6500    3.3370 N.2       1 ADP401      0.0000 
     21 C5          4.3220   -5.5280    4.3580 C.ar      1 ADP401      0.0000 
     22 C6          3.4140   -5.8500    5.4860 C.ar      1 ADP401      0.0000 
     23 N6          2.2310   -5.1840    5.6750 N.pl3     1 ADP401      0.0000 
     24 N1          3.8100   -6.8360    6.3180 N.ar      1 ADP401      0.0000 
     25 C2          4.9660   -7.5070    6.1530 C.ar      1 ADP401      0.0000 
     26 N3          5.8300   -7.2710    5.1510 N.ar      1 ADP401      0.0000 
     27 C4          5.5670   -6.3030    4.2400 C.ar      1 ADP401      0.0000 
     28 H           7.1852   -6.1858   -1.6968 H         1 ADP401      0.0000 
     29 H           6.0310   -5.5747   -0.4991 H         1 ADP401      0.0000 
     30 H           8.8151   -6.5658   -0.0111 H         1 ADP401      0.0000 
     31 H           6.0675   -7.4198    0.5470 H         1 ADP401      0.0000 
     32 H           6.6016   -8.2072    2.6389 H         1 ADP401      0.0000 
     33 H           8.2445   -6.2629    3.4105 H         1 ADP401      0.0000 
     34 H           5.7031   -4.3359    1.8266 H         1 ADP401      0.0000 
     35 H           1.7915   -4.8253    4.8514 H         1 ADP401      0.0000 
     36 H           1.9109   -5.1151    6.6199 H         1 ADP401      0.0000 
     37 H           5.2092   -8.2709    6.8602 H         1 ADP401      0.0000 
     38 H           6.8034   -9.1719   -0.3959 H         1 ADP401      0.0000 
     39 H           8.7701   -8.9352    1.5178 H         1 ADP401      0.0000 
@<TRIPOS>BOND
     1    2    1 ar   
     2    3    1 ar   
     3    4    1 ar   
     4    8    1 1    
     5    6    5 ar   
     6    7    5 ar   
     7    8    5 1    
     8    9    5 1    
     9   10    9 1    
    10   11   10 1    
    11   28   10 1    
    12   29   10 1    
    13   12   11 1    
    14   13   11 1    
    15   30   11 1    
    16   17   12 1    
    17   14   13 1    
    18   15   13 1    
    19   31   13 1    
    20   38   14 1    
    21   16   15 1    
    22   17   15 1    
    23   32   15 1    
    24   39   16 1    
    25   18   17 1    
    26   33   17 1    
    27   19   18 1    
    28   27   18 1    
    29   20   19 2    
    30   34   19 1    
    31   21   20 1    
    32   22   21 ar   
    33   27   21 ar   
    34   23   22 1    
    35   24   22 ar   
    36   35   23 1    
    37   36   23 1    
    38   25   24 ar   
    39   26   25 ar   
    40   37   25 1    
    41   27   26 ar   
@<TRIPOS>SUBSTRUCTURE
     1 ADP401      1 GROUP   
@<TRIPOS>SET

