#    Name: 3ldo_ANP_1_INTS_M
#    Modification time : Mon Mar 24 21:32:32 2014

@<TRIPOS>MOLECULE
3ldo_ANP_1_INTS_M
   69     0     6     0     0
SMALL
NO_CHARGES


@<TRIPOS>ATOM
      1 N          18.2195    2.9215    5.8430 N.am      1 SEC2        0.0000 
      2 N          18.5590    2.4910    4.3670 N.am      5 SEL2        0.0000 
      3 N          17.8800    3.3520    7.3190 N.am      3 SEP2        0.0000 
      4 N          18.2875    3.7690    4.5505 N.am      1 SEC2        0.0000 
      5 N          18.0160    5.0470    4.7340 N.am      3 SEP2        0.0000 
      6 N          19.3160    0.1485    5.5885 N.am      1 SEC2        0.0000 
      7 N          20.3970    1.0990    5.2480 N.am      5 SEL2        0.0000 
      8 N          18.2350   -0.8020    5.9290 N.am      3 SEP2        0.0000 
      9 N          19.8660    1.0460    6.4960 N.am      1 SEC2        0.0000 
     10 N          19.3350    0.9930    7.7440 N.am      3 SEP2        0.0000 
     11 N          22.2240    2.8270    3.2285 N.am      1 SEC2        0.0000 
     12 N          20.8360    2.9470    3.4590 N.am      5 SEL2        0.0000 
     13 N          23.6120    2.7070    2.9980 N.am      3 SEP2        0.0000 
     14 N          21.6015    3.7990    4.0410 N.am      1 SEC2        0.0000 
     15 N          22.3670    4.6510    4.6230 N.am      3 SEP2        0.0000 
     16 N          22.9325    0.3335    3.8100 N.am      1 SEC2        0.0000 
     17 N          21.9670    0.0680    2.8320 N.am      5 SEL2        0.0000 
     18 N          23.8980    0.5990    4.7880 N.am      3 SEP2        0.0000 
     19 N          21.8675   -0.5725    4.1870 N.am      1 SEC2        0.0000 
     20 N          21.7680   -1.2130    5.5420 N.am      3 SEP2        0.0000 
     21 N          23.0160   -0.9015    3.0590 N.am      1 SEC2        0.0000 
     22 N          24.0650   -1.8710    3.2860 N.am      3 SEP2        0.0000 
     23 N          16.8780   -2.8215    1.4365 N.am      1 SEC2        0.0000 
     24 N          18.1010   -1.8970    1.2910 N.am      5 SEL2        0.0000 
     25 N          15.6550   -3.7460    1.5820 N.am      3 SEP2        0.0000 
     26 N          17.0000   -3.4480    2.5005 N.am      1 SEC2        0.0000 
     27 N          18.3450   -3.1500    3.4190 N.am      5 SEL2        0.0000 
     28 CA         20.8310   -4.1570    4.5615 C.3       2 GLC5        0.0000 
     29 CA         19.0320   -3.7380    4.4650 C.3       6 GLL5        0.0000 
     30 CA         22.6300   -4.5760    4.6580 C.3       4 GLP5        0.0000 
     31 N          17.4370   -5.7375    8.8295 N.am      1 SEC2        0.0000 
     32 N          18.3610   -4.7350    7.8420 N.am      5 SEL2        0.0000 
     33 N          16.5130   -6.7400    9.8170 N.am      3 SEP2        0.0000 
     34 N          19.1900   -8.4865    7.6255 N.am      1 SEC2        0.0000 
     35 N          18.4310   -7.3100    7.4360 N.am      5 SEL2        0.0000 
     36 N          19.9490   -9.6630    7.8150 N.am      3 SEP2        0.0000 
     37 N          17.4720   -7.0250    8.6265 N.am      1 SEC2        0.0000 
     38 CA         16.2780   -5.7245    3.8850 C.3       2 GLC5        0.0000 
     39 CA         17.0410   -6.3530    5.6620 C.3       6 GLL5        0.0000 
     40 CA         15.5150   -5.0960    2.1080 C.3       4 GLP5        0.0000 
     41 CA         12.4920  -11.1985    4.5635 C.3       2 GLC5        0.0000 
     42 CA         14.3280  -10.2080    4.3430 C.3       6 GLL5        0.0000 
     43 CA         10.6560  -12.1890    4.7840 C.3       4 GLP5        0.0000 
     44 N          12.1390  -10.5390    5.4390 N.am      1 SEC2        0.0000 
     45 N          13.3870  -10.0690    5.3310 N.am      5 SEL2        0.0000 
     46 N          10.8910  -11.0090    5.5470 N.am      3 SEP2        0.0000 
     47 CA         13.7920   -9.2975    8.2355 C.3       2 GLC5        0.0000 
     48 CA         13.4930   -9.0090    6.2560 C.3       6 GLL5        0.0000 
     49 CA         14.0910   -9.5860   10.2150 C.3       4 GLP5        0.0000 
     50 CA         14.2930  -10.8810    6.6540 C.3       2 GLC5        0.0000 
     51 CA         15.0930  -12.7530    7.0520 C.3       4 GLP5        0.0000 
     52 CA         11.9650   -8.1095    6.6805 C.3       2 GLC5        0.0000 
     53 CA         10.4370   -7.2100    7.1050 C.3       4 GLP5        0.0000 
     54 CA         15.4875   -6.6840    3.6495 C.3       2 GLC5        0.0000 
     55 CA         15.4600   -8.2720    5.1910 C.3       6 GLL5        0.0000 
     56 CA         17.5340   -2.1555    4.6510 C.3       2 GLC5        0.0000 
     57 CA         18.0780   -4.2740    5.4650 C.3       6 GLL5        0.0000 
     58 CA         16.5130   -0.3050    4.3370 C.3       4 GLP5        0.0000 
     59 CA         17.0350   -4.5510    3.5365 C.3       2 GLC5        0.0000 
     60 CA         20.6785   -5.5985    6.0795 C.3       2 GLC5        0.0000 
     61 CA         18.8440   -5.1020    6.5280 C.3       6 GLL5        0.0000 
     62 CA         22.7090   -5.3820    5.7880 C.3       4 GLP5        0.0000 
     63 CA         18.7802   -2.9260    6.4547 C.3       2 GLC5        0.0000 
     64 CA         18.8610   -1.2980    7.1630 C.3       4 GLP5        0.0000 
     65 CA         14.4113   -9.4995    2.6107 C.3       2 GLC5        0.0000 
     66 CA         15.3710   -9.2920    4.2620 C.3       6 GLL5        0.0000 
     67 CA         13.9730   -9.2490    0.9190 C.3       4 GLP5        0.0000 
     68 CA         16.1764  -10.2240    5.5504 C.3       2 GLC5        0.0000 
     69 CA         17.1980  -11.4370    6.3540 C.3       4 GLP5        0.0000 
@<TRIPOS>BOND
@<TRIPOS>SUBSTRUCTURE
     1 SEC2        1 GROUP        1 X    SEC  0     ROOT SEC X 2
     2 GLC5       28 GROUP        1 X    GLC  0     **** GLC X 6
     3 SEP2        3 GROUP        1 Y    SEP  0     ROOT SEP Y 9
     4 GLP5       30 GROUP        1 Y    GLP  0     **** GLP Y 13
     5 SEL2        2 GROUP        1 Z    SEL  0     ROOT SEL Z 16
     6 GLL5       29 GROUP        1 Z    GLL  0     **** GLL Z 20
@<TRIPOS>SET

