#    Name: 3ldo_ANP_1_ligand
#    Modification time : Mon Mar 24 21:32:32 2014

@<TRIPOS>MOLECULE
3ldo_ANP_1_ligand
   43    45     1     0     0
SMALL
NO_CHARGES


@<TRIPOS>ATOM
      1 PG         19.8550    1.9110    3.9390 P.3       1 ANP408      0.0000 
      2 O1G        18.5590    2.4910    4.3670 O.co2     1 ANP408      0.0000 
      3 O2G        20.3970    1.0990    5.2480 O.co2     1 ANP408      0.0000 
      4 O3G        20.8360    2.9470    3.4590 O.co2     1 ANP408      0.0000 
      5 PB         20.6380   -0.2190    2.1820 P.3       1 ANP408      0.0000 
      6 O1B        20.5570   -0.2590    0.6740 O.co2     1 ANP408      0.0000 
      7 O2B        21.9670    0.0680    2.8320 O.co2     1 ANP408      0.0000 
      8 N3B        19.4190    0.8130    2.7660 N.4       1 ANP408      0.0000 
      9 PA         19.0990   -2.6540    2.1150 P.3       1 ANP408      0.0000 
     10 O1A        19.8020   -3.8060    1.5190 O.co2     1 ANP408      0.0000 
     11 O2A        18.1010   -1.8970    1.2910 O.co2     1 ANP408      0.0000 
     12 O3A        20.1960   -1.6520    2.7600 O.3       1 ANP408      0.0000 
     13 O5'        18.3450   -3.1500    3.4190 O.3       1 ANP408      0.0000 
     14 C5'        19.0320   -3.7380    4.4650 C.3       1 ANP408      0.0000 
     15 C4'        18.0780   -4.2740    5.4650 C.3       1 ANP408      0.0000 
     16 O4'        17.1770   -5.2560    4.7570 O.3       1 ANP408      0.0000 
     17 C3'        18.8440   -5.1020    6.5280 C.3       1 ANP408      0.0000 
     18 O3'        18.3610   -4.7350    7.8420 O.3       1 ANP408      0.0000 
     19 C2'        18.4520   -6.5280    6.2140 C.3       1 ANP408      0.0000 
     20 O2'        18.4310   -7.3100    7.4360 O.3       1 ANP408      0.0000 
     21 C1'        17.0410   -6.3530    5.6620 C.3       1 ANP408      0.0000 
     22 N9         16.5640   -7.5690    4.9100 N.pl3     1 ANP408      0.0000 
     23 C8         17.1320   -8.1030    3.8120 C.2       1 ANP408      0.0000 
     24 N7         16.4140   -9.1830    3.4380 N.2       1 ANP408      0.0000 
     25 C5         15.3710   -9.2920    4.2620 C.ar      1 ANP408      0.0000 
     26 C6         14.3280  -10.2080    4.3430 C.ar      1 ANP408      0.0000 
     27 N6         14.2360  -11.2070    3.4650 N.pl3     1 ANP408      0.0000 
     28 N1         13.3870  -10.0690    5.3310 N.ar      1 ANP408      0.0000 
     29 C2         13.4930   -9.0090    6.2560 C.ar      1 ANP408      0.0000 
     30 N3         14.5170   -8.1490    6.1800 N.ar      1 ANP408      0.0000 
     31 C4         15.4600   -8.2720    5.1910 C.ar      1 ANP408      0.0000 
     32 H          19.7018   -3.0206    4.9793 H         1 ANP408      0.0000 
     33 H          19.6767   -4.5721    4.1237 H         1 ANP408      0.0000 
     34 H          17.5207   -3.5335    5.9283 H         1 ANP408      0.0000 
     35 H          19.8620   -4.9664    6.3906 H         1 ANP408      0.0000 
     36 H          19.0714   -6.9058    5.4704 H         1 ANP408      0.0000 
     37 H          16.3890   -6.1149    6.4579 H         1 ANP408      0.0000 
     38 H          17.9223   -7.7697    3.3648 H         1 ANP408      0.0000 
     39 H          14.9595  -11.2556    2.7764 H         1 ANP408      0.0000 
     40 H          13.4518  -11.8179    3.5741 H         1 ANP408      0.0000 
     41 H          12.7614   -8.9230    6.9832 H         1 ANP408      0.0000 
     42 H          17.8617   -5.5379    8.1676 H         1 ANP408      0.0000 
     43 H          17.6885   -7.9678    7.3094 H         1 ANP408      0.0000 
@<TRIPOS>BOND
     1    2    1 ar   
     2    3    1 ar   
     3    4    1 ar   
     4    8    1 1    
     5    6    5 ar   
     6    7    5 ar   
     7    8    5 1    
     8   12    5 1    
     9   10    9 ar   
    10   11    9 ar   
    11   12    9 1    
    12   13    9 1    
    13   14   13 1    
    14   15   14 1    
    15   32   14 1    
    16   33   14 1    
    17   16   15 1    
    18   17   15 1    
    19   34   15 1    
    20   21   16 1    
    21   18   17 1    
    22   19   17 1    
    23   35   17 1    
    24   42   18 1    
    25   20   19 1    
    26   21   19 1    
    27   36   19 1    
    28   43   20 1    
    29   22   21 1    
    30   37   21 1    
    31   23   22 1    
    32   31   22 1    
    33   24   23 2    
    34   38   23 1    
    35   25   24 1    
    36   26   25 ar   
    37   31   25 ar   
    38   27   26 1    
    39   28   26 ar   
    40   39   27 1    
    41   40   27 1    
    42   29   28 ar   
    43   30   29 ar   
    44   41   29 1    
    45   31   30 ar   
@<TRIPOS>SUBSTRUCTURE
     1 ANP408      1 GROUP   
@<TRIPOS>SET

