#    Name: 2h12_CMX_6_INTS_M
#    Modification time : Tue Mar 25 15:21:58 2014

@<TRIPOS>MOLECULE
2h12_CMX_6_INTS_M
  108     0    12     0     0
SMALL
NO_CHARGES


@<TRIPOS>ATOM
      1 N          63.3855  -36.8380   22.3410 N.am      2 SEC2        0.0000 
      2 N          62.7880  -37.3020   23.6560 N.am     10 SEL2        0.0000 
      3 N          63.9830  -36.3740   21.0260 N.am      6 SEP2        0.0000 
      4 CA         64.6770  -36.1215   24.4435 C.3       4 GLC5        0.0000 
      5 CA         63.0990  -36.7590   24.8190 C.3      12 GLL5        0.0000 
      6 CA         66.2550  -35.4840   24.0680 C.3       8 GLP5        0.0000 
      7 CA         61.9785  -35.4875   24.3670 C.3       4 GLC5        0.0000 
      8 CA         60.8580  -34.2160   23.9150 C.3       8 GLP5        0.0000 
      9 CA         62.9700  -38.6595   25.7740 C.3       4 GLC5        0.0000 
     10 CA         62.8410  -40.5600   26.7290 C.3       8 GLP5        0.0000 
     11 N          62.9190  -36.3605   27.0150 N.am      2 SEC2        0.0000 
     12 N          62.3070  -36.8740   25.8720 N.am     10 SEL2        0.0000 
     13 N          63.5310  -35.8470   28.1580 N.am      6 SEP2        0.0000 
     14 O          62.1135  -38.7165   21.1660 O.2       1 ALC1        0.0000 
     15 O          61.3590  -38.5580   22.3350 O.2       9 ALL1        0.0000 
     16 O          62.8680  -38.8750   19.9970 O.2       5 ALP1        0.0000 
     17 CA         61.5050  -38.2025   29.3665 C.3       4 GLC5        0.0000 
     18 CA         60.2030  -37.5910   28.1210 C.3      12 GLL5        0.0000 
     19 CA         62.8070  -38.8140   30.6120 C.3       8 GLP5        0.0000 
     20 CA         61.5220  -39.0755   27.4250 C.3       4 GLC5        0.0000 
     21 N          59.8920  -34.5400   27.3855 N.am      2 SEC2        0.0000 
     22 N          59.4770  -35.3240   28.4580 N.am     10 SEL2        0.0000 
     23 N          60.3070  -33.7560   26.3130 N.am      6 SEP2        0.0000 
     24 N          61.5165  -37.0640   31.0880 N.am      2 SEC2        0.0000 
     25 N          60.1500  -36.4800   30.6800 N.am     10 SEL2        0.0000 
     26 N          62.8830  -37.6480   31.4960 N.am      6 SEP2        0.0000 
     27 NZ         62.5485  -35.7590   32.8755 N.4       3 LYC4        0.0000 
     28 NZ         61.2550  -35.1940   32.6270 N.4      11 LYL4        0.0000 
     29 NZ         63.8690  -37.4130   32.3620 N.4       7 LYP4        0.0000 
     30 N          62.0690  -36.4210   32.0615 N.am      2 SEC2        0.0000 
     31 N          61.2550  -35.1940   32.6270 N.am     10 SEL2        0.0000 
     32 N          62.5485  -35.7590   32.8755 N.am      2 SEC2        0.0000 
     33 N          63.8420  -36.3240   33.1240 N.am      6 SEP2        0.0000 
     34 N          53.5485  -37.4450   29.0215 N.am      2 SEC2        0.0000 
     35 N          55.0350  -37.3810   28.4350 N.am     10 SEL2        0.0000 
     36 N          52.0620  -37.5090   29.6080 N.am      6 SEP2        0.0000 
     37 NZ         53.3350  -39.7585   29.6340 N.4       3 LYC4        0.0000 
     38 NZ         54.9100  -39.7240   29.5970 N.4      11 LYL4        0.0000 
     39 NZ         51.2830  -38.5630   29.8270 N.4       7 LYP4        0.0000 
     40 N          53.3350  -39.7585   29.6340 N.am      2 SEC2        0.0000 
     41 N          54.9100  -39.7240   29.5970 N.am     10 SEL2        0.0000 
     42 N          51.7600  -39.7930   29.6710 N.am      6 SEP2        0.0000 
     43 NZ         52.0235  -41.3955   26.7160 N.4       3 LYC4        0.0000 
     44 NZ         53.3000  -41.1020   26.5000 N.4      11 LYL4        0.0000 
     45 NZ         49.7630  -40.7970   26.8270 N.4       7 LYP4        0.0000 
     46 N          52.0235  -41.3955   26.7160 N.am      2 SEC2        0.0000 
     47 N          53.3000  -41.1020   26.5000 N.am     10 SEL2        0.0000 
     48 N          50.7470  -41.6890   26.9320 N.am      6 SEP2        0.0000 
     49 NZ         52.1235  -38.5385   28.3465 N.4       3 LYC4        0.0000 
     50 NZ         52.9640  -38.5140   26.8660 N.4      11 LYL4        0.0000 
     51 NZ         51.5085  -39.0125   26.7695 N.4       3 LYC4        0.0000 
     52 N          51.5085  -39.0125   26.7695 N.am      2 SEC2        0.0000 
     53 N          52.9640  -38.5140   26.8660 N.am     10 SEL2        0.0000 
     54 N          50.0530  -39.5110   26.6730 N.am      6 SEP2        0.0000 
     55 CA         52.6610  -39.6590   23.6700 C.3       4 GLC5        0.0000 
     56 CA         54.6720  -40.4800   23.8880 C.3      12 GLL5        0.0000 
     57 CA         50.6500  -38.8380   23.4520 C.3       8 GLP5        0.0000 
     58 CA         55.2925  -42.4425   23.5705 C.3       4 GLC5        0.0000 
     59 CA         55.9130  -44.4050   23.2530 C.3       8 GLP5        0.0000 
     60 CA         53.7230  -42.3025   24.6025 C.3       4 GLC5        0.0000 
     61 CA         52.7740  -44.1250   25.3170 C.3       8 GLP5        0.0000 
     62 CA         57.4995  -41.9545   22.3765 C.3       4 GLC5        0.0000 
     63 CA         55.6180  -40.9900   21.6210 C.3      12 GLL5        0.0000 
     64 CA         59.3810  -42.9190   23.1320 C.3       8 GLP5        0.0000 
     65 CA         55.7655  -42.6975   22.4370 C.3       4 GLC5        0.0000 
     66 CA         52.5240  -38.8420   22.7465 C.3       4 GLC5        0.0000 
     67 CA         54.3980  -38.8460   22.0410 C.3      12 GLL5        0.0000 
     68 CA         53.8540  -37.4395   20.6580 C.3       4 GLC5        0.0000 
     69 CA         53.3100  -36.0330   19.2750 C.3       8 GLP5        0.0000 
     70 O          59.2155  -40.0945   21.2305 O.2       1 ALC1        0.0000 
     71 O          58.1870  -39.0420   21.2140 O.2       9 ALL1        0.0000 
     72 O          60.2440  -41.1470   21.2470 O.2       5 ALP1        0.0000 
     73 CA         59.6205  -36.8810   18.7990 C.3       4 GLC5        0.0000 
     74 CA         58.8400  -38.3660   20.0850 C.3      12 GLL5        0.0000 
     75 CA         60.4010  -35.3960   17.5130 C.3       8 GLP5        0.0000 
     76 CA         55.9780  -37.4400   18.5160 C.3       4 GLC5        0.0000 
     77 CA         57.8500  -38.2660   18.9230 C.3      12 GLL5        0.0000 
     78 CA         54.1060  -36.6140   18.1090 C.3       8 GLP5        0.0000 
     79 CA         57.6070  -38.7235   16.8635 C.3       4 GLC5        0.0000 
     80 CA         57.3640  -39.1810   14.8040 C.3       8 GLP5        0.0000 
     81 CA         58.4500  -37.0330   17.6500 C.3       4 GLC5        0.0000 
     82 CA         59.0500  -35.8000   16.3770 C.3       8 GLP5        0.0000 
     83 N          60.0240  -40.2925   17.5240 N.am      2 SEC2        0.0000 
     84 N          58.6600  -40.3080   17.9560 N.am     10 SEL2        0.0000 
     85 N          61.3880  -40.2770   17.0920 N.am      6 SEP2        0.0000 
     86 N          58.7105  -41.8155   18.4180 N.am      2 SEC2        0.0000 
     87 N          58.7610  -43.3230   18.8800 N.am      6 SEP2        0.0000 
     88 O          55.0855  -39.4710   18.1985 O.2       1 ALC1        0.0000 
     89 O          56.4270  -39.9790   17.9590 O.2       9 ALL1        0.0000 
     90 O          53.7440  -38.9630   18.4380 O.2       5 ALP1        0.0000 
     91 CA         54.1950  -40.2580   16.6770 C.3       4 GLC5        0.0000 
     92 CA         56.1200  -41.2360   17.2640 C.3      12 GLL5        0.0000 
     93 CA         52.2700  -39.2800   16.0900 C.3       8 GLP5        0.0000 
     94 CA         56.7420  -40.2085   16.0340 C.3       4 GLC5        0.0000 
     95 CA         54.9240  -44.8680   18.9860 C.3       4 GLC5        0.0000 
     96 CA         54.9830  -43.4590   17.4100 C.3      12 GLL5        0.0000 
     97 CA         54.8650  -46.2770   20.5620 C.3       8 GLP5        0.0000 
     98 CA         56.8155  -44.5860   17.9420 C.3       4 GLC5        0.0000 
     99 CA         58.6480  -45.7130   18.4740 C.3       8 GLP5        0.0000 
    100 N          51.6985  -42.0090   16.3945 N.am      2 SEC2        0.0000 
    101 N          52.9060  -42.4320   16.8980 N.am     10 SEL2        0.0000 
    102 N          50.4910  -41.5860   15.8910 N.am      6 SEP2        0.0000 
    103 CA         61.0856  -36.0667   24.1287 C.3       4 GLC5        0.0000 
    104 CA         60.7930  -38.1320   24.5810 C.3      12 GLL5        0.0000 
    105 CA         62.0771  -39.2387   25.5358 C.3       4 GLC5        0.0000 
    106 CA         61.6520  -37.9930   23.5010 C.3      12 GLL5        0.0000 
    107 CA         60.9560  -38.3187   30.3132 C.3       4 GLC5        0.0000 
    108 CA         59.1970  -38.5830   29.9910 C.3      12 GLL5        0.0000 
@<TRIPOS>BOND
@<TRIPOS>SUBSTRUCTURE
     1 ALC1       14 GROUP        1 X    ALC  0     ROOT ALC X 1
     2 SEC2        1 GROUP        1 X    SEC  0     **** SEC X 2
     3 LYC4       27 GROUP        1 X    LYC  0     **** LYC X 4
     4 GLC5        4 GROUP        1 X    GLC  0     **** GLC X 6
     5 ALP1       16 GROUP        1 Y    ALP  0     ROOT ALP Y 8
     6 SEP2        3 GROUP        1 Y    SEP  0     **** SEP Y 9
     7 LYP4       29 GROUP        1 Y    LYP  0     **** LYP Y 11
     8 GLP5        6 GROUP        1 Y    GLP  0     **** GLP Y 13
     9 ALL1       15 GROUP        1 Z    ALL  0     ROOT ALL Z 15
    10 SEL2        2 GROUP        1 Z    SEL  0     **** SEL Z 16
    11 LYL4       28 GROUP        1 Z    LYL  0     **** LYL Z 18
    12 GLL5        5 GROUP        1 Z    GLL  0     **** GLL Z 20
@<TRIPOS>SET

