#    Name: 2h12_CMX_6_ligand
#    Modification time : Tue Mar 25 15:21:58 2014

@<TRIPOS>MOLECULE
2h12_CMX_6_ligand
   84    86     1     0     0
SMALL
NO_CHARGES


@<TRIPOS>ATOM
      1 N1A        62.7880  -37.3020   23.6560 N.ar      1 CMX5006     0.0000 
      2 C2A        63.0990  -36.7590   24.8190 C.ar      1 CMX5006     0.0000 
      3 N3A        62.3070  -36.8740   25.8720 N.ar      1 CMX5006     0.0000 
      4 C4A        61.1560  -37.5520   25.7870 C.ar      1 CMX5006     0.0000 
      5 C5A        60.7930  -38.1320   24.5810 C.ar      1 CMX5006     0.0000 
      6 C6A        61.6520  -37.9930   23.5010 C.ar      1 CMX5006     0.0000 
      7 N6A        61.3590  -38.5580   22.3350 N.pl3     1 CMX5006     0.0000 
      8 N7A        59.6270  -38.7420   24.7640 N.2       1 CMX5006     0.0000 
      9 C8A        59.2640  -38.5630   26.0310 C.2       1 CMX5006     0.0000 
     10 N9A        60.1970  -37.8540   26.6630 N.pl3     1 CMX5006     0.0000 
     11 C1B        60.2030  -37.5910   28.1210 C.3       1 CMX5006     0.0000 
     12 C2B        59.0490  -36.6860   28.5580 C.3       1 CMX5006     0.0000 
     13 O2B        59.4770  -35.3240   28.4580 O.3       1 CMX5006     0.0000 
     14 C3B        59.0130  -37.0640   30.0380 C.3       1 CMX5006     0.0000 
     15 O3B        60.1500  -36.4800   30.6800 O.3       1 CMX5006     0.0000 
     16 P3B        59.9640  -35.6690   32.0690 P.3       1 CMX5006     0.0000 
     17 O7A        61.2550  -35.1940   32.6270 O.co2     1 CMX5006     0.0000 
     18 O8A        58.9390  -34.4640   31.7430 O.co2     1 CMX5006     0.0000 
     19 O9A        59.1900  -36.6450   33.0980 O.co2     1 CMX5006     0.0000 
     20 C4B        59.1970  -38.5830   29.9910 C.3       1 CMX5006     0.0000 
     21 O4B        59.9800  -38.8350   28.8100 O.3       1 CMX5006     0.0000 
     22 C5B        57.8390  -39.2680   29.8350 C.3       1 CMX5006     0.0000 
     23 O5B        57.2160  -38.8160   28.6330 O.3       1 CMX5006     0.0000 
     24 P1A        55.6200  -38.8780   28.4280 P.3       1 CMX5006     0.0000 
     25 O1A        55.0350  -37.3810   28.4350 O.co2     1 CMX5006     0.0000 
     26 O2A        54.9100  -39.7240   29.5970 O.co2     1 CMX5006     0.0000 
     27 O3A        55.3800  -39.6020   27.0110 O.3       1 CMX5006     0.0000 
     28 P2A        53.9470  -39.6470   26.2810 P.3       1 CMX5006     0.0000 
     29 O4A        53.3000  -41.1020   26.5000 O.co2     1 CMX5006     0.0000 
     30 O5A        52.9640  -38.5140   26.8660 O.co2     1 CMX5006     0.0000 
     31 O6A        54.2110  -39.4060   24.7120 O.3       1 CMX5006     0.0000 
     32 CBP        55.3390  -39.8890   22.6460 C.3       1 CMX5006     0.0000 
     33 CCP        54.6720  -40.4800   23.8880 C.3       1 CMX5006     0.0000 
     34 CDP        55.6180  -40.9900   21.6210 C.3       1 CMX5006     0.0000 
     35 CEP        54.3980  -38.8460   22.0410 C.3       1 CMX5006     0.0000 
     36 CAP        56.6420  -39.2090   23.0720 C.3       1 CMX5006     0.0000 
     37 OAP        57.5770  -40.1940   23.5170 O.3       1 CMX5006     0.0000 
     38 C9P        57.2460  -38.4120   21.9140 C.2       1 CMX5006     0.0000 
     39 O9P        56.8650  -37.2710   21.6670 O.2       1 CMX5006     0.0000 
     40 N8P        58.1870  -39.0420   21.2140 N.am      1 CMX5006     0.0000 
     41 C7P        58.8400  -38.3660   20.0850 C.3       1 CMX5006     0.0000 
     42 C6P        57.8500  -38.2660   18.9230 C.3       1 CMX5006     0.0000 
     43 C5P        57.6840  -39.6180   18.2240 C.2       1 CMX5006     0.0000 
     44 O5P        58.6600  -40.3080   17.9560 O.2       1 CMX5006     0.0000 
     45 N4P        56.4270  -39.9790   17.9590 N.am      1 CMX5006     0.0000 
     46 C3P        56.1200  -41.2360   17.2640 C.3       1 CMX5006     0.0000 
     47 C2P        55.5120  -42.2690   18.2150 C.3       1 CMX5006     0.0000 
     48 C1         54.9830  -43.4590   17.4100 C.3       1 CMX5006     0.0000 
     49 C2         53.9190  -42.9830   16.4180 C.2       1 CMX5006     0.0000 
     50 O21        52.9060  -42.4320   16.8980 O.co2     1 CMX5006     0.0000 
     51 O22        54.1440  -43.1560   15.2000 O.co2     1 CMX5006     0.0000 
     52 H          64.0073  -36.2164   24.9119 H         1 CMX5006     0.0000 
     53 H          60.3877  -38.6094   22.1027 H         1 CMX5006     0.0000 
     54 H          62.1361  -38.8808   21.7948 H         1 CMX5006     0.0000 
     55 H          58.4388  -38.9000   26.4367 H         1 CMX5006     0.0000 
     56 H          61.1178  -37.1510   28.4310 H         1 CMX5006     0.0000 
     57 H          58.1968  -36.9460   28.1014 H         1 CMX5006     0.0000 
     58 H          58.1023  -36.8294   30.4411 H         1 CMX5006     0.0000 
     59 H          59.6752  -38.9062   30.8628 H         1 CMX5006     0.0000 
     60 H          57.2405  -39.0278   30.7194 H         1 CMX5006     0.0000 
     61 H          58.0098  -40.3491   29.8238 H         1 CMX5006     0.0000 
     62 H          53.8520  -41.1185   23.5561 H         1 CMX5006     0.0000 
     63 H          55.4091  -41.0989   24.4016 H         1 CMX5006     0.0000 
     64 H          56.4088  -38.5124   23.8698 H         1 CMX5006     0.0000 
     65 H          58.4994  -39.9998   21.4143 H         1 CMX5006     0.0000 
     66 H          59.7102  -38.9254   19.7485 H         1 CMX5006     0.0000 
     67 H          59.1492  -37.3602   20.3612 H         1 CMX5006     0.0000 
     68 H          58.2134  -37.5333   18.2038 H         1 CMX5006     0.0000 
     69 H          56.8832  -37.9379   19.3023 H         1 CMX5006     0.0000 
     70 H          55.6093  -39.3998   18.2256 H         1 CMX5006     0.0000 
     71 H          57.0295  -41.6677   16.8252 H         1 CMX5006     0.0000 
     72 H          55.4079  -41.0621   16.4462 H         1 CMX5006     0.0000 
     73 H          54.6957  -41.8158   18.7635 H         1 CMX5006     0.0000 
     74 H          56.2720  -42.6127   18.9057 H         1 CMX5006     0.0000 
     75 H          54.5445  -44.1833   18.0867 H         1 CMX5006     0.0000 
     76 H          55.8015  -43.9166   16.8664 H         1 CMX5006     0.0000 
     77 H          56.0580  -40.6291   20.7987 H         1 CMX5006     0.0000 
     78 H          56.2215  -41.6968   21.9901 H         1 CMX5006     0.0000 
     79 H          54.7777  -41.4460   21.3277 H         1 CMX5006     0.0000 
     80 H          54.1988  -38.1075   22.6851 H         1 CMX5006     0.0000 
     81 H          54.7883  -38.4239   21.2227 H         1 CMX5006     0.0000 
     82 H          53.5215  -39.2468   21.7744 H         1 CMX5006     0.0000 
     83 H          60.2553  -35.2510   29.0816 H         1 CMX5006     0.0000 
     84 H          58.3050  -39.6755   23.9657 H         1 CMX5006     0.0000 
@<TRIPOS>BOND
     1    2    1 ar   
     2    6    1 ar   
     3    3    2 ar   
     4   52    2 1    
     5    4    3 ar   
     6    5    4 ar   
     7   10    4 1    
     8    6    5 ar   
     9    8    5 1    
    10    7    6 1    
    11   53    7 1    
    12   54    7 1    
    13    9    8 2    
    14   10    9 1    
    15   55    9 1    
    16   11   10 1    
    17   12   11 1    
    18   21   11 1    
    19   56   11 1    
    20   13   12 1    
    21   14   12 1    
    22   57   12 1    
    23   83   13 1    
    24   15   14 1    
    25   20   14 1    
    26   58   14 1    
    27   16   15 1    
    28   17   16 ar   
    29   18   16 ar   
    30   19   16 ar   
    31   21   20 1    
    32   22   20 1    
    33   59   20 1    
    34   23   22 1    
    35   60   22 1    
    36   61   22 1    
    37   24   23 1    
    38   25   24 ar   
    39   26   24 ar   
    40   27   24 1    
    41   28   27 1    
    42   29   28 ar   
    43   30   28 ar   
    44   31   28 1    
    45   33   31 1    
    46   33   32 1    
    47   34   32 1    
    48   35   32 1    
    49   36   32 1    
    50   62   33 1    
    51   63   33 1    
    52   77   34 1    
    53   78   34 1    
    54   79   34 1    
    55   80   35 1    
    56   81   35 1    
    57   82   35 1    
    58   37   36 1    
    59   38   36 1    
    60   64   36 1    
    61   84   37 1    
    62   39   38 2    
    63   40   38 am   
    64   41   40 1    
    65   65   40 1    
    66   42   41 1    
    67   66   41 1    
    68   67   41 1    
    69   43   42 1    
    70   68   42 1    
    71   69   42 1    
    72   44   43 2    
    73   45   43 am   
    74   46   45 1    
    75   70   45 1    
    76   47   46 1    
    77   71   46 1    
    78   72   46 1    
    79   48   47 1    
    80   73   47 1    
    81   74   47 1    
    82   49   48 1    
    83   75   48 1    
    84   76   48 1    
    85   50   49 ar   
    86   51   49 ar   
@<TRIPOS>SUBSTRUCTURE
     1 CMX5006     1 GROUP   
@<TRIPOS>SET

