#    Name: 3zt2_ZT2_3_INTS_M
#    Modification time : Tue Mar 25 03:59:02 2014

@<TRIPOS>MOLECULE
3zt2_ZT2_3_INTS_M
   51     0     6     0     0
SMALL
NO_CHARGES


@<TRIPOS>ATOM
      1 CA         -8.0455   40.8690   11.0990 C.3       2 GLC5        0.0000 
      2 CA         -9.2680   41.1190   12.5660 C.3       6 GLL5        0.0000 
      3 CA         -6.8230   40.6190    9.6320 C.3       4 GLP5        0.0000 
      4 CA        -15.5840   46.0810   12.5295 C.3       2 GLC5        0.0000 
      5 CA        -13.9510   45.0250   11.7120 C.3       6 GLL5        0.0000 
      6 CA        -17.2170   47.1370   13.3470 C.3       4 GLP5        0.0000 
      7 CA        -14.2115   43.4775   13.1825 C.3       2 GLC5        0.0000 
      8 CA        -14.4720   41.9300   14.6530 C.3       4 GLP5        0.0000 
      9 CA        -14.5970   45.7635    9.2405 C.3       2 GLC5        0.0000 
     10 CA        -15.6440   44.4280   10.5740 C.3       6 GLL5        0.0000 
     11 CA        -13.5500   47.0990    7.9070 C.3       4 GLP5        0.0000 
     12 CA        -15.3820   42.3820   10.4875 C.3       2 GLC5        0.0000 
     13 CA        -15.1200   40.3360   10.4010 C.3       4 GLP5        0.0000 
     14 CA        -16.4305   45.7825   11.9605 C.3       2 GLC5        0.0000 
     15 CA        -17.2995   43.5740   10.4475 C.3       2 GLC5        0.0000 
     16 CA        -18.9550   42.7200   10.3210 C.3       4 GLP5        0.0000 
     17 N         -14.8545   43.9110   14.0675 N.am      1 SEC2        0.0000 
     18 N         -14.6320   45.1420   14.5450 N.am      5 SEL2        0.0000 
     19 N         -15.0770   42.6800   13.5900 N.am      3 SEP2        0.0000 
     20 N         -15.5530   45.5000   15.5765 N.am      1 SEC2        0.0000 
     21 N         -16.4740   45.8580   16.6080 N.am      3 SEP2        0.0000 
     22 N         -13.4345   46.7595   16.0635 N.am      1 SEC2        0.0000 
     23 N         -13.0090   46.7000   14.7360 N.am      5 SEL2        0.0000 
     24 N         -13.8600   46.8190   17.3910 N.am      3 SEP2        0.0000 
     25 CA        -10.2355   39.6460   12.9320 C.3       2 GLC5        0.0000 
     26 CA        -11.7730   38.3320   12.9310 C.3       4 GLP5        0.0000 
     27 CA         -9.1260   40.7920   14.8055 C.3       2 GLC5        0.0000 
     28 CA         -9.5540   40.6240   16.6780 C.3       4 GLP5        0.0000 
     29 CA         -6.7588   40.9740   12.2043 C.3       2 GLC5        0.0000 
     30 CA         -8.1280   40.8010   13.3000 C.3       6 GLL5        0.0000 
     31 CA         -5.6770   40.6600   10.7090 C.3       4 GLP5        0.0000 
     32 CA         -6.4307   40.2205   14.1583 C.3       2 GLC5        0.0000 
     33 CA         -5.0210   39.1530   14.6170 C.3       4 GLP5        0.0000 
     34 CA         -9.5405   41.7518   14.8965 C.3       2 GLC5        0.0000 
     35 CA         -9.8000   42.3950   12.7000 C.3       6 GLL5        0.0000 
     36 CA        -10.4240   43.8455    9.2432 C.3       2 GLC5        0.0000 
     37 CA        -11.2970   44.8470   11.1990 C.3       6 GLL5        0.0000 
     38 CA         -9.0990   43.0100    7.8010 C.3       4 GLP5        0.0000 
     39 CA        -10.1505   45.5330    9.9058 C.3       2 GLC5        0.0000 
     40 CA        -12.2010   44.5150   10.1720 C.3       6 GLL5        0.0000 
     41 CA         -8.5520   46.3850    9.1260 C.3       4 GLP5        0.0000 
     42 CA        -13.4387   42.8985    9.3338 C.3       2 GLC5        0.0000 
     43 CA        -13.5200   44.6210   10.4850 C.3       6 GLL5        0.0000 
     44 CA        -14.0170   41.2290    8.3390 C.3       4 GLP5        0.0000 
     45 CA        -11.2115   42.1392   13.6993 C.3       2 GLC5        0.0000 
     46 CA        -13.0290   41.7180   14.3170 C.3       4 GLP5        0.0000 
     47 CA        -12.7105   43.5058   13.4608 C.3       2 GLC5        0.0000 
     48 CA        -11.6980   45.2440   12.4720 C.3       6 GLL5        0.0000 
     49 CA        -13.4779   45.9477    9.4636 C.3       2 GLC5        0.0000 
     50 CA         -8.6445   41.9559   15.6466 C.3       2 GLC5        0.0000 
     51 CA         -8.1110   43.0440   14.2340 C.3       6 GLL5        0.0000 
@<TRIPOS>BOND
@<TRIPOS>SUBSTRUCTURE
     1 SEC2       17 GROUP        1 X    SEC  0     ROOT SEC X 2
     2 GLC5        1 GROUP        1 X    GLC  0     **** GLC X 6
     3 SEP2       19 GROUP        1 Y    SEP  0     ROOT SEP Y 9
     4 GLP5        3 GROUP        1 Y    GLP  0     **** GLP Y 13
     5 SEL2       18 GROUP        1 Z    SEL  0     ROOT SEL Z 16
     6 GLL5        2 GROUP        1 Z    GLL  0     **** GLL Z 20
@<TRIPOS>SET

