#    Name: 3zt2_ZT2_3_ligand
#    Modification time : Tue Mar 25 03:59:02 2014

@<TRIPOS>MOLECULE
3zt2_ZT2_3_ligand
   34    37     1     0     0
SMALL
NO_CHARGES


@<TRIPOS>ATOM
      1 C1         -9.2680   41.1190   12.5660 C.ar      1 ZT21214     0.0000 
      2 C2         -8.1280   40.8010   13.3000 C.ar      1 ZT21214     0.0000 
      3 C3         -9.8000   42.3950   12.7000 C.ar      1 ZT21214     0.0000 
      4 C4        -11.2970   44.8470   11.1990 C.ar      1 ZT21214     0.0000 
      5 C5         -7.5530   41.7750   14.0990 C.ar      1 ZT21214     0.0000 
      6 C6        -12.2010   44.5150   10.1720 C.ar      1 ZT21214     0.0000 
      7 C7         -9.2540   43.3640   13.5300 C.ar      1 ZT21214     0.0000 
      8 C8        -11.6980   45.2440   12.4720 C.ar      1 ZT21214     0.0000 
      9 C9        -13.0860   45.3430   12.7370 C.ar      1 ZT21214     0.0000 
     10 C10        -8.1110   43.0440   14.2340 C.ar      1 ZT21214     0.0000 
     11 C11       -13.5200   44.6210   10.4850 C.ar      1 ZT21214     0.0000 
     12 C12       -13.9510   45.0250   11.7120 C.ar      1 ZT21214     0.0000 
     13 C13        -9.6310   44.7400   13.8470 C.2       1 ZT21214     0.0000 
     14 C14        -8.6010   45.2610   14.7780 C.2       1 ZT21214     0.0000 
     15 C15       -10.6490   45.5860   13.4770 C.2       1 ZT21214     0.0000 
     16 C16       -13.6280   45.7550   14.0960 C.2       1 ZT21214     0.0000 
     17 C17        -7.6380   44.1660   15.0640 C.3       1 ZT21214     0.0000 
     18 C18       -15.6440   44.4280   10.5740 C.3       1 ZT21214     0.0000 
     19 O19       -14.6320   45.1420   14.5450 O.co2     1 ZT21214     0.0000 
     20 O20        -8.5530   46.4300   15.2020 O.2       1 ZT21214     0.0000 
     21 O21       -13.0090   46.7000   14.7360 O.co2     1 ZT21214     0.0000 
     22 O22       -14.5720   44.3300    9.7100 O.3       1 ZT21214     0.0000 
     23 O23       -15.3150   45.0500   11.8190 O.3       1 ZT21214     0.0000 
     24 H          -9.6974   40.4352   11.9499 H         1 ZT21214     0.0000 
     25 H          -7.7254   39.8639   13.2475 H         1 ZT21214     0.0000 
     26 H         -10.6596   42.6386   12.1445 H         1 ZT21214     0.0000 
     27 H         -10.2713   44.7905   10.9883 H         1 ZT21214     0.0000 
     28 H          -6.6748   41.5548   14.6172 H         1 ZT21214     0.0000 
     29 H         -11.8690   44.2210    9.2731 H         1 ZT21214     0.0000 
     30 H         -10.7349   46.5386   13.8986 H         1 ZT21214     0.0000 
     31 H          -6.6493   44.4605   14.7701 H         1 ZT21214     0.0000 
     32 H          -7.6756   43.9064   16.1041 H         1 ZT21214     0.0000 
     33 H         -16.0867   43.4121   10.7804 H         1 ZT21214     0.0000 
     34 H         -16.4930   44.9955   10.0967 H         1 ZT21214     0.0000 
@<TRIPOS>BOND
     1    2    1 ar   
     2    3    1 ar   
     3   24    1 1    
     4    5    2 ar   
     5   25    2 1    
     6    7    3 ar   
     7   26    3 1    
     8    6    4 ar   
     9    8    4 ar   
    10   27    4 1    
    11   10    5 ar   
    12   28    5 1    
    13   11    6 ar   
    14   29    6 1    
    15   10    7 ar   
    16   13    7 1    
    17    9    8 ar   
    18   15    8 1    
    19   12    9 ar   
    20   16    9 1    
    21   17   10 1    
    22   12   11 ar   
    23   22   11 1    
    24   23   12 1    
    25   14   13 1    
    26   15   13 2    
    27   17   14 1    
    28   20   14 2    
    29   30   15 1    
    30   19   16 ar   
    31   21   16 ar   
    32   31   17 1    
    33   32   17 1    
    34   22   18 1    
    35   23   18 1    
    36   33   18 1    
    37   34   18 1    
@<TRIPOS>SUBSTRUCTURE
     1 ZT21214     1 GROUP   
@<TRIPOS>SET

