#    Name: 4lah_1VO_1_INTS_M
#    Modification time : Tue Mar 25 09:59:17 2014

@<TRIPOS>MOLECULE
4lah_1VO_1_INTS_M
   67     0     9     0     0
SMALL
NO_CHARGES


@<TRIPOS>ATOM
      1 O          -8.1435   26.6525   -5.0485 O.2       1 ALC1        0.0000 
      2 O          -6.8770   26.6790   -4.4480 O.2       7 ALL1        0.0000 
      3 O          -9.4100   26.6260   -5.6490 O.2       4 ALP1        0.0000 
      4 O          -7.8265   27.6005   -5.4995 O.2       1 ALC1        0.0000 
      5 O          -8.7760   28.5220   -6.5510 O.2       4 ALP1        0.0000 
      6 O          -7.3800   25.6340   -3.4520 O.2       1 ALC1        0.0000 
      7 O          -7.8830   24.5890   -2.4560 O.2       4 ALP1        0.0000 
      8 CA         -4.7880   26.1505   -4.1700 C.3       3 GLC5        0.0000 
      9 CA         -6.0090   27.7220   -4.4080 C.3       9 GLL5        0.0000 
     10 CA         -3.5670   24.5790   -3.9320 C.3       6 GLP5        0.0000 
     11 CA         -6.2250   26.5955   -6.0505 C.3       3 GLC5        0.0000 
     12 CA         -6.4410   25.4690   -7.6930 C.3       6 GLP5        0.0000 
     13 CA         -7.0350   28.4125   -3.3525 C.3       3 GLC5        0.0000 
     14 CA         -8.0610   29.1030   -2.2970 C.3       6 GLP5        0.0000 
     15 N          -7.5665   28.6995   -5.7935 N.am      2 SEC2        0.0000 
     16 N          -6.3570   28.8770   -5.0360 N.am      8 SEL2        0.0000 
     17 N          -8.7760   28.5220   -6.5510 N.am      5 SEP2        0.0000 
     18 CA         -2.9450   34.0225   -4.7230 C.3       3 GLC5        0.0000 
     19 CA         -3.8310   32.1520   -4.9620 C.3       9 GLL5        0.0000 
     20 CA         -2.0590   35.8930   -4.4840 C.3       6 GLP5        0.0000 
     21 CA         -4.0705   27.7190   -1.7630 C.3       3 GLC5        0.0000 
     22 CA         -3.9350   28.5880   -3.6560 C.3       9 GLL5        0.0000 
     23 CA         -4.2060   26.8500    0.1300 C.3       6 GLP5        0.0000 
     24 CA         -3.7510   26.5835   -3.7940 C.3       3 GLC5        0.0000 
     25 O          -2.5225   27.2300   -2.4930 O.2       1 ALC1        0.0000 
     26 O          -2.7740   28.4240   -3.0020 O.2       7 ALL1        0.0000 
     27 O          -2.2710   26.0360   -1.9840 O.2       4 ALP1        0.0000 
     28 O          -1.6345   29.2270   -3.0330 O.2       1 ALC1        0.0000 
     29 O          -0.4950   30.0300   -3.0640 O.2       4 ALP1        0.0000 
     30 CA         -1.7145   33.6095  -11.6560 C.3       3 GLC5        0.0000 
     31 CA         -1.9090   33.7900   -9.6640 C.3       9 GLL5        0.0000 
     32 CA         -1.5200   33.4290  -13.6480 C.3       6 GLP5        0.0000 
     33 CA         -0.3700   32.5180   -9.9865 C.3       3 GLC5        0.0000 
     34 CA          1.1690   31.2460  -10.3090 C.3       6 GLP5        0.0000 
     35 CA         -4.4655   35.9605   -6.1865 C.3       3 GLC5        0.0000 
     36 CA         -6.5610   35.3250   -6.5820 C.3       9 GLL5        0.0000 
     37 CA         -2.3700   36.5960   -5.7910 C.3       6 GLP5        0.0000 
     38 CA        -10.3405   33.7815   -4.5500 C.3       3 GLC5        0.0000 
     39 CA         -9.2640   34.6570   -3.2140 C.3       9 GLL5        0.0000 
     40 CA        -11.4170   32.9060   -5.8860 C.3       6 GLP5        0.0000 
     41 CA         -8.5125   32.9920   -2.2125 C.3       3 GLC5        0.0000 
     42 CA         -7.7610   31.3270   -1.2110 C.3       6 GLP5        0.0000 
     43 CA         -7.5420   32.6290   -2.9185 C.3       3 GLC5        0.0000 
     44 CA         -7.3230   33.9310   -4.6260 C.3       9 GLL5        0.0000 
     45 CA         -6.8885   29.8313   -3.8170 C.3       3 GLC5        0.0000 
     46 CA         -5.8880   31.1550   -5.6530 C.3       9 GLL5        0.0000 
     47 CA         -5.8863   31.5107   -7.7443 C.3       3 GLC5        0.0000 
     48 CA         -6.3080   31.3030   -9.8360 C.3       6 GLP5        0.0000 
     49 CA         -7.2848   32.0717   -6.2713 C.3       3 GLC5        0.0000 
     50 CA         -9.1050   32.4250   -6.8900 C.3       6 GLP5        0.0000 
     51 CA         -6.0783   29.1685   -3.1420 C.3       3 GLC5        0.0000 
     52 CA         -4.2560   29.8800   -4.3180 C.3       9 GLL5        0.0000 
     53 CA         -2.9295   35.3783   -7.1725 C.3       3 GLC5        0.0000 
     54 CA         -3.7420   33.6790   -8.1160 C.3       9 GLL5        0.0000 
     55 CA         -3.8585   32.4811   -9.8540 C.3       3 GLC5        0.0000 
     56 CA         -5.0180   30.9870  -10.5990 C.3       6 GLP5        0.0000 
     57 CA         -1.0368   35.3215   -9.4835 C.3       3 GLC5        0.0000 
     58 CA          0.4990   36.4270   -9.6390 C.3       6 GLP5        0.0000 
     59 CA         -8.0825   34.1105   -6.6702 C.3       3 GLC5        0.0000 
     60 CA         -8.7435   33.9527   -5.8498 C.3       3 GLC5        0.0000 
     61 CA         -8.3220   34.8750   -4.3730 C.3       9 GLL5        0.0000 
     62 CA         -7.6277   37.3515   -3.6440 C.3       3 GLC5        0.0000 
     63 CA         -8.4420   36.0860   -5.2460 C.3       9 GLL5        0.0000 
     64 CA         -6.2790   38.0980   -2.1700 C.3       6 GLP5        0.0000 
     65 CA         -7.9935   33.2257   -6.0270 C.3       3 GLC5        0.0000 
     66 CA         -7.0220   35.1672   -2.5554 C.3       3 GLC5        0.0000 
     67 CA         -5.9860   35.9860   -0.9010 C.3       6 GLP5        0.0000 
@<TRIPOS>BOND
@<TRIPOS>SUBSTRUCTURE
     1 ALC1        1 GROUP        1 X    ALC  0     ROOT ALC X 1
     2 SEC2       15 GROUP        1 X    SEC  0     **** SEC X 2
     3 GLC5        8 GROUP        1 X    GLC  0     **** GLC X 6
     4 ALP1        3 GROUP        1 Y    ALP  0     ROOT ALP Y 8
     5 SEP2       17 GROUP        1 Y    SEP  0     **** SEP Y 9
     6 GLP5       10 GROUP        1 Y    GLP  0     **** GLP Y 13
     7 ALL1        2 GROUP        1 Z    ALL  0     ROOT ALL Z 15
     8 SEL2       16 GROUP        1 Z    SEL  0     **** SEL Z 16
     9 GLL5        9 GROUP        1 Z    GLL  0     **** GLL Z 20
@<TRIPOS>SET

