#    Name: 4lah_1VO_1_ligand
#    Modification time : Tue Mar 25 09:59:17 2014

@<TRIPOS>MOLECULE
4lah_1VO_1_ligand
   45    49     1     0     0
SMALL
NO_CHARGES


@<TRIPOS>ATOM
      1 N12        -6.8770   26.6790   -4.4480 N.pl3     1 1VO201      0.0000 
      2 C3         -6.0090   27.7220   -4.4080 C.ar      1 1VO201      0.0000 
      3 N2         -4.8360   27.5840   -3.7370 N.ar      1 1VO201      0.0000 
      4 N4         -6.3570   28.8770   -5.0360 N.ar      1 1VO201      0.0000 
      5 C5         -5.5440   29.9640   -5.0210 C.ar      1 1VO201      0.0000 
      6 C10        -5.8880   31.1550   -5.6530 C.ar      1 1VO201      0.0000 
      7 C9         -5.0410   32.2820   -5.6520 C.ar      1 1VO201      0.0000 
      8 C8         -3.8310   32.1520   -4.9620 C.ar      1 1VO201      0.0000 
      9 C7         -3.4150   30.9890   -4.3070 C.ar      1 1VO201      0.0000 
     10 C6         -4.2560   29.8800   -4.3180 C.ar      1 1VO201      0.0000 
     11 C1         -3.9350   28.5880   -3.6560 C.ar      1 1VO201      0.0000 
     12 N11        -2.7740   28.4240   -3.0020 N.pl3     1 1VO201      0.0000 
     13 N13        -5.4180   33.4350   -6.2280 N.pl3     1 1VO201      0.0000 
     14 C17        -4.9190   34.0790   -7.2840 C.2       1 1VO201      0.0000 
     15 C22        -3.7420   33.6790   -8.1160 C.2       1 1VO201      0.0000 
     16 N26        -3.1410   32.4580   -7.9750 N.2       1 1VO201      0.0000 
     17 C25        -2.0680   32.2960   -8.7900 C.2       1 1VO201      0.0000 
     18 S24        -1.9090   33.7900   -9.6640 S.3       1 1VO201      0.0000 
     19 C23        -3.2360   34.6420   -8.9920 C.2       1 1VO201      0.0000 
     20 N16        -5.5800   35.2370   -7.5260 N.2       1 1VO201      0.0000 
     21 C15        -6.5610   35.3250   -6.5820 C.ar      1 1VO201      0.0000 
     22 C21        -7.5590   36.2670   -6.3190 C.ar      1 1VO201      0.0000 
     23 C20        -8.4420   36.0860   -5.2460 C.ar      1 1VO201      0.0000 
     24 C28        -9.5110   37.1240   -4.9900 C.3       1 1VO201      0.0000 
     25 C19        -8.3220   34.8750   -4.3730 C.ar      1 1VO201      0.0000 
     26 C27        -9.2640   34.6570   -3.2140 C.3       1 1VO201      0.0000 
     27 C18        -7.3230   33.9310   -4.6260 C.ar      1 1VO201      0.0000 
     28 C14        -6.4410   34.1220   -5.7020 C.ar      1 1VO201      0.0000 
     29 H          -6.8215   26.0310   -3.6883 H         1 1VO201      0.0000 
     30 H          -7.4952   26.6509   -5.2335 H         1 1VO201      0.0000 
     31 H          -6.8027   31.2241   -6.1468 H         1 1VO201      0.0000 
     32 H          -3.1875   32.9905   -4.9342 H         1 1VO201      0.0000 
     33 H          -2.5155   30.9568   -3.8329 H         1 1VO201      0.0000 
     34 H          -2.3892   29.2431   -2.5764 H         1 1VO201      0.0000 
     35 H          -2.3978   27.4974   -2.9989 H         1 1VO201      0.0000 
     36 H          -1.4601   31.6822   -8.9927 H         1 1VO201      0.0000 
     37 H          -3.3806   35.4305   -9.2535 H         1 1VO201      0.0000 
     38 H          -7.6476   37.0998   -6.9162 H         1 1VO201      0.0000 
     39 H          -7.2321   33.1034   -4.0318 H         1 1VO201      0.0000 
     40 H          -9.1175   38.0246   -4.8054 H         1 1VO201      0.0000 
     41 H         -10.1239   37.2269   -5.7734 H         1 1VO201      0.0000 
     42 H         -10.0793   36.8854   -4.2026 H         1 1VO201      0.0000 
     43 H          -9.0625   33.8075   -2.7264 H         1 1VO201      0.0000 
     44 H          -9.2085   35.3988   -2.5457 H         1 1VO201      0.0000 
     45 H         -10.2163   34.6038   -3.5144 H         1 1VO201      0.0000 
@<TRIPOS>BOND
     1    2    1 1    
     2   29    1 1    
     3   30    1 1    
     4    3    2 ar   
     5    4    2 ar   
     6   11    3 ar   
     7    5    4 ar   
     8    6    5 ar   
     9   10    5 ar   
    10    7    6 ar   
    11   31    6 1    
    12    8    7 ar   
    13   13    7 1    
    14    9    8 ar   
    15   32    8 1    
    16   10    9 ar   
    17   33    9 1    
    18   11   10 ar   
    19   12   11 1    
    20   34   12 1    
    21   35   12 1    
    22   14   13 1    
    23   28   13 1    
    24   15   14 1    
    25   20   14 2    
    26   16   15 1    
    27   19   15 2    
    28   17   16 2    
    29   18   17 1    
    30   36   17 1    
    31   19   18 1    
    32   37   19 1    
    33   21   20 1    
    34   22   21 ar   
    35   28   21 ar   
    36   23   22 ar   
    37   38   22 1    
    38   24   23 1    
    39   25   23 ar   
    40   40   24 1    
    41   41   24 1    
    42   42   24 1    
    43   26   25 1    
    44   27   25 ar   
    45   43   26 1    
    46   44   26 1    
    47   45   26 1    
    48   28   27 ar   
    49   39   27 1    
@<TRIPOS>SUBSTRUCTURE
     1 1VO201      1 GROUP   
@<TRIPOS>SET

