#    Name: 3g5k_BB2_4_INTS_M
#    Modification time : Tue Mar 25 07:11:07 2014

@<TRIPOS>MOLECULE
3g5k_BB2_4_INTS_M
   69     0    12     0     0
SMALL
NO_CHARGES


@<TRIPOS>ATOM
      1 CA         37.6810  -34.0560  -39.6145 C.3       4 GLC5        0.0000 
      2 CA         36.2030  -33.0910  -40.2530 C.3      12 GLL5        0.0000 
      3 CA         39.1590  -35.0210  -38.9760 C.3       8 GLP5        0.0000 
      4 CA         36.3915  -32.9790  -38.3395 C.3       4 GLC5        0.0000 
      5 CA         36.5800  -32.8670  -36.4260 C.3       8 GLP5        0.0000 
      6 Zn         33.8575  -30.7090  -39.9640 Zn        3 ZIC7        0.0000 
      7 Zn         34.4550  -31.5530  -39.6360 Zn       11 ZIL7        0.0000 
      8 Zn         33.2600  -29.8650  -40.2920 Zn        7 ZIP7        0.0000 
      9 N          34.0435  -31.9805  -38.3335 N.am      2 SEC2        0.0000 
     10 N          34.4550  -31.5530  -39.6360 N.am     10 SEL2        0.0000 
     11 N          33.6320  -32.4080  -37.0310 N.am      6 SEP2        0.0000 
     12 O          37.5445  -30.9725  -40.8570 O.2       1 ALC1        0.0000 
     13 O          36.1370  -30.8060  -40.7300 O.2       9 ALL1        0.0000 
     14 O          38.9520  -31.1390  -40.9840 O.2       5 ALP1        0.0000 
     15 Zn         34.2980  -29.7555  -40.5115 Zn        3 ZIC7        0.0000 
     16 Zn         35.3360  -29.6460  -40.7310 Zn       11 ZIL7        0.0000 
     17 N          35.2090  -28.9395  -39.3710 N.am      2 SEC2        0.0000 
     18 N          35.3360  -29.6460  -40.7310 N.am     10 SEL2        0.0000 
     19 N          35.0820  -28.2330  -38.0110 N.am      6 SEP2        0.0000 
     20 O          36.1240  -28.8350  -41.6565 O.2       1 ALC1        0.0000 
     21 O          35.3360  -29.6460  -40.7310 O.2       9 ALL1        0.0000 
     22 O          36.9120  -28.0240  -42.5820 O.2       5 ALP1        0.0000 
     23 N          38.4240  -35.5270  -41.6250 N.am      2 SEC2        0.0000 
     24 N          36.8500  -35.8360  -41.4040 N.am     10 SEL2        0.0000 
     25 N          39.9980  -35.2180  -41.8460 N.am      6 SEP2        0.0000 
     26 CA         34.5815  -31.9415  -43.0265 C.3       4 GLC5        0.0000 
     27 CA         35.8040  -33.4680  -42.7730 C.3      12 GLL5        0.0000 
     28 CA         33.3590  -30.4150  -43.2800 C.3       8 GLP5        0.0000 
     29 CA         36.2075  -34.6675  -45.8320 C.3       4 GLC5        0.0000 
     30 CA         35.3470  -34.2960  -43.9950 C.3      12 GLL5        0.0000 
     31 CA         37.0680  -35.0390  -47.6690 C.3       8 GLP5        0.0000 
     32 CA         32.7640  -35.0935  -47.1810 C.3       4 GLC5        0.0000 
     33 CA         33.4140  -34.9110  -45.4420 C.3      12 GLL5        0.0000 
     34 CA         32.1140  -35.2760  -48.9200 C.3       8 GLP5        0.0000 
     35 CA         34.6910  -33.9160  -46.8340 C.3       4 GLC5        0.0000 
     36 CA         35.9680  -32.9210  -48.2260 C.3       8 GLP5        0.0000 
     37 CA         33.1440  -32.9280  -45.6090 C.3       4 GLC5        0.0000 
     38 CA         32.8740  -30.9450  -45.7760 C.3       8 GLP5        0.0000 
     39 CA         33.6100  -38.0695  -46.1150 C.3       4 GLC5        0.0000 
     40 CA         33.7180  -36.4550  -45.4550 C.3      12 GLL5        0.0000 
     41 CA         33.5020  -39.6840  -46.7750 C.3       8 GLP5        0.0000 
     42 CA         32.6100  -36.5720  -47.0170 C.3       4 GLC5        0.0000 
     43 CA         31.5020  -36.6890  -48.5790 C.3       8 GLP5        0.0000 
     44 CA         35.3930  -35.7470  -46.5620 C.3       4 GLC5        0.0000 
     45 O          33.3090  -35.3820  -40.7570 O.2       1 ALC1        0.0000 
     46 O          34.7290  -36.1840  -40.9060 O.2       9 ALL1        0.0000 
     47 O          31.8890  -34.5800  -40.6080 O.2       5 ALP1        0.0000 
     48 CA         37.4750  -36.3195  -38.8080 C.3       4 GLC5        0.0000 
     49 CA         35.7910  -37.6180  -38.6400 C.3      12 GLL5        0.0000 
     50 CA         31.7260  -36.9225  -39.3300 C.3       4 GLC5        0.0000 
     51 CA         33.2570  -37.8350  -38.8930 C.3      12 GLL5        0.0000 
     52 CA         30.1950  -36.0100  -39.7670 C.3       8 GLP5        0.0000 
     53 CA         31.3805  -38.7920  -39.1270 C.3       4 GLC5        0.0000 
     54 CA         29.5040  -39.7490  -39.3610 C.3       8 GLP5        0.0000 
     55 N          31.5670  -37.1440  -41.6490 N.am      2 SEC2        0.0000 
     56 N          32.8230  -37.6590  -42.1880 N.am     10 SEL2        0.0000 
     57 N          30.3110  -36.6290  -41.1100 N.am      6 SEP2        0.0000 
     58 CA         30.6320  -40.1545  -40.7775 C.3       4 GLC5        0.0000 
     59 CA         31.7600  -40.5600  -42.1940 C.3      12 GLL5        0.0000 
     60 CA         37.0468  -34.8535  -43.8550 C.3       4 GLC5        0.0000 
     61 CA         38.5180  -35.8250  -44.3260 C.3       8 GLP5        0.0000 
     62 CA         33.6195  -32.6317  -44.1628 C.3       4 GLC5        0.0000 
     63 CA         32.6530  -30.9610  -44.3070 C.3       8 GLP5        0.0000 
     64 CA         31.6225  -35.7665  -45.3552 C.3       4 GLC5        0.0000 
     65 CA         29.6790  -35.8500  -45.2620 C.3       8 GLP5        0.0000 
     66 CA         30.9083  -38.8223  -42.9398 C.3       4 GLC5        0.0000 
     67 CA         32.9510  -40.1310  -43.0730 C.3      12 GLL5        0.0000 
     68 CA         29.4610  -37.2990  -43.2460 C.3       8 GLP5        0.0000 
     69 CA         33.8390  -40.3849  -45.0385 C.3       4 GLC5        0.0000 
@<TRIPOS>BOND
@<TRIPOS>SUBSTRUCTURE
     1 ALC1       12 GROUP        1 X    ALC  0     ROOT ALC X 1
     2 SEC2        9 GROUP        1 X    SEC  0     **** SEC X 2
     3 ZIC7        6 GROUP        1 X    ZIC  0     **** ZIC X 5
     4 GLC5        1 GROUP        1 X    GLC  0     **** GLC X 6
     5 ALP1       14 GROUP        1 Y    ALP  0     ROOT ALP Y 8
     6 SEP2       11 GROUP        1 Y    SEP  0     **** SEP Y 9
     7 ZIP7        8 GROUP        1 Y    ZIP  0     **** ZIP Y 12
     8 GLP5        3 GROUP        1 Y    GLP  0     **** GLP Y 13
     9 ALL1       13 GROUP        1 Z    ALL  0     ROOT ALL Z 15
    10 SEL2       10 GROUP        1 Z    SEL  0     **** SEL Z 16
    11 ZIL7        7 GROUP        1 Z    ZIL  0     **** ZIL Z 19
    12 GLL5        2 GROUP        1 Z    GLL  0     **** GLL Z 20
@<TRIPOS>SET

