#    Name: 3g5k_BB2_4_ligand
#    Modification time : Tue Mar 25 07:11:07 2014

@<TRIPOS>MOLECULE
3g5k_BB2_4_ligand
   62    62     1     0     0
SMALL
NO_CHARGES


@<TRIPOS>ATOM
      1 C5         36.2030  -33.0910  -40.2530 C.3       1 BB21004     0.0000 
      2 C3         35.5860  -31.7690  -40.1770 C.2       1 BB21004     0.0000 
      3 O4         34.4550  -31.5530  -39.6360 O.2       1 BB21004     0.0000 
      4 N1         36.1370  -30.8060  -40.7300 N.am      1 BB21004     0.0000 
      5 O2         35.3360  -29.6460  -40.7310 O.3       1 BB21004     0.0000 
      6 C6         35.4190  -33.9070  -41.3090 C.3       1 BB21004     0.0000 
      7 C12        35.7460  -35.3580  -41.2040 C.2       1 BB21004     0.0000 
      8 O13        36.8500  -35.8360  -41.4040 O.2       1 BB21004     0.0000 
      9 C7         35.8040  -33.4680  -42.7730 C.3       1 BB21004     0.0000 
     10 C8         35.3470  -34.2960  -43.9950 C.3       1 BB21004     0.0000 
     11 C9         33.8250  -34.3090  -44.0420 C.3       1 BB21004     0.0000 
     12 C10        33.4140  -34.9110  -45.4420 C.3       1 BB21004     0.0000 
     13 C11        33.7180  -36.4550  -45.4550 C.3       1 BB21004     0.0000 
     14 N14        34.7290  -36.1840  -40.9060 N.am      1 BB21004     0.0000 
     15 C15        34.9170  -37.6620  -40.9120 C.3       1 BB21004     0.0000 
     16 C16        34.6260  -38.2180  -39.4550 C.3       1 BB21004     0.0000 
     17 C18        35.7910  -37.6180  -38.6400 C.3       1 BB21004     0.0000 
     18 C17        33.2570  -37.8350  -38.8930 C.3       1 BB21004     0.0000 
     19 C19        33.8750  -38.2650  -41.8060 C.2       1 BB21004     0.0000 
     20 O20        32.8230  -37.6590  -42.1880 O.2       1 BB21004     0.0000 
     21 N21        34.0070  -39.5490  -42.2240 N.am      1 BB21004     0.0000 
     22 C22        32.9510  -40.1310  -43.0730 C.3       1 BB21004     0.0000 
     23 C23        35.1560  -40.5140  -41.9880 C.3       1 BB21004     0.0000 
     24 C24        35.0730  -41.3780  -43.2780 C.3       1 BB21004     0.0000 
     25 C25        33.6070  -41.4560  -43.5790 C.3       1 BB21004     0.0000 
     26 C26        31.7600  -40.5600  -42.1940 C.3       1 BB21004     0.0000 
     27 O27        30.9280  -41.2960  -43.1460 O.3       1 BB21004     0.0000 
     28 H          36.1371  -33.6142  -39.3101 H         1 BB21004     0.0000 
     29 H          37.2325  -33.0303  -40.5747 H         1 BB21004     0.0000 
     30 H          37.0472  -30.7639  -41.1566 H         1 BB21004     0.0000 
     31 H          34.3748  -33.7526  -41.1860 H         1 BB21004     0.0000 
     32 H          36.9272  -33.3735  -42.8080 H         1 BB21004     0.0000 
     33 H          35.4450  -32.4076  -42.9081 H         1 BB21004     0.0000 
     34 H          35.7190  -35.3043  -43.8939 H         1 BB21004     0.0000 
     35 H          35.7374  -33.8406  -44.8925 H         1 BB21004     0.0000 
     36 H          33.4401  -33.3151  -43.9790 H         1 BB21004     0.0000 
     37 H          33.4323  -34.9421  -43.2771 H         1 BB21004     0.0000 
     38 H          33.9917  -34.4335  -46.2084 H         1 BB21004     0.0000 
     39 H          32.3633  -34.7594  -45.5902 H         1 BB21004     0.0000 
     40 H          33.7860  -35.8550  -40.6626 H         1 BB21004     0.0000 
     41 H          35.8716  -37.9439  -41.1934 H         1 BB21004     0.0000 
     42 H          34.7627  -39.2750  -39.4906 H         1 BB21004     0.0000 
     43 H          32.6783  -39.5577  -43.8535 H         1 BB21004     0.0000 
     44 H          34.9632  -41.1197  -41.1569 H         1 BB21004     0.0000 
     45 H          36.0691  -40.0032  -41.9758 H         1 BB21004     0.0000 
     46 H          35.4693  -42.3416  -43.0676 H         1 BB21004     0.0000 
     47 H          35.5945  -40.8767  -44.0568 H         1 BB21004     0.0000 
     48 H          33.4378  -41.5321  -44.6377 H         1 BB21004     0.0000 
     49 H          33.1527  -42.2775  -43.0556 H         1 BB21004     0.0000 
     50 H          31.2728  -39.6888  -41.8373 H         1 BB21004     0.0000 
     51 H          32.1209  -41.1876  -41.4197 H         1 BB21004     0.0000 
     52 H          34.6877  -36.6439  -45.3002 H         1 BB21004     0.0000 
     53 H          33.2079  -36.9399  -44.7446 H         1 BB21004     0.0000 
     54 H          33.4736  -36.8743  -46.3293 H         1 BB21004     0.0000 
     55 H          36.6641  -38.0492  -38.8674 H         1 BB21004     0.0000 
     56 H          35.8956  -36.6378  -38.8080 H         1 BB21004     0.0000 
     57 H          35.6544  -37.7339  -37.6562 H         1 BB21004     0.0000 
     58 H          33.1151  -38.2063  -37.9754 H         1 BB21004     0.0000 
     59 H          33.1463  -36.8433  -38.8283 H         1 BB21004     0.0000 
     60 H          32.5117  -38.1763  -39.4657 H         1 BB21004     0.0000 
     61 H          35.7818  -29.0244  -41.3751 H         1 BB21004     0.0000 
     62 H          30.7345  -42.1694  -42.6992 H         1 BB21004     0.0000 
@<TRIPOS>BOND
     1    2    1 1    
     2    6    1 1    
     3   28    1 1    
     4   29    1 1    
     5    3    2 2    
     6    4    2 am   
     7    5    4 1    
     8   30    4 1    
     9   61    5 1    
    10    7    6 1    
    11    9    6 1    
    12   31    6 1    
    13    8    7 2    
    14   14    7 am   
    15   10    9 1    
    16   32    9 1    
    17   33    9 1    
    18   11   10 1    
    19   34   10 1    
    20   35   10 1    
    21   12   11 1    
    22   36   11 1    
    23   37   11 1    
    24   13   12 1    
    25   38   12 1    
    26   39   12 1    
    27   52   13 1    
    28   53   13 1    
    29   54   13 1    
    30   15   14 1    
    31   40   14 1    
    32   16   15 1    
    33   19   15 1    
    34   41   15 1    
    35   17   16 1    
    36   18   16 1    
    37   42   16 1    
    38   55   17 1    
    39   56   17 1    
    40   57   17 1    
    41   58   18 1    
    42   59   18 1    
    43   60   18 1    
    44   20   19 2    
    45   21   19 am   
    46   22   21 1    
    47   23   21 1    
    48   25   22 1    
    49   26   22 1    
    50   43   22 1    
    51   24   23 1    
    52   44   23 1    
    53   45   23 1    
    54   25   24 1    
    55   46   24 1    
    56   47   24 1    
    57   48   25 1    
    58   49   25 1    
    59   27   26 1    
    60   50   26 1    
    61   51   26 1    
    62   62   27 1    
@<TRIPOS>SUBSTRUCTURE
     1 BB21004     1 GROUP   
@<TRIPOS>SET

