#    Name: 3cl1_PCG_2_INTS_M
#    Modification time : Mon Mar 24 21:47:12 2014

@<TRIPOS>MOLECULE
3cl1_PCG_2_INTS_M
   56     0    12     0     0
SMALL
NO_CHARGES


@<TRIPOS>ATOM
      1 N          25.1920   36.7210   12.9075 N.am      2 SEC2        0.0000 
      2 N          24.0010   37.4250   13.2610 N.am     10 SEL2        0.0000 
      3 N          26.3830   36.0170   12.5540 N.am      6 SEP2        0.0000 
      4 N          23.9560   36.2420   12.4980 N.am      2 SEC2        0.0000 
      5 N          23.9110   35.0590   11.7350 N.am      6 SEP2        0.0000 
      6 NZ         24.0770   41.1975   14.0445 N.4       3 LYC4        0.0000 
      7 NZ         23.5620   39.9470   13.7830 N.4      11 LYL4        0.0000 
      8 NZ         25.7160   43.0600   13.9620 N.4       7 LYP4        0.0000 
      9 N          23.1380   39.4460   15.2575 N.am      2 SEC2        0.0000 
     10 N          23.5620   39.9470   13.7830 N.am     10 SEL2        0.0000 
     11 N          22.7140   38.9450   16.7320 N.am      6 SEP2        0.0000 
     12 N          24.0770   41.1975   14.0445 N.am      2 SEC2        0.0000 
     13 N          24.5920   42.4480   14.3060 N.am      6 SEP2        0.0000 
     14 CA         25.0490   40.5610    9.8520 C.3       4 GLC5        0.0000 
     15 CA         23.9780   38.7240   10.1710 C.3      12 GLL5        0.0000 
     16 CA         26.1200   42.3980    9.5330 C.3       8 GLP5        0.0000 
     17 CA         24.6505   37.2215    8.9580 C.3       4 GLC5        0.0000 
     18 CA         25.3230   35.7190    7.7450 C.3       8 GLP5        0.0000 
     19 CA         21.1385   40.5960    9.3670 C.3       4 GLC5        0.0000 
     20 CA         22.4840   38.9660   10.0020 C.3      12 GLL5        0.0000 
     21 CA         19.7930   42.2260    8.7320 C.3       8 GLP5        0.0000 
     22 N          20.1775   40.6655   11.4120 N.am      2 SEC2        0.0000 
     23 N          19.6580   39.3480   11.1330 N.am     10 SEL2        0.0000 
     24 N          20.6970   41.9830   11.6910 N.am      6 SEP2        0.0000 
     25 N          18.0440   39.4885   10.4855 N.am      2 SEC2        0.0000 
     26 N          16.4300   39.6290    9.8380 N.am      6 SEP2        0.0000 
     27 O          18.6695   39.0875   11.8700 O.2       1 ALC1        0.0000 
     28 O          19.6580   39.3480   11.1330 O.2       9 ALL1        0.0000 
     29 O          17.6810   38.8270   12.6070 O.2       5 ALP1        0.0000 
     30 CA         21.4605   37.6615    7.3620 C.3       4 GLC5        0.0000 
     31 CA         20.4750   38.4430    9.0260 C.3      12 GLL5        0.0000 
     32 CA         22.4460   36.8800    5.6980 C.3       8 GLP5        0.0000 
     33 CA         20.9195   34.1280    6.6950 C.3       4 GLC5        0.0000 
     34 CA         19.2880   35.2290    7.6420 C.3      12 GLL5        0.0000 
     35 CA         22.5510   33.0270    5.7480 C.3       8 GLP5        0.0000 
     36 CA         17.7930   35.2585    8.7630 C.3       4 GLC5        0.0000 
     37 CA         16.2980   35.2880    9.8840 C.3       8 GLP5        0.0000 
     38 O          23.0610   34.2150   10.8395 O.2       1 ALC1        0.0000 
     39 O          22.2110   33.3710    9.9440 O.2       9 ALL1        0.0000 
     40 O          23.9110   35.0590   11.7350 O.2       5 ALP1        0.0000 
     41 CA         20.1855   35.6785   10.7030 C.3       4 GLC5        0.0000 
     42 CA         20.1960   36.0010    8.5100 C.3      12 GLL5        0.0000 
     43 CA         20.1750   35.3560   12.8960 C.3       8 GLP5        0.0000 
     44 CA         18.7065   35.2355    9.6380 C.3       4 GLC5        0.0000 
     45 CA         17.2170   34.4700   10.7660 C.3       8 GLP5        0.0000 
     46 CA         23.6880   39.8070    8.5252 C.3       4 GLC5        0.0000 
     47 CA         24.1450   40.7690    6.9640 C.3       8 GLP5        0.0000 
     48 CA         21.8865   40.4030   11.6330 C.3       4 GLC5        0.0000 
     49 CA         21.6580   42.2600   12.7540 C.3       8 GLP5        0.0000 
     50 CA         20.6040   36.7670   11.8373 C.3       4 GLC5        0.0000 
     51 CA         21.7460   38.1260   11.0220 C.3      12 GLL5        0.0000 
     52 CA         20.0953   40.2812    9.2562 C.3       4 GLC5        0.0000 
     53 CA         20.3200   38.2300   10.5350 C.3      12 GLL5        0.0000 
     54 CA         18.4198   37.5577    9.9518 C.3       4 GLC5        0.0000 
     55 CA         16.4420   36.7790   10.1230 C.3       8 GLP5        0.0000 
     56 CA         21.0940   36.2475    6.8870 C.3       4 GLC5        0.0000 
@<TRIPOS>BOND
@<TRIPOS>SUBSTRUCTURE
     1 ALC1       27 GROUP        1 X    ALC  0     ROOT ALC X 1
     2 SEC2        1 GROUP        1 X    SEC  0     **** SEC X 2
     3 LYC4        6 GROUP        1 X    LYC  0     **** LYC X 4
     4 GLC5       14 GROUP        1 X    GLC  0     **** GLC X 6
     5 ALP1       29 GROUP        1 Y    ALP  0     ROOT ALP Y 8
     6 SEP2        3 GROUP        1 Y    SEP  0     **** SEP Y 9
     7 LYP4        8 GROUP        1 Y    LYP  0     **** LYP Y 11
     8 GLP5       16 GROUP        1 Y    GLP  0     **** GLP Y 13
     9 ALL1       28 GROUP        1 Z    ALL  0     ROOT ALL Z 15
    10 SEL2        2 GROUP        1 Z    SEL  0     **** SEL Z 16
    11 LYL4        7 GROUP        1 Z    LYL  0     **** LYL Z 18
    12 GLL5       15 GROUP        1 Z    GLL  0     **** GLL Z 20
@<TRIPOS>SET

