#    Name: 3cl1_PCG_2_ligand
#    Modification time : Mon Mar 24 21:47:12 2014

@<TRIPOS>MOLECULE
3cl1_PCG_2_ligand
   34    37     1     0     0
SMALL
NO_CHARGES


@<TRIPOS>ATOM
      1 PA         23.5100   38.7800   12.8290 P.3       1 PCG402      0.0000 
      2 O1A        24.0010   37.4250   13.2610 O.co2     1 PCG402      0.0000 
      3 O2A        23.5620   39.9470   13.7830 O.co2     1 PCG402      0.0000 
      4 O5'        24.3230   39.2040   11.4850 O.3       1 PCG402      0.0000 
      5 C5'        23.9780   38.7240   10.1710 C.3       1 PCG402      0.0000 
      6 C4'        22.4840   38.9660   10.0020 C.3       1 PCG402      0.0000 
      7 O4'        21.8820   38.5750    8.7620 O.3       1 PCG402      0.0000 
      8 C3'        21.7460   38.1260   11.0220 C.3       1 PCG402      0.0000 
      9 O3'        21.9920   38.6300   12.3290 O.3       1 PCG402      0.0000 
     10 C2'        20.3200   38.2300   10.5350 C.3       1 PCG402      0.0000 
     11 O2'        19.6580   39.3480   11.1330 O.3       1 PCG402      0.0000 
     12 C1'        20.4750   38.4430    9.0260 C.3       1 PCG402      0.0000 
     13 N9         19.8510   37.2790    8.3380 N.pl3     1 PCG402      0.0000 
     14 C8         18.8150   37.3330    7.4720 C.2       1 PCG402      0.0000 
     15 N7         18.4610   36.1070    7.0330 N.2       1 PCG402      0.0000 
     16 C5         19.2880   35.2290    7.6420 C.2       1 PCG402      0.0000 
     17 C6         19.4770   33.7600    7.6510 C.2       1 PCG402      0.0000 
     18 O6         18.7630   33.0150    6.9600 O.2       1 PCG402      0.0000 
     19 N1         20.4360   33.2440    8.4250 N.am      1 PCG402      0.0000 
     20 C2         21.2520   33.9960    9.1980 C.2       1 PCG402      0.0000 
     21 N2         22.2110   33.3710    9.9440 N.pl3     1 PCG402      0.0000 
     22 N3         21.1430   35.3480    9.2430 N.2       1 PCG402      0.0000 
     23 C4         20.1960   36.0010    8.5100 C.2       1 PCG402      0.0000 
     24 H          24.1654   37.6635   10.0701 H         1 PCG402      0.0000 
     25 H          24.5014   39.2674    9.3959 H         1 PCG402      0.0000 
     26 H          22.2543   39.9970   10.2384 H         1 PCG402      0.0000 
     27 H          22.0755   37.1131   10.8828 H         1 PCG402      0.0000 
     28 H          19.8333   37.3081   10.6918 H         1 PCG402      0.0000 
     29 H          19.9420   39.3433    8.7802 H         1 PCG402      0.0000 
     30 H          18.3706   38.1703    7.1941 H         1 PCG402      0.0000 
     31 H          20.5703   32.1861    8.4387 H         1 PCG402      0.0000 
     32 H          22.7640   33.9604   10.5329 H         1 PCG402      0.0000 
     33 H          22.2757   32.3790    9.8356 H         1 PCG402      0.0000 
     34 H          18.9341   38.9492   11.6960 H         1 PCG402      0.0000 
@<TRIPOS>BOND
     1    2    1 ar   
     2    3    1 ar   
     3    4    1 1    
     4    9    1 1    
     5    5    4 1    
     6    6    5 1    
     7   24    5 1    
     8   25    5 1    
     9    7    6 1    
    10    8    6 1    
    11   26    6 1    
    12   12    7 1    
    13    9    8 1    
    14   10    8 1    
    15   27    8 1    
    16   11   10 1    
    17   12   10 1    
    18   28   10 1    
    19   34   11 1    
    20   13   12 1    
    21   29   12 1    
    22   14   13 1    
    23   23   13 1    
    24   15   14 2    
    25   30   14 1    
    26   16   15 1    
    27   17   16 1    
    28   23   16 2    
    29   18   17 2    
    30   19   17 am   
    31   20   19 1    
    32   31   19 1    
    33   21   20 1    
    34   22   20 2    
    35   32   21 1    
    36   33   21 1    
    37   23   22 1    
@<TRIPOS>SUBSTRUCTURE
     1 PCG402      1 GROUP   
@<TRIPOS>SET

