#    Name: 1ebd_FAD_2_INTS_M
#    Modification time : Mon Mar 24 23:23:19 2014

@<TRIPOS>MOLECULE
1ebd_FAD_2_INTS_M
  121     0     9     0     0
SMALL
NO_CHARGES


@<TRIPOS>ATOM
      1 N         117.9100   54.4265   13.2890 N.am      2 SEC2        0.0000 
      2 N         116.7510   54.2890   12.1800 N.am      8 SEL2        0.0000 
      3 N         119.0690   54.5640   14.3980 N.am      5 SEP2        0.0000 
      4 CA        116.6690   51.2700   12.0200 C.3       3 GLC5        0.0000 
      5 CA        118.2220   51.2750   10.3920 C.3       9 GLL5        0.0000 
      6 CA        115.1160   51.2650   13.6480 C.3       6 GLP5        0.0000 
      7 CA        118.2580   50.4185    8.5355 C.3       3 GLC5        0.0000 
      8 CA        118.2940   49.5620    6.6790 C.3       6 GLP5        0.0000 
      9 CA        118.0755   52.2980    8.7415 C.3       3 GLC5        0.0000 
     10 CA        117.9290   53.3210    7.0910 C.3       6 GLP5        0.0000 
     11 CA        118.0660   48.4175   10.9885 C.3       3 GLC5        0.0000 
     12 CA        119.0070   50.1700   11.0810 C.3       9 GLL5        0.0000 
     13 CA        117.1250   46.6650   10.8960 C.3       6 GLP5        0.0000 
     14 CA        119.3920   51.5420   13.5725 C.3       3 GLC5        0.0000 
     15 CA        120.2250   50.6810   11.8260 C.3       9 GLL5        0.0000 
     16 CA        118.5590   52.4030   15.3190 C.3       6 GLP5        0.0000 
     17 O         120.8165   49.2770   13.7540 O.2       1 ALC1        0.0000 
     18 O         120.1330   50.3600   13.2180 O.2       7 ALL1        0.0000 
     19 O         121.5000   48.1940   14.2900 O.2       4 ALP1        0.0000 
     20 O         121.9115   48.9255   13.2940 O.2       1 ALC1        0.0000 
     21 O         122.3230   49.6570   12.2980 O.2       7 ALL1        0.0000 
     22 CA        118.9295   47.6915   10.7820 C.3       3 GLC5        0.0000 
     23 CA        120.7340   48.7180   10.6680 C.3       9 GLL5        0.0000 
     24 CA        123.8580   43.8925    8.4700 C.3       3 GLC5        0.0000 
     25 CA        122.3300   45.3510    7.7120 C.3       9 GLL5        0.0000 
     26 CA        125.3860   42.4340    9.2280 C.3       6 GLP5        0.0000 
     27 CA        121.7825   43.2030    7.4325 C.3       3 GLC5        0.0000 
     28 CA        121.2350   41.0550    7.1530 C.3       6 GLP5        0.0000 
     29 O         122.9875   43.6735    5.7895 O.2       1 ALC1        0.0000 
     30 O         122.6210   45.0900    6.4440 O.2       7 ALL1        0.0000 
     31 O         123.3540   42.2570    5.1350 O.2       4 ALP1        0.0000 
     32 N         122.9070   43.0460    8.2445 N.am      2 SEC2        0.0000 
     33 N         122.3490   44.3470    8.5920 N.am      8 SEL2        0.0000 
     34 N         123.4650   41.7450    7.8970 N.am      5 SEP2        0.0000 
     35 CA        120.4005   44.2630    8.5625 C.3       3 GLC5        0.0000 
     36 CA        122.0550   44.5550    9.8690 C.3       9 GLL5        0.0000 
     37 CA        118.7460   43.9710    7.2560 C.3       6 GLP5        0.0000 
     38 CA        121.3990   42.6560   10.5115 C.3       3 GLC5        0.0000 
     39 CA        120.7430   40.7570   11.1540 C.3       6 GLP5        0.0000 
     40 CA        121.3960   44.4665   11.7175 C.3       3 GLC5        0.0000 
     41 CA        120.7370   44.3780   13.5660 C.3       6 GLP5        0.0000 
     42 CA        123.5425   45.1715   10.8445 C.3       3 GLC5        0.0000 
     43 CA        125.0300   45.7880   11.8200 C.3       6 GLP5        0.0000 
     44 CA        123.7205   43.4945    9.5485 C.3       3 GLC5        0.0000 
     45 N         122.3370   45.4500   11.6350 N.am      2 SEC2        0.0000 
     46 N         121.7120   45.7630   10.2860 N.am      8 SEL2        0.0000 
     47 N         122.9620   45.1370   12.9840 N.am      5 SEP2        0.0000 
     48 N         111.2460   60.6735   11.9815 N.am      2 SEC2        0.0000 
     49 N         111.2510   61.8770   12.7730 N.am      8 SEL2        0.0000 
     50 N         111.2410   59.4700   11.1900 N.am      5 SEP2        0.0000 
     51 O         111.2015   63.8830   14.5970 O.2       1 ALC1        0.0000 
     52 O         112.3700   63.5370   13.8680 O.2       7 ALL1        0.0000 
     53 O         110.0330   64.2290   15.3260 O.2       4 ALP1        0.0000 
     54 N         114.6965   65.9180   15.6705 N.am      2 SEC2        0.0000 
     55 N         113.6750   65.0860   14.9260 N.am      8 SEL2        0.0000 
     56 N         115.7180   66.7500   16.4150 N.am      5 SEP2        0.0000 
     57 CA        116.5715   62.9430   15.3195 C.3       3 GLC5        0.0000 
     58 CA        117.0700   63.6530   13.3830 C.3       9 GLL5        0.0000 
     59 CA        116.0730   62.2330   17.2560 C.3       6 GLP5        0.0000 
     60 CA        118.6010   64.8380   15.9065 C.3       3 GLC5        0.0000 
     61 CA        118.2580   64.2030   13.8480 C.3       9 GLL5        0.0000 
     62 CA        118.9440   65.4730   17.9650 C.3       6 GLP5        0.0000 
     63 CA        118.8955   65.3870   12.2950 C.3       3 GLC5        0.0000 
     64 CA        119.5330   66.5710   10.7420 C.3       6 GLP5        0.0000 
     65 CA        122.5810   64.3185   13.3920 C.3       3 GLC5        0.0000 
     66 CA        120.7460   64.2050   14.0130 C.3       9 GLL5        0.0000 
     67 CA        124.4160   64.4320   12.7710 C.3       6 GLP5        0.0000 
     68 CA        121.2515   65.6725   12.8645 C.3       3 GLC5        0.0000 
     69 CA        121.7570   67.1400   11.7160 C.3       6 GLP5        0.0000 
     70 CA        120.2685   59.9470   12.4710 C.3       3 GLC5        0.0000 
     71 CA        120.7380   61.9040   12.0490 C.3       9 GLL5        0.0000 
     72 CA        119.7990   57.9900   12.8930 C.3       6 GLP5        0.0000 
     73 CA        119.0220   59.9825   12.5040 C.3       3 GLC5        0.0000 
     74 CA        118.2450   61.9750   12.1150 C.3       9 GLL5        0.0000 
     75 CA        115.7315   61.6800   13.9785 C.3       3 GLC5        0.0000 
     76 CA        117.0430   62.5490   12.5230 C.3       9 GLL5        0.0000 
     77 CA        114.4200   60.8110   15.4340 C.3       6 GLP5        0.0000 
     78 CA        113.4395   59.0735   12.6200 C.3       3 GLC5        0.0000 
     79 CA        115.4570   59.5800   11.7710 C.3       9 GLL5        0.0000 
     80 CA        111.4220   58.5670   13.4690 C.3       6 GLP5        0.0000 
     81 O         114.3160   58.1930    8.4225 O.2       1 ALC1        0.0000 
     82 O         114.1910   59.0560    9.7480 O.2       7 ALL1        0.0000 
     83 O         114.4410   57.3300    7.0970 O.2       4 ALP1        0.0000 
     84 N         116.5770   56.8210   13.6995 N.am      2 SEC2        0.0000 
     85 N         115.7180   56.7680   12.2030 N.am      8 SEL2        0.0000 
     86 N         117.4360   56.8740   15.1960 N.am      5 SEP2        0.0000 
     87 CA        112.6405   55.4885    9.8085 C.3       3 GLC5        0.0000 
     88 CA        114.6900   56.1970   10.1570 C.3       9 GLL5        0.0000 
     89 CA        110.5910   54.7800    9.4600 C.3       6 GLP5        0.0000 
     90 N         112.6630   52.3070   11.3205 N.am      2 SEC2        0.0000 
     91 N         114.0810   52.4880   10.6090 N.am      8 SEL2        0.0000 
     92 N         111.2450   52.1260   12.0320 N.am      5 SEP2        0.0000 
     93 N         114.1365   54.4880    6.9210 N.am      2 SEC2        0.0000 
     94 N         114.2770   53.8300    8.4040 N.am      8 SEL2        0.0000 
     95 N         113.9960   55.1460    5.4380 N.am      5 SEP2        0.0000 
     96 CA        122.8580   48.2843   11.2570 C.3       3 GLC5        0.0000 
     97 CA        124.6440   47.2370   11.5640 C.3       6 GLP5        0.0000 
     98 CA        120.4615   44.9750    7.5780 C.3       3 GLC5        0.0000 
     99 CA        122.0240   46.6070    8.0880 C.3       9 GLL5        0.0000 
    100 CA        123.4755   47.0315    9.4075 C.3       3 GLC5        0.0000 
    101 CA        125.0260   47.6830   10.1580 C.3       6 GLP5        0.0000 
    102 CA        120.6215   46.9345    7.1940 C.3       3 GLC5        0.0000 
    103 CA        121.6730   46.7810    9.4140 C.3       9 GLL5        0.0000 
    104 CA        119.3180   47.4890    5.7310 C.3       6 GLP5        0.0000 
    105 CA        118.5115   62.3620   14.7748 C.3       3 GLC5        0.0000 
    106 CA        119.3590   60.7960   15.9340 C.3       6 GLP5        0.0000 
    107 CA        119.7293   62.3575   14.8295 C.3       3 GLC5        0.0000 
    108 CA        119.4530   63.6330   13.4370 C.3       9 GLL5        0.0000 
    109 CA        119.7250   61.5063   14.1207 C.3       3 GLC5        0.0000 
    110 CA        119.4440   62.5290   12.5660 C.3       9 GLL5        0.0000 
    111 CA        118.5015   61.5290   14.1265 C.3       3 GLC5        0.0000 
    112 CA        119.6156   63.7364   11.2991 C.3       3 GLC5        0.0000 
    113 CA        120.0620   65.2390   10.2780 C.3       6 GLP5        0.0000 
    114 CA        114.9890   60.5388   13.4413 C.3       3 GLC5        0.0000 
    115 CA        115.6590   60.9530   11.1260 C.3       9 GLL5        0.0000 
    116 CA        112.9995   58.0932   11.4898 C.3       3 GLC5        0.0000 
    117 CA        115.1970   58.5680   10.6600 C.3       9 GLL5        0.0000 
    118 CA        111.0200   58.2830   12.0200 C.3       6 GLP5        0.0000 
    119 CA        113.7458   55.8065   11.9950 C.3       3 GLC5        0.0000 
    120 CA        114.7610   57.2390   11.2590 C.3       9 GLL5        0.0000 
    121 CA        112.7660   54.8950   13.2820 C.3       6 GLP5        0.0000 
@<TRIPOS>BOND
@<TRIPOS>SUBSTRUCTURE
     1 ALC1       17 GROUP        1 X    ALC  0     ROOT ALC X 1
     2 SEC2        1 GROUP        1 X    SEC  0     **** SEC X 2
     3 GLC5        4 GROUP        1 X    GLC  0     **** GLC X 6
     4 ALP1       19 GROUP        1 Y    ALP  0     ROOT ALP Y 8
     5 SEP2        3 GROUP        1 Y    SEP  0     **** SEP Y 9
     6 GLP5        6 GROUP        1 Y    GLP  0     **** GLP Y 13
     7 ALL1       18 GROUP        1 Z    ALL  0     ROOT ALL Z 15
     8 SEL2        2 GROUP        1 Z    SEL  0     **** SEL Z 16
     9 GLL5        5 GROUP        1 Z    GLL  0     **** GLL Z 20
@<TRIPOS>SET

