#    Name: 1ebd_FAD_2_ligand
#    Modification time : Mon Mar 24 23:23:20 2014

@<TRIPOS>MOLECULE
1ebd_FAD_2_ligand
   84    89     1     0     0
SMALL
NO_CHARGES


@<TRIPOS>ATOM
      1 PA        117.3740   53.6950   10.9740 P.3       1 FAD462      0.0000 
      2 O1A       116.7510   54.2890   12.1800 O.co2     1 FAD462      0.0000 
      3 O2A       118.4910   54.4300   10.3570 O.co2     1 FAD462      0.0000 
      4 O5B       117.7890   52.2080   11.3790 O.3       1 FAD462      0.0000 
      5 C5B       118.2220   51.2750   10.3920 C.3       1 FAD462      0.0000 
      6 C4B       119.0070   50.1700   11.0810 C.3       1 FAD462      0.0000 
      7 O4B       119.5170   49.2350   10.1370 O.3       1 FAD462      0.0000 
      8 C3B       120.2250   50.6810   11.8260 C.3       1 FAD462      0.0000 
      9 O3B       120.1330   50.3600   13.2180 O.3       1 FAD462      0.0000 
     10 C2B       121.4100   49.9450   11.2320 C.3       1 FAD462      0.0000 
     11 O2B       122.3230   49.6570   12.2980 O.3       1 FAD462      0.0000 
     12 C1B       120.7340   48.7180   10.6680 C.3       1 FAD462      0.0000 
     13 N9A       121.4200   48.0840    9.5270 N.pl3     1 FAD462      0.0000 
     14 C8A       121.6820   48.6920    8.3650 C.2       1 FAD462      0.0000 
     15 N7A       122.0400   47.7720    7.4690 N.2       1 FAD462      0.0000 
     16 C5A       122.0240   46.6070    8.0880 C.ar      1 FAD462      0.0000 
     17 C6A       122.3300   45.3510    7.7120 C.ar      1 FAD462      0.0000 
     18 N6A       122.6210   45.0900    6.4440 N.pl3     1 FAD462      0.0000 
     19 N1A       122.3490   44.3470    8.5920 N.ar      1 FAD462      0.0000 
     20 C2A       122.0550   44.5550    9.8690 C.ar      1 FAD462      0.0000 
     21 N3A       121.7120   45.7630   10.2860 N.ar      1 FAD462      0.0000 
     22 C4A       121.6730   46.7810    9.4140 C.ar      1 FAD462      0.0000 
     23 N1        113.4320   62.0160   12.3670 N.2       1 FAD462      0.0000 
     24 C2        112.3150   62.4660   12.9640 C.2       1 FAD462      0.0000 
     25 O2        111.2510   61.8770   12.7730 O.2       1 FAD462      0.0000 
     26 N3        112.3700   63.5370   13.8680 N.am      1 FAD462      0.0000 
     27 C4        113.5940   64.1450   14.1390 C.2       1 FAD462      0.0000 
     28 O4        113.6750   65.0860   14.9260 O.2       1 FAD462      0.0000 
     29 C4X       114.7320   63.6660   13.5090 C.2       1 FAD462      0.0000 
     30 N5        115.9280   64.1760   13.8310 N.2       1 FAD462      0.0000 
     31 C5X       117.0700   63.6530   13.3830 C.ar      1 FAD462      0.0000 
     32 C6        118.2580   64.2030   13.8480 C.ar      1 FAD462      0.0000 
     33 C7        119.4530   63.6330   13.4370 C.ar      1 FAD462      0.0000 
     34 C7M       120.7460   64.2050   14.0130 C.3       1 FAD462      0.0000 
     35 C8        119.4440   62.5290   12.5660 C.ar      1 FAD462      0.0000 
     36 C8M       120.7380   61.9040   12.0490 C.3       1 FAD462      0.0000 
     37 C9        118.2450   61.9750   12.1150 C.ar      1 FAD462      0.0000 
     38 C9A       117.0430   62.5490   12.5230 C.ar      1 FAD462      0.0000 
     39 N10       115.7940   62.0320   12.1260 N.pl3     1 FAD462      0.0000 
     40 C10       114.6220   62.5860   12.6310 C.2       1 FAD462      0.0000 
     41 C1'       115.6590   60.9530   11.1260 C.3       1 FAD462      0.0000 
     42 C2'       115.4570   59.5800   11.7710 C.3       1 FAD462      0.0000 
     43 O2'       116.6400   59.1970   12.5030 O.3       1 FAD462      0.0000 
     44 C3'       115.1970   58.5680   10.6600 C.3       1 FAD462      0.0000 
     45 O3'       114.1910   59.0560    9.7480 O.3       1 FAD462      0.0000 
     46 C4'       114.7610   57.2390   11.2590 C.3       1 FAD462      0.0000 
     47 O4'       115.7180   56.7680   12.2030 O.3       1 FAD462      0.0000 
     48 C5'       114.6900   56.1970   10.1570 C.3       1 FAD462      0.0000 
     49 O5'       114.5020   54.9020   10.7150 O.3       1 FAD462      0.0000 
     50 P         114.6980   53.5890    9.8150 P.3       1 FAD462      0.0000 
     51 O1P       114.0810   52.4880   10.6090 O.co2     1 FAD462      0.0000 
     52 O2P       114.2770   53.8300    8.4040 O.co2     1 FAD462      0.0000 
     53 O3P       116.2780   53.4590    9.8650 O.3       1 FAD462      0.0000 
     54 H         118.8749   51.7411    9.6505 H         1 FAD462      0.0000 
     55 H         117.3798   50.8155    9.8695 H         1 FAD462      0.0000 
     56 H         118.3681   49.6692   11.7954 H         1 FAD462      0.0000 
     57 H         120.3382   51.7149   11.6442 H         1 FAD462      0.0000 
     58 H         121.8031   50.5247   10.4594 H         1 FAD462      0.0000 
     59 H         120.5309   48.0287   11.4398 H         1 FAD462      0.0000 
     60 H         121.6206   49.6502    8.2024 H         1 FAD462      0.0000 
     61 H         122.8411   44.1383    6.2300 H         1 FAD462      0.0000 
     62 H         122.5939   45.8686    5.8171 H         1 FAD462      0.0000 
     63 H         122.0952   43.7554   10.5513 H         1 FAD462      0.0000 
     64 H         111.5154   63.8662   14.3229 H         1 FAD462      0.0000 
     65 H         118.2498   65.0047   14.4750 H         1 FAD462      0.0000 
     66 H         118.2500   61.1641   11.4976 H         1 FAD462      0.0000 
     67 H         116.5572   60.9059   10.4905 H         1 FAD462      0.0000 
     68 H         114.8024   61.1511   10.4629 H         1 FAD462      0.0000 
     69 H         114.5958   59.6230   12.4007 H         1 FAD462      0.0000 
     70 H         116.1362   58.4023   10.1355 H         1 FAD462      0.0000 
     71 H         113.7926   57.3428   11.6882 H         1 FAD462      0.0000 
     72 H         115.6214   56.2578    9.5752 H         1 FAD462      0.0000 
     73 H         113.8650   56.4736    9.4843 H         1 FAD462      0.0000 
     74 H         121.5522   63.7326   13.6568 H         1 FAD462      0.0000 
     75 H         120.8535   65.1746   13.7932 H         1 FAD462      0.0000 
     76 H         120.7760   64.1252   15.0094 H         1 FAD462      0.0000 
     77 H         121.2891   62.5620   11.5358 H         1 FAD462      0.0000 
     78 H         121.3093   61.5620   12.7951 H         1 FAD462      0.0000 
     79 H         120.5597   61.1320   11.4389 H         1 FAD462      0.0000 
     80 H         120.7374   49.5731   13.3425 H         1 FAD462      0.0000 
     81 H         121.7986   49.1039   12.9454 H         1 FAD462      0.0000 
     82 H         116.5951   58.1999   12.5637 H         1 FAD462      0.0000 
     83 H         114.3066   58.5093    8.9187 H         1 FAD462      0.0000 
     84 H         115.8918   55.8181   11.9432 H         1 FAD462      0.0000 
@<TRIPOS>BOND
     1    2    1 ar   
     2    3    1 ar   
     3    4    1 1    
     4   53    1 1    
     5    5    4 1    
     6    6    5 1    
     7   54    5 1    
     8   55    5 1    
     9    7    6 1    
    10    8    6 1    
    11   56    6 1    
    12   12    7 1    
    13    9    8 1    
    14   10    8 1    
    15   57    8 1    
    16   80    9 1    
    17   11   10 1    
    18   12   10 1    
    19   58   10 1    
    20   81   11 1    
    21   13   12 1    
    22   59   12 1    
    23   14   13 1    
    24   22   13 1    
    25   15   14 2    
    26   60   14 1    
    27   16   15 1    
    28   17   16 ar   
    29   22   16 ar   
    30   18   17 1    
    31   19   17 ar   
    32   61   18 1    
    33   62   18 1    
    34   20   19 ar   
    35   21   20 ar   
    36   63   20 1    
    37   22   21 ar   
    38   24   23 1    
    39   40   23 2    
    40   25   24 2    
    41   26   24 am   
    42   27   26 am   
    43   64   26 1    
    44   28   27 2    
    45   29   27 1    
    46   30   29 2    
    47   40   29 1    
    48   31   30 1    
    49   32   31 ar   
    50   38   31 ar   
    51   33   32 ar   
    52   65   32 1    
    53   34   33 1    
    54   35   33 ar   
    55   74   34 1    
    56   75   34 1    
    57   76   34 1    
    58   36   35 1    
    59   37   35 ar   
    60   77   36 1    
    61   78   36 1    
    62   79   36 1    
    63   38   37 ar   
    64   66   37 1    
    65   39   38 1    
    66   40   39 1    
    67   41   39 1    
    68   42   41 1    
    69   67   41 1    
    70   68   41 1    
    71   43   42 1    
    72   44   42 1    
    73   69   42 1    
    74   82   43 1    
    75   45   44 1    
    76   46   44 1    
    77   70   44 1    
    78   83   45 1    
    79   47   46 1    
    80   48   46 1    
    81   71   46 1    
    82   84   47 1    
    83   49   48 1    
    84   72   48 1    
    85   73   48 1    
    86   50   49 1    
    87   51   50 ar   
    88   52   50 ar   
    89   53   50 1    
@<TRIPOS>SUBSTRUCTURE
     1 FAD462      1 GROUP   
@<TRIPOS>SET

