#    Name: 1k27_MTM_1_INTS_M
#    Modification time : Tue Mar 25 09:35:21 2014

@<TRIPOS>MOLECULE
1k27_MTM_1_INTS_M
   61     0    12     0     0
SMALL
NO_CHARGES


@<TRIPOS>ATOM
      1 CA         60.2390   12.3055   32.3080 C.3       4 GLC5        0.0000 
      2 CA         58.5210   13.4930   31.9010 C.3      12 GLL5        0.0000 
      3 CA         61.9570   11.1180   32.7150 C.3       8 GLP5        0.0000 
      4 CA         56.3785   13.5620   31.9955 C.3       4 GLC5        0.0000 
      5 CA         54.2360   13.6310   32.0900 C.3       8 GLP5        0.0000 
      6 CA         57.1620   15.4635   29.6430 C.3       4 GLC5        0.0000 
      7 CA         58.5890   14.5390   30.4230 C.3      12 GLL5        0.0000 
      8 CA         55.7350   16.3880   28.8630 C.3       8 GLP5        0.0000 
      9 CA         57.9080   16.6990   29.6715 C.3       4 GLC5        0.0000 
     10 CA         59.2520   16.0890   31.1300 C.3      12 GLL5        0.0000 
     11 CA         56.5640   17.3090   28.2130 C.3       8 GLP5        0.0000 
     12 CA         62.7715   19.1170   28.8730 C.3       4 GLC5        0.0000 
     13 CA         61.9800   17.8430   30.3960 C.3      12 GLL5        0.0000 
     14 CA         63.5630   20.3910   27.3500 C.3       8 GLP5        0.0000 
     15 CA         61.3645   19.6235   30.6140 C.3       4 GLC5        0.0000 
     16 CA         60.7490   21.4040   30.8320 C.3       8 GLP5        0.0000 
     17 N          63.4110   19.6840   30.1540 N.am      2 SEC2        0.0000 
     18 N          63.3420   18.3630   30.6010 N.am     10 SEL2        0.0000 
     19 N          63.4800   21.0050   29.7070 N.am      6 SEP2        0.0000 
     20 CA         61.4900   18.6400   33.3540 C.3       4 GLC5        0.0000 
     21 CA         61.3410   17.4070   31.7860 C.3      12 GLL5        0.0000 
     22 CA         61.6390   19.8730   34.9220 C.3       8 GLP5        0.0000 
     23 CA         60.3850   19.0080   31.7900 C.3       4 GLC5        0.0000 
     24 CA         59.4290   20.6090   31.7940 C.3       8 GLP5        0.0000 
     25 CA         62.9680   14.7740   28.8770 C.3       4 GLC5        0.0000 
     26 CA         62.0150   16.6010   29.4380 C.3      12 GLL5        0.0000 
     27 CA         63.9210   12.9470   28.3160 C.3       8 GLP5        0.0000 
     28 CA         63.4175   18.0650   28.5210 C.3       4 GLC5        0.0000 
     29 CA         64.8200   19.5290   27.6040 C.3       8 GLP5        0.0000 
     30 CA         62.3925   14.2945   27.7760 C.3       4 GLC5        0.0000 
     31 CA         60.8640   15.6420   27.2360 C.3      12 GLL5        0.0000 
     32 CA         59.3155   14.1610   27.1500 C.3       4 GLC5        0.0000 
     33 CA         57.7670   12.6800   27.0640 C.3       8 GLP5        0.0000 
     34 O          59.5980   15.1095   25.2180 O.2       1 ALC1        0.0000 
     35 O          60.1240   15.9570   26.1900 O.2       9 ALL1        0.0000 
     36 O          59.0720   14.2620   24.2460 O.2       5 ALP1        0.0000 
     37 CA         60.0380   19.3930   24.2380 C.3       4 GLC5        0.0000 
     38 CA         59.1570   18.2780   25.5860 C.3      12 GLL5        0.0000 
     39 CA         60.9190   20.5080   22.8900 C.3       8 GLP5        0.0000 
     40 OD1        58.3780   16.8140   23.6155 O.co2     3 ASC3        0.0000 
     41 OD1        58.5200   17.9650   24.4520 O.co2    11 ASL3        0.0000 
     42 OD1        58.2360   15.6630   22.7790 O.co2     7 ASP3        0.0000 
     43 OD1        58.7960   16.1135   24.3490 O.co2     3 ASC3        0.0000 
     44 OD1        59.0720   14.2620   24.2460 O.co2     7 ASP3        0.0000 
     45 OD1        57.5885   18.9780   23.7855 O.co2     3 ASC3        0.0000 
     46 OD1        56.6570   19.9910   23.1190 O.co2     7 ASP3        0.0000 
     47 O          58.3780   16.8140   23.6155 O.2       1 ALC1        0.0000 
     48 O          58.5200   17.9650   24.4520 O.2       9 ALL1        0.0000 
     49 O          58.2360   15.6630   22.7790 O.2       5 ALP1        0.0000 
     50 O          57.5885   18.9780   23.7855 O.2       1 ALC1        0.0000 
     51 O          56.6570   19.9910   23.1190 O.2       5 ALP1        0.0000 
     52 CA         59.1240   12.8215   29.7185 C.3       4 GLC5        0.0000 
     53 CA         59.6930   11.6270   28.2750 C.3       8 GLP5        0.0000 
     54 CA         62.1898   18.8200   27.5755 C.3       4 GLC5        0.0000 
     55 CA         61.1390   16.7030   28.0930 C.3      12 GLL5        0.0000 
     56 CA         60.3340   17.3202   24.2078 C.3       4 GLC5        0.0000 
     57 CA         59.8810   17.3110   26.3470 C.3      12 GLL5        0.0000 
     58 CA         61.1490   16.8460   22.4490 C.3       8 GLP5        0.0000 
     59 CA         62.1963   16.4999   26.1641 C.3       4 GLC5        0.0000 
     60 CA         60.4940   17.7950   27.5090 C.3      12 GLL5        0.0000 
     61 CA         63.7980   16.1370   25.0320 C.3       8 GLP5        0.0000 
@<TRIPOS>BOND
@<TRIPOS>SUBSTRUCTURE
     1 ALC1       34 GROUP        1 X    ALC  0     ROOT ALC X 1
     2 SEC2       17 GROUP        1 X    SEC  0     **** SEC X 2
     3 ASC3       40 GROUP        1 X    ASC  0     **** ASC X 3
     4 GLC5        1 GROUP        1 X    GLC  0     **** GLC X 6
     5 ALP1       36 GROUP        1 Y    ALP  0     ROOT ALP Y 8
     6 SEP2       19 GROUP        1 Y    SEP  0     **** SEP Y 9
     7 ASP3       42 GROUP        1 Y    ASP  0     **** ASP Y 10
     8 GLP5        3 GROUP        1 Y    GLP  0     **** GLP Y 13
     9 ALL1       35 GROUP        1 Z    ALL  0     ROOT ALL Z 15
    10 SEL2       18 GROUP        1 Z    SEL  0     **** SEL Z 16
    11 ASL3       41 GROUP        1 Z    ASL  0     **** ASL Z 17
    12 GLL5        2 GROUP        1 Z    GLL  0     **** GLL Z 20
@<TRIPOS>SET

