#    Name: 1k27_MTM_1_ligand
#    Modification time : Tue Mar 25 09:35:21 2014

@<TRIPOS>MOLECULE
1k27_MTM_1_ligand
   39    41     1     0     0
SMALL
NO_CHARGES


@<TRIPOS>ATOM
      1 CS         58.5210   13.4930   31.9010 C.3       1 MTM401      0.0000 
      2 S5'        58.5890   14.5390   30.4230 S.3       1 MTM401      0.0000 
      3 C5'        59.2520   16.0890   31.1300 C.3       1 MTM401      0.0000 
      4 C4'        60.7460   16.0410   31.4360 C.3       1 MTM401      0.0000 
      5 N4'        61.4390   15.5330   30.2470 N.4       1 MTM401      0.0000 
      6 C2'        61.9800   17.8430   30.3960 C.3       1 MTM401      0.0000 
      7 O2'        63.3420   18.3630   30.6010 O.3       1 MTM401      0.0000 
      8 C3'        61.3410   17.4070   31.7860 C.3       1 MTM401      0.0000 
      9 O3'        62.3740   17.2840   32.8510 O.3       1 MTM401      0.0000 
     10 C1'        62.0150   16.6010   29.4380 C.3       1 MTM401      0.0000 
     11 C9         61.1390   16.7030   28.0930 C.2       1 MTM401      0.0000 
     12 C8         60.8640   15.6420   27.2360 C.2       1 MTM401      0.0000 
     13 N7         60.1240   15.9570   26.1900 N.pl3     1 MTM401      0.0000 
     14 C5         59.8810   17.3110   26.3470 C.2       1 MTM401      0.0000 
     15 C6         59.1570   18.2780   25.5860 C.3       1 MTM401      0.0000 
     16 N6         58.5200   17.9650   24.4520 N.4       1 MTM401      0.0000 
     17 N1         59.1320   19.5860   26.0670 N.pl3     1 MTM401      0.0000 
     18 C2         59.7750   19.9130   27.2120 C.2       1 MTM401      0.0000 
     19 N3         60.4840   19.0820   28.0040 N.2       1 MTM401      0.0000 
     20 C4         60.4940   17.7950   27.5090 C.2       1 MTM401      0.0000 
     21 H          58.6351   16.2162   32.0047 H         1 MTM401      0.0000 
     22 H          58.9884   16.8094   30.3728 H         1 MTM401      0.0000 
     23 H          60.9130   15.3677   32.2609 H         1 MTM401      0.0000 
     24 H          61.3381   18.5786   29.9637 H         1 MTM401      0.0000 
     25 H          60.5748   18.0749   32.0082 H         1 MTM401      0.0000 
     26 H          63.0139   16.3744   29.1887 H         1 MTM401      0.0000 
     27 H          61.2179   14.7222   27.4305 H         1 MTM401      0.0000 
     28 H          59.8143   15.4220   25.4852 H         1 MTM401      0.0000 
     29 H          57.9729   17.9825   26.3623 H         1 MTM401      0.0000 
     30 H          58.6095   20.3041   25.5281 H         1 MTM401      0.0000 
     31 H          59.7130   20.9529   27.5246 H         1 MTM401      0.0000 
     32 H          59.4341   13.2276   32.2105 H         1 MTM401      0.0000 
     33 H          58.0763   13.9592   32.6658 H         1 MTM401      0.0000 
     34 H          58.0108   12.6490   31.7355 H         1 MTM401      0.0000 
     35 H          59.1117   18.0696   23.6526 H         1 MTM401      0.0000 
     36 H          58.1976   17.0184   24.4562 H         1 MTM401      0.0000 
     37 H          57.7202   18.5464   24.3027 H         1 MTM401      0.0000 
     38 H          63.4832   18.3354   31.5906 H         1 MTM401      0.0000 
     39 H          62.3242   16.3314   33.1509 H         1 MTM401      0.0000 
@<TRIPOS>BOND
     1    2    1 1    
     2   32    1 1    
     3   33    1 1    
     4   34    1 1    
     5    3    2 1    
     6    4    3 1    
     7   21    3 1    
     8   22    3 1    
     9    5    4 1    
    10    8    4 1    
    11   23    4 1    
    12   10    5 1    
    13    7    6 1    
    14    8    6 1    
    15   10    6 1    
    16   24    6 1    
    17   38    7 1    
    18    9    8 1    
    19   25    8 1    
    20   39    9 1    
    21   11   10 1    
    22   26   10 1    
    23   12   11 2    
    24   20   11 1    
    25   13   12 1    
    26   27   12 1    
    27   14   13 1    
    28   28   13 1    
    29   15   14 1    
    30   20   14 2    
    31   16   15 1    
    32   17   15 1    
    33   29   15 1    
    34   35   16 1    
    35   36   16 1    
    36   37   16 1    
    37   18   17 1    
    38   30   17 1    
    39   19   18 2    
    40   31   18 1    
    41   20   19 1    
@<TRIPOS>SUBSTRUCTURE
     1 MTM401      1 GROUP   
@<TRIPOS>SET

