#    Name: 1v0j_FAD_3_INTS_M
#    Modification time : Tue Mar 25 07:24:06 2014

@<TRIPOS>MOLECULE
1v0j_FAD_3_INTS_M
  109     0    12     0     0
SMALL
NO_CHARGES


@<TRIPOS>ATOM
      1 N          -9.3455   32.3490    0.9000 N.am      2 SEC2        0.0000 
      2 N          -9.4100   33.6890    1.8790 N.am     10 SEL2        0.0000 
      3 N          -9.2810   31.0090   -0.0790 N.am      6 SEP2        0.0000 
      4 NZ         -7.8410   36.0465   -0.7670 N.4       3 LYC4        0.0000 
      5 NZ         -9.3990   35.2310   -0.0480 N.4      11 LYL4        0.0000 
      6 NZ         -6.2830   36.8620   -1.4860 N.4       7 LYP4        0.0000 
      7 CA        -12.2580   34.5575    2.2025 C.3       4 GLC5        0.0000 
      8 CA        -12.1140   35.9830    0.4860 C.3      12 GLL5        0.0000 
      9 CA        -12.4020   33.1320    3.9190 C.3       8 GLP5        0.0000 
     10 CA        -11.2655   37.3220   -0.9205 C.3       4 GLC5        0.0000 
     11 CA        -10.4170   38.6610   -2.3270 C.3       8 GLP5        0.0000 
     12 CA        -15.0200   35.9280    0.8265 C.3       4 GLC5        0.0000 
     13 CA        -13.4230   35.3560    0.0030 C.3      12 GLL5        0.0000 
     14 CA        -16.6170   36.5000    1.6500 C.3       8 GLP5        0.0000 
     15 N         -14.2865   31.7415   -1.0245 N.am      2 SEC2        0.0000 
     16 N         -13.8610   33.1880   -0.9380 N.am     10 SEL2        0.0000 
     17 N         -14.7120   30.2950   -1.1110 N.am      6 SEP2        0.0000 
     18 O         -15.0635   33.1015   -0.6280 O.2       1 ALC1        0.0000 
     19 O         -13.8610   33.1880   -0.9380 O.2       9 ALL1        0.0000 
     20 O         -16.2660   33.0150   -0.3180 O.2       5 ALP1        0.0000 
     21 O         -15.5080   33.5100   -2.8775 O.2       1 ALC1        0.0000 
     22 O         -14.5960   34.2810   -3.2640 O.2       9 ALL1        0.0000 
     23 O         -16.4200   32.7390   -2.4910 O.2       5 ALP1        0.0000 
     24 CA        -15.7585   36.2515    0.0195 C.3       4 GLC5        0.0000 
     25 CA        -14.9000   36.0030   -1.6110 C.3      12 GLL5        0.0000 
     26 CA        -15.3420   39.9160   -2.4660 C.3       4 GLC5        0.0000 
     27 CA        -16.8420   38.5390   -3.3330 C.3      12 GLL5        0.0000 
     28 CA        -13.8420   41.2930   -1.5990 C.3       8 GLP5        0.0000 
     29 CA        -19.8715   40.0270   -3.0185 C.3       4 GLC5        0.0000 
     30 CA        -18.1110   39.0280   -3.6820 C.3      12 GLL5        0.0000 
     31 CA        -21.6320   41.0260   -2.3550 C.3       8 GLP5        0.0000 
     32 O         -19.4010   40.0160   -5.4430 O.2       1 ALC1        0.0000 
     33 O         -18.1980   40.1200   -4.4340 O.2       9 ALL1        0.0000 
     34 O         -20.6040   39.9120   -6.4520 O.2       5 ALP1        0.0000 
     35 N         -20.6270   38.8610   -3.7080 N.am      2 SEC2        0.0000 
     36 N         -19.2620   38.3440   -3.2720 N.am     10 SEL2        0.0000 
     37 N         -21.9920   39.3780   -4.1440 N.am      6 SEP2        0.0000 
     38 CA        -18.9940   38.6820   -1.3760 C.3       4 GLC5        0.0000 
     39 CA        -19.1570   37.1920   -2.4990 C.3      12 GLL5        0.0000 
     40 CA        -18.8310   40.1720   -0.2530 C.3       8 GLP5        0.0000 
     41 CA        -19.4065   35.4510   -1.7320 C.3       4 GLC5        0.0000 
     42 CA        -19.6560   33.7100   -0.9650 C.3       8 GLP5        0.0000 
     43 CA        -18.9725   36.2230   -4.0130 C.3       4 GLC5        0.0000 
     44 CA        -18.7880   35.2540   -5.5270 C.3       8 GLP5        0.0000 
     45 CA        -20.5445   37.3495   -4.1245 C.3       4 GLC5        0.0000 
     46 CA        -21.9320   37.5070   -5.7500 C.3       8 GLP5        0.0000 
     47 N         -18.4865   35.4255   -2.7315 N.am      2 SEC2        0.0000 
     48 N         -17.8880   36.7080   -2.1530 N.am     10 SEL2        0.0000 
     49 N         -19.0850   34.1430   -3.3100 N.am      6 SEP2        0.0000 
     50 CA        -16.6845   36.9350   -0.4590 C.3       4 GLC5        0.0000 
     51 CA        -16.7520   37.3700   -2.5680 C.3      12 GLL5        0.0000 
     52 N          -2.4520   32.5735    6.2190 N.am      2 SEC2        0.0000 
     53 N          -1.6170   31.7320    5.1000 N.am     10 SEL2        0.0000 
     54 N          -3.2870   33.4150    7.3380 N.am      6 SEP2        0.0000 
     55 N          -2.1665   32.3935    7.3180 N.am      2 SEC2        0.0000 
     56 N          -1.0460   31.3720    7.2980 N.am     10 SEL2        0.0000 
     57 O           0.1835   29.1010    6.6770 O.2       1 ALC1        0.0000 
     58 O          -0.0820   30.0080    5.7740 O.2       9 ALL1        0.0000 
     59 O           0.4490   28.1940    7.5800 O.2       5 ALP1        0.0000 
     60 N           0.4905   27.5965    4.7775 N.am      2 SEC2        0.0000 
     61 N           0.9770   28.7730    4.2070 N.am     10 SEL2        0.0000 
     62 N           0.0040   26.4200    5.3480 N.am      6 SEP2        0.0000 
     63 CA         -1.3360   28.5040   -2.7290 C.3       4 GLC5        0.0000 
     64 CA         -1.0590   30.6540   -2.6630 C.3      12 GLL5        0.0000 
     65 CA         -1.6130   26.3540   -2.7950 C.3       8 GLP5        0.0000 
     66 CA         -0.4500   30.9345   -4.2315 C.3       4 GLC5        0.0000 
     67 CA          0.1590   31.2150   -5.8000 C.3       8 GLP5        0.0000 
     68 CA         -1.6825   29.4655   -4.4645 C.3       4 GLC5        0.0000 
     69 CA         -2.3060   28.2770   -6.2660 C.3       8 GLP5        0.0000 
     70 CA          0.1850   32.4830   -2.7205 C.3       4 GLC5        0.0000 
     71 CA          1.4290   34.3120   -2.7780 C.3       8 GLP5        0.0000 
     72 CA         -5.0200   32.0020   -1.5230 C.3       4 GLC5        0.0000 
     73 CA         -3.0340   32.7780   -2.0380 C.3      12 GLL5        0.0000 
     74 CA         -7.0060   31.2260   -1.0080 C.3       8 GLP5        0.0000 
     75 CA         -3.6955   33.1205   -3.4685 C.3       4 GLC5        0.0000 
     76 CA         -4.3570   33.4630   -4.8990 C.3       8 GLP5        0.0000 
     77 CA         -1.8575   34.2275    2.4175 C.3       4 GLC5        0.0000 
     78 CA         -3.2430   33.0450    3.1050 C.3      12 GLL5        0.0000 
     79 CA         -0.4720   35.4100    1.7300 C.3       8 GLP5        0.0000 
     80 CA         -2.3985   33.9370    4.7890 C.3       4 GLC5        0.0000 
     81 CA         -1.5540   34.8290    6.4730 C.3       8 GLP5        0.0000 
     82 O          -4.1470   35.6015    3.5160 O.2       1 ALC1        0.0000 
     83 O          -5.1300   35.0910    2.4620 O.2       9 ALL1        0.0000 
     84 O          -3.1640   36.1120    4.5700 O.2       5 ALP1        0.0000 
     85 CA         -5.1905   37.2815    4.8650 C.3       4 GLC5        0.0000 
     86 CA         -6.6070   35.8080    4.0700 C.3      12 GLL5        0.0000 
     87 CA         -3.7740   38.7550    5.6600 C.3       8 GLP5        0.0000 
     88 CA         -6.6765   36.1930    5.9680 C.3       4 GLC5        0.0000 
     89 CA         -6.7460   36.5780    7.8660 C.3       8 GLP5        0.0000 
     90 N         -10.7555   35.7595    5.9610 N.am      2 SEC2        0.0000 
     91 N         -10.4460   35.8920    4.5540 N.am     10 SEL2        0.0000 
     92 N         -11.0650   35.6270    7.3680 N.am      6 SEP2        0.0000 
     93 N          -8.4540   39.1580    3.5560 N.am      2 SEC2        0.0000 
     94 N          -9.1200   37.9280    3.9880 N.am     10 SEL2        0.0000 
     95 N          -7.7880   40.3880    3.1240 N.am      6 SEP2        0.0000 
     96 CA        -12.4865   33.1262   -0.1387 C.3       4 GLC5        0.0000 
     97 CA        -11.6480   31.3640    0.3190 C.3       8 GLP5        0.0000 
     98 CA        -17.9726   39.1244   -1.6454 C.3       4 GLC5        0.0000 
     99 CA        -17.0546   37.3879   -4.6764 C.3       4 GLC5        0.0000 
    100 CA        -16.9950   36.6990   -6.3150 C.3       8 GLP5        0.0000 
    101 CA         -2.5545   29.2598    1.0634 C.3       4 GLC5        0.0000 
    102 CA         -0.9250   30.1550   -0.2210 C.3      12 GLL5        0.0000 
    103 CA         -3.6180   27.5240    1.1960 C.3       8 GLP5        0.0000 
    104 CA         -4.8912   31.8652    5.3370 C.3       4 GLC5        0.0000 
    105 CA         -4.6360   32.4500    3.3880 C.3      12 GLL5        0.0000 
    106 CA         -4.7090   30.7730    6.8990 C.3       8 GLP5        0.0000 
    107 CA         -6.0790   36.1850    2.2975 C.3       4 GLC5        0.0000 
    108 CA         -6.1290   34.5820    3.2960 C.3      12 GLL5        0.0000 
    109 CA         -5.7900   37.1750    0.9120 C.3       8 GLP5        0.0000 
@<TRIPOS>BOND
@<TRIPOS>SUBSTRUCTURE
     1 ALC1       18 GROUP        1 X    ALC  0     ROOT ALC X 1
     2 SEC2        1 GROUP        1 X    SEC  0     **** SEC X 2
     3 LYC4        4 GROUP        1 X    LYC  0     **** LYC X 4
     4 GLC5        7 GROUP        1 X    GLC  0     **** GLC X 6
     5 ALP1       20 GROUP        1 Y    ALP  0     ROOT ALP Y 8
     6 SEP2        3 GROUP        1 Y    SEP  0     **** SEP Y 9
     7 LYP4        6 GROUP        1 Y    LYP  0     **** LYP Y 11
     8 GLP5        9 GROUP        1 Y    GLP  0     **** GLP Y 13
     9 ALL1       19 GROUP        1 Z    ALL  0     ROOT ALL Z 15
    10 SEL2        2 GROUP        1 Z    SEL  0     **** SEL Z 16
    11 LYL4        5 GROUP        1 Z    LYL  0     **** LYL Z 18
    12 GLL5        8 GROUP        1 Z    GLL  0     **** GLL Z 20
@<TRIPOS>SET

