#    Name: 1v0j_FAD_3_ligand
#    Modification time : Tue Mar 25 07:24:06 2014

@<TRIPOS>MOLECULE
1v0j_FAD_3_ligand
   84    89     1     0     0
SMALL
NO_CHARGES


@<TRIPOS>ATOM
      1 PA         -9.8460   35.0470    1.3720 P.3       1 FAD1388     0.0000 
      2 O1A        -9.4100   33.6890    1.8790 O.co2     1 FAD1388     0.0000 
      3 O2A        -9.3990   35.2310   -0.0480 O.co2     1 FAD1388     0.0000 
      4 O5B       -11.4410   35.1940    1.4350 O.3       1 FAD1388     0.0000 
      5 C5B       -12.1140   35.9830    0.4860 C.3       1 FAD1388     0.0000 
      6 C4B       -13.4230   35.3560    0.0030 C.3       1 FAD1388     0.0000 
      7 O4B       -14.2460   36.4340   -0.4330 O.3       1 FAD1388     0.0000 
      8 C3B       -13.2270   34.4210   -1.1960 C.3       1 FAD1388     0.0000 
      9 O3B       -13.8610   33.1880   -0.9380 O.3       1 FAD1388     0.0000 
     10 C2B       -13.9100   35.1270   -2.3640 C.3       1 FAD1388     0.0000 
     11 O2B       -14.5960   34.2810   -3.2640 O.3       1 FAD1388     0.0000 
     12 C1B       -14.9000   36.0030   -1.6110 C.3       1 FAD1388     0.0000 
     13 N9A       -15.4100   37.1340   -2.3810 N.pl3     1 FAD1388     0.0000 
     14 C8A       -14.6880   38.1060   -3.0200 C.2       1 FAD1388     0.0000 
     15 N7A       -15.5750   38.9690   -3.5940 N.2       1 FAD1388     0.0000 
     16 C5A       -16.8420   38.5390   -3.3330 C.ar      1 FAD1388     0.0000 
     17 C6A       -18.1110   39.0280   -3.6820 C.ar      1 FAD1388     0.0000 
     18 N6A       -18.1980   40.1200   -4.4340 N.pl3     1 FAD1388     0.0000 
     19 N1A       -19.2620   38.3440   -3.2720 N.ar      1 FAD1388     0.0000 
     20 C2A       -19.1570   37.1920   -2.4990 C.ar      1 FAD1388     0.0000 
     21 N3A       -17.8880   36.7080   -2.1530 N.ar      1 FAD1388     0.0000 
     22 C4A       -16.7520   37.3700   -2.5680 C.ar      1 FAD1388     0.0000 
     23 N1         -1.6170   31.7320    5.1000 N.2       1 FAD1388     0.0000 
     24 C2         -0.9240   31.0650    6.1010 C.2       1 FAD1388     0.0000 
     25 O2         -1.0460   31.3720    7.2980 O.2       1 FAD1388     0.0000 
     26 N3         -0.0820   30.0080    5.7740 N.am      1 FAD1388     0.0000 
     27 C4          0.0960   29.6110    4.4610 C.2       1 FAD1388     0.0000 
     28 O4          0.9770   28.7730    4.2070 O.2       1 FAD1388     0.0000 
     29 C4X        -0.6020   30.2900    3.4460 C.2       1 FAD1388     0.0000 
     30 N5         -0.4350   29.9020    2.1280 N.2       1 FAD1388     0.0000 
     31 C5X        -1.1070   30.5590    1.1100 C.ar      1 FAD1388     0.0000 
     32 C6         -0.9250   30.1550   -0.2210 C.ar      1 FAD1388     0.0000 
     33 C7         -1.5960   30.8210   -1.2640 C.ar      1 FAD1388     0.0000 
     34 C7M        -1.0590   30.6540   -2.6630 C.3       1 FAD1388     0.0000 
     35 C8         -2.4650   31.8830   -0.9640 C.ar      1 FAD1388     0.0000 
     36 C8M        -3.0340   32.7780   -2.0380 C.3       1 FAD1388     0.0000 
     37 C9         -2.6420   32.2740    0.3650 C.ar      1 FAD1388     0.0000 
     38 C9A        -1.9660   31.6340    1.4170 C.ar      1 FAD1388     0.0000 
     39 N10        -2.1660   32.0260    2.7560 N.pl3     1 FAD1388     0.0000 
     40 C10        -1.4670   31.3580    3.7740 C.2       1 FAD1388     0.0000 
     41 C1'        -3.2430   33.0450    3.1050 C.3       1 FAD1388     0.0000 
     42 C2'        -4.6360   32.4500    3.3880 C.3       1 FAD1388     0.0000 
     43 O2'        -5.2790   32.0250    2.1900 O.3       1 FAD1388     0.0000 
     44 C3'        -5.5110   33.4650    4.1620 C.3       1 FAD1388     0.0000 
     45 O3'        -6.5000   32.7710    4.9020 O.3       1 FAD1388     0.0000 
     46 C4'        -6.1290   34.5820    3.2960 C.3       1 FAD1388     0.0000 
     47 O4'        -5.1300   35.0910    2.4620 O.3       1 FAD1388     0.0000 
     48 C5'        -6.6070   35.8080    4.0700 C.3       1 FAD1388     0.0000 
     49 O5'        -7.9630   35.6760    4.4660 O.3       1 FAD1388     0.0000 
     50 P          -9.2430   36.4350    3.8340 P.3       1 FAD1388     0.0000 
     51 O1P       -10.4460   35.8920    4.5540 O.co2     1 FAD1388     0.0000 
     52 O2P        -9.1200   37.9280    3.9880 O.co2     1 FAD1388     0.0000 
     53 O3P        -9.2520   36.2410    2.2350 O.3       1 FAD1388     0.0000 
     54 H         -11.4902   36.1688   -0.4169 H         1 FAD1388     0.0000 
     55 H         -12.3648   36.9907    0.8867 H         1 FAD1388     0.0000 
     56 H         -13.8750   34.8227    0.8002 H         1 FAD1388     0.0000 
     57 H         -12.1961   34.3453   -1.3974 H         1 FAD1388     0.0000 
     58 H         -13.2000   35.7800   -2.8145 H         1 FAD1388     0.0000 
     59 H         -15.7418   35.3445   -1.3274 H         1 FAD1388     0.0000 
     60 H         -13.7368   38.1663   -3.0557 H         1 FAD1388     0.0000 
     61 H         -17.4345   40.7623   -4.3671 H         1 FAD1388     0.0000 
     62 H         -19.0191   40.2010   -4.9990 H         1 FAD1388     0.0000 
     63 H         -19.9956   36.6994   -2.1838 H         1 FAD1388     0.0000 
     64 H           0.4218   29.5087    6.5327 H         1 FAD1388     0.0000 
     65 H          -0.3004   29.3708   -0.4375 H         1 FAD1388     0.0000 
     66 H          -3.2870   33.0550    0.5841 H         1 FAD1388     0.0000 
     67 H          -3.3355   33.7723    2.2766 H         1 FAD1388     0.0000 
     68 H          -2.9222   33.6212    3.9931 H         1 FAD1388     0.0000 
     69 H          -4.4817   31.5940    4.0656 H         1 FAD1388     0.0000 
     70 H          -4.8181   33.9731    4.8827 H         1 FAD1388     0.0000 
     71 H          -6.9423   34.1901    2.7308 H         1 FAD1388     0.0000 
     72 H          -6.4534   36.6894    3.4221 H         1 FAD1388     0.0000 
     73 H          -5.9367   35.9332    4.9391 H         1 FAD1388     0.0000 
     74 H          -0.1150   30.9750   -2.7392 H         1 FAD1388     0.0000 
     75 H          -1.0674   29.6968   -2.9522 H         1 FAD1388     0.0000 
     76 H          -1.5978   31.1668   -3.3313 H         1 FAD1388     0.0000 
     77 H          -2.3147   33.2512   -2.5467 H         1 FAD1388     0.0000 
     78 H          -3.5733   32.2624   -2.7039 H         1 FAD1388     0.0000 
     79 H          -3.6340   33.4810   -1.6562 H         1 FAD1388     0.0000 
     80 H         -14.5558   33.3936   -0.2488 H         1 FAD1388     0.0000 
     81 H         -14.8351   33.4718   -2.7273 H         1 FAD1388     0.0000 
     82 H          -5.6264   32.8640    1.7712 H         1 FAD1388     0.0000 
     83 H          -7.2562   32.6376    4.2614 H         1 FAD1388     0.0000 
     84 H          -4.4160   35.4160    3.0822 H         1 FAD1388     0.0000 
@<TRIPOS>BOND
     1    2    1 ar   
     2    3    1 ar   
     3    4    1 1    
     4   53    1 1    
     5    5    4 1    
     6    6    5 1    
     7   54    5 1    
     8   55    5 1    
     9    7    6 1    
    10    8    6 1    
    11   56    6 1    
    12   12    7 1    
    13    9    8 1    
    14   10    8 1    
    15   57    8 1    
    16   80    9 1    
    17   11   10 1    
    18   12   10 1    
    19   58   10 1    
    20   81   11 1    
    21   13   12 1    
    22   59   12 1    
    23   14   13 1    
    24   22   13 1    
    25   15   14 2    
    26   60   14 1    
    27   16   15 1    
    28   17   16 ar   
    29   22   16 ar   
    30   18   17 1    
    31   19   17 ar   
    32   61   18 1    
    33   62   18 1    
    34   20   19 ar   
    35   21   20 ar   
    36   63   20 1    
    37   22   21 ar   
    38   24   23 1    
    39   40   23 2    
    40   25   24 2    
    41   26   24 am   
    42   27   26 am   
    43   64   26 1    
    44   28   27 2    
    45   29   27 1    
    46   30   29 2    
    47   40   29 1    
    48   31   30 1    
    49   32   31 ar   
    50   38   31 ar   
    51   33   32 ar   
    52   65   32 1    
    53   34   33 1    
    54   35   33 ar   
    55   74   34 1    
    56   75   34 1    
    57   76   34 1    
    58   36   35 1    
    59   37   35 ar   
    60   77   36 1    
    61   78   36 1    
    62   79   36 1    
    63   38   37 ar   
    64   66   37 1    
    65   39   38 1    
    66   40   39 1    
    67   41   39 1    
    68   42   41 1    
    69   67   41 1    
    70   68   41 1    
    71   43   42 1    
    72   44   42 1    
    73   69   42 1    
    74   82   43 1    
    75   45   44 1    
    76   46   44 1    
    77   70   44 1    
    78   83   45 1    
    79   47   46 1    
    80   48   46 1    
    81   71   46 1    
    82   84   47 1    
    83   49   48 1    
    84   72   48 1    
    85   73   48 1    
    86   50   49 1    
    87   51   50 ar   
    88   52   50 ar   
    89   53   50 1    
@<TRIPOS>SUBSTRUCTURE
     1 FAD1388     1 GROUP   
@<TRIPOS>SET

