#    Name: 3vvh_4BM_3_INTS_M
#    Modification time : Tue Mar 25 01:40:53 2014

@<TRIPOS>MOLECULE
3vvh_4BM_3_INTS_M
   73     0     9     0     0
SMALL
NO_CHARGES


@<TRIPOS>ATOM
      1 CA         28.6455  152.8475  -25.9715 C.3       3 GLC5        0.0000 
      2 CA         30.2880  151.9910  -24.8370 C.3       9 GLL5        0.0000 
      3 CA         27.0030  153.7040  -27.1060 C.3       6 GLP5        0.0000 
      4 CA         34.8495  157.1485  -26.2720 C.3       3 GLC5        0.0000 
      5 CA         33.1430  156.2600  -25.5440 C.3       9 GLL5        0.0000 
      6 CA         36.5560  158.0370  -27.0000 C.3       6 GLP5        0.0000 
      7 N          28.3930  154.7845  -22.1040 N.am      2 SEC2        0.0000 
      8 N          29.1750  155.1290  -23.2460 N.am      8 SEL2        0.0000 
      9 N          27.6110  154.4400  -20.9620 N.am      5 SEP2        0.0000 
     10 CA         27.6270  155.6530  -20.9020 C.3       3 GLC5        0.0000 
     11 CA         29.0350  157.3020  -20.5290 C.3       9 GLL5        0.0000 
     12 CA         26.2190  154.0040  -21.2750 C.3       6 GLP5        0.0000 
     13 CA         25.0160  158.6920  -20.5780 C.3       3 GLC5        0.0000 
     14 CA         26.6560  157.9330  -20.4700 C.3       9 GLL5        0.0000 
     15 CA         23.3760  159.4510  -20.6860 C.3       6 GLP5        0.0000 
     16 CA         26.1825  156.2860  -21.5130 C.3       3 GLC5        0.0000 
     17 CA         25.7090  154.6390  -22.5560 C.3       6 GLP5        0.0000 
     18 O          25.8540  157.6075  -18.6365 O.2       1 ALC1        0.0000 
     19 O          26.1940  158.6360  -19.3040 O.2       7 ALL1        0.0000 
     20 O          25.5140  156.5790  -17.9690 O.2       4 ALP1        0.0000 
     21 CA         30.3205  147.9495  -26.4850 C.3       3 GLC5        0.0000 
     22 CA         30.3120  147.0840  -24.4390 C.3       9 GLL5        0.0000 
     23 CA         30.3290  148.8150  -28.5310 C.3       6 GLP5        0.0000 
     24 CA         30.0890  145.9550  -22.7635 C.3       3 GLC5        0.0000 
     25 CA         29.8660  144.8260  -21.0880 C.3       6 GLP5        0.0000 
     26 CA         29.9270  147.9140  -22.7185 C.3       3 GLC5        0.0000 
     27 CA         29.5420  148.7440  -20.9980 C.3       6 GLP5        0.0000 
     28 CA         32.2890  147.2515  -24.0915 C.3       3 GLC5        0.0000 
     29 CA         34.2660  147.4190  -23.7440 C.3       6 GLP5        0.0000 
     30 CA         26.8450  153.2730  -23.3480 C.3       3 GLC5        0.0000 
     31 CA         27.9810  151.9070  -24.1400 C.3       9 GLL5        0.0000 
     32 CA         26.6670  150.9635  -23.1775 C.3       3 GLC5        0.0000 
     33 CA         25.3530  150.0200  -22.2150 C.3       6 GLP5        0.0000 
     34 CA         33.7740  153.2095  -28.3275 C.3       3 GLC5        0.0000 
     35 CA         33.8900  155.0860  -27.4880 C.3       9 GLL5        0.0000 
     36 CA         33.6580  151.3330  -29.1670 C.3       6 GLP5        0.0000 
     37 CA         33.5905  155.2025  -29.3115 C.3       3 GLC5        0.0000 
     38 CA         33.2910  155.3190  -31.1350 C.3       6 GLP5        0.0000 
     39 CA         32.6845  156.5785  -28.3395 C.3       3 GLC5        0.0000 
     40 CA         31.4790  158.0710  -29.1910 C.3       6 GLP5        0.0000 
     41 CA         35.2230  156.5615  -27.2440 C.3       3 GLC5        0.0000 
     42 CA         30.8950  149.6925  -26.7912 C.3       3 GLC5        0.0000 
     43 CA         31.4580  151.2690  -25.1140 C.3       9 GLL5        0.0000 
     44 CA         31.5995  150.8313  -23.3265 C.3       3 GLC5        0.0000 
     45 CA         31.4640  149.8710  -24.9890 C.3       9 GLL5        0.0000 
     46 CA         32.3050  152.1370  -21.8550 C.3       6 GLP5        0.0000 
     47 CA         30.0315  149.1643  -26.4975 C.3       3 GLC5        0.0000 
     48 CA         30.3240  149.1800  -24.6070 C.3       9 GLL5        0.0000 
     49 CA         27.7767  149.5640  -23.2698 C.3       3 GLC5        0.0000 
     50 CA         29.0990  151.2330  -24.4240 C.3       9 GLL5        0.0000 
     51 CA         26.4320  148.5880  -22.1670 C.3       6 GLP5        0.0000 
     52 CA         29.4793  149.5586  -22.7210 C.3       3 GLC5        0.0000 
     53 CA         31.1455  151.7843  -23.2774 C.3       3 GLC5        0.0000 
     54 CA         31.7440  153.4967  -23.2625 C.3       3 GLC5        0.0000 
     55 CA         31.1000  154.2720  -25.1210 C.3       9 GLL5        0.0000 
     56 CA         30.5640  155.7293  -26.2975 C.3       3 GLC5        0.0000 
     57 CA         29.9450  156.6020  -27.9250 C.3       6 GLP5        0.0000 
     58 CA         31.3265  156.4622  -26.4618 C.3       3 GLC5        0.0000 
     59 CA         32.2730  156.3850  -24.4530 C.3       9 GLL5        0.0000 
     60 CA         35.3065  154.5247  -26.5857 C.3       3 GLC5        0.0000 
     61 CA         33.0440  155.2010  -26.4530 C.3       9 GLL5        0.0000 
     62 CA         37.1460  153.9060  -26.2010 C.3       6 GLP5        0.0000 
     63 CA         30.9460  153.2552  -28.2933 C.3       3 GLC5        0.0000 
     64 CA         32.0100  154.1600  -26.2690 C.3       9 GLL5        0.0000 
     65 CA         29.9490  152.8620  -29.8980 C.3       6 GLP5        0.0000 
     66 CA         32.8005  152.4907  -27.9278 C.3       3 GLC5        0.0000 
     67 CA         31.8760  153.1370  -27.1080 C.3       9 GLL5        0.0000 
     68 CA         27.9375  159.4048  -22.0808 C.3       3 GLC5        0.0000 
     69 CA         28.0540  158.4420  -20.7550 C.3       9 GLL5        0.0000 
     70 CA         28.5200  160.6220  -23.5490 C.3       6 GLP5        0.0000 
     71 CA         27.3271  150.9928  -25.5211 C.3       3 GLC5        0.0000 
     72 CA         26.1030  150.7620  -26.7860 C.3       6 GLP5        0.0000 
     73 CA         31.0732  155.2554  -27.3298 C.3       3 GLC5        0.0000 
@<TRIPOS>BOND
@<TRIPOS>SUBSTRUCTURE
     1 ALC1       18 GROUP        1 X    ALC  0     ROOT ALC X 1
     2 SEC2        7 GROUP        1 X    SEC  0     **** SEC X 2
     3 GLC5        1 GROUP        1 X    GLC  0     **** GLC X 6
     4 ALP1       20 GROUP        1 Y    ALP  0     ROOT ALP Y 8
     5 SEP2        9 GROUP        1 Y    SEP  0     **** SEP Y 9
     6 GLP5        3 GROUP        1 Y    GLP  0     **** GLP Y 13
     7 ALL1       19 GROUP        1 Z    ALL  0     ROOT ALL Z 15
     8 SEL2        8 GROUP        1 Z    SEL  0     **** SEL Z 16
     9 GLL5        2 GROUP        1 Z    GLL  0     **** GLL Z 20
@<TRIPOS>SET

