#    Name: 3vvh_4BM_3_ligand
#    Modification time : Tue Mar 25 01:40:53 2014

@<TRIPOS>MOLECULE
3vvh_4BM_3_ligand
   40    41     1     0     0
SMALL
NO_CHARGES


@<TRIPOS>ATOM
      1 C01        30.2880  151.9910  -24.8370 C.ar      1 4BM503      0.0000 
      2 C02        31.4580  151.2690  -25.1140 C.ar      1 4BM503      0.0000 
      3 C03        31.4640  149.8710  -24.9890 C.ar      1 4BM503      0.0000 
      4 C04        30.3240  149.1800  -24.6070 C.ar      1 4BM503      0.0000 
      5 C05        29.1440  149.8470  -24.3210 C.ar      1 4BM503      0.0000 
      6 C06        29.0990  151.2330  -24.4240 C.ar      1 4BM503      0.0000 
      7 N07        30.1350  153.3470  -24.9140 N.pl3     1 4BM503      0.0000 
      8 C08        31.1000  154.2720  -25.1210 C.ar      1 4BM503      0.0000 
      9 C09        31.2660  155.4410  -24.2190 C.ar      1 4BM503      0.0000 
     10 C10        32.2730  156.3850  -24.4530 C.ar      1 4BM503      0.0000 
     11 C11        33.1430  156.2600  -25.5440 C.ar      1 4BM503      0.0000 
     12 C12        33.0440  155.2010  -26.4530 C.ar      1 4BM503      0.0000 
     13 C13        32.0100  154.1600  -26.2690 C.ar      1 4BM503      0.0000 
     14 C14        30.3110  155.5770  -23.0720 C.2       1 4BM503      0.0000 
     15 N15        30.6790  156.1870  -21.9470 N.am      1 4BM503      0.0000 
     16 O16        29.1750  155.1290  -23.2460 O.2       1 4BM503      0.0000 
     17 O17        30.0600  157.3100  -21.5370 O.3       1 4BM503      0.0000 
     18 C18        29.0350  157.3020  -20.5290 C.3       1 4BM503      0.0000 
     19 C19        28.0540  158.4420  -20.7550 C.3       1 4BM503      0.0000 
     20 C20        26.6560  157.9330  -20.4700 C.3       1 4BM503      0.0000 
     21 O21        28.3130  159.5390  -19.8640 O.3       1 4BM503      0.0000 
     22 O22        26.1940  158.6360  -19.3040 O.3       1 4BM503      0.0000 
     23 I23        30.3120  147.0840  -24.4390 I         1 4BM503      0.0000 
     24 F24        27.9810  151.9070  -24.1400 F         1 4BM503      0.0000 
     25 F25        31.8760  153.1370  -27.1080 F         1 4BM503      0.0000 
     26 F26        33.8900  155.0860  -27.4880 F         1 4BM503      0.0000 
     27 H          32.3067  151.7604  -25.4070 H         1 4BM503      0.0000 
     28 H          32.3381  149.3535  -25.1870 H         1 4BM503      0.0000 
     29 H          28.3088  149.3248  -24.0353 H         1 4BM503      0.0000 
     30 H          29.1178  153.7202  -24.7944 H         1 4BM503      0.0000 
     31 H          32.3767  157.1872  -23.8108 H         1 4BM503      0.0000 
     32 H          33.8837  156.9756  -25.6815 H         1 4BM503      0.0000 
     33 H          31.4617  155.7920  -21.3673 H         1 4BM503      0.0000 
     34 H          29.4625  157.4164  -19.5230 H         1 4BM503      0.0000 
     35 H          28.4693  156.3598  -20.5413 H         1 4BM503      0.0000 
     36 H          28.0997  158.7447  -21.7795 H         1 4BM503      0.0000 
     37 H          26.7069  156.8645  -20.2989 H         1 4BM503      0.0000 
     38 H          26.0331  158.1363  -21.3326 H         1 4BM503      0.0000 
     39 H          27.5368  159.5491  -19.2336 H         1 4BM503      0.0000 
     40 H          26.3287  157.9972  -18.5465 H         1 4BM503      0.0000 
@<TRIPOS>BOND
     1    2    1 ar   
     2    6    1 ar   
     3    7    1 1    
     4    3    2 ar   
     5   27    2 1    
     6    4    3 ar   
     7   28    3 1    
     8    5    4 ar   
     9   23    4 1    
    10    6    5 ar   
    11   29    5 1    
    12   24    6 1    
    13    8    7 1    
    14   30    7 1    
    15    9    8 ar   
    16   13    8 ar   
    17   10    9 ar   
    18   14    9 1    
    19   11   10 ar   
    20   31   10 1    
    21   12   11 ar   
    22   32   11 1    
    23   13   12 ar   
    24   26   12 1    
    25   25   13 1    
    26   15   14 am   
    27   16   14 2    
    28   17   15 1    
    29   33   15 1    
    30   18   17 1    
    31   19   18 1    
    32   34   18 1    
    33   35   18 1    
    34   20   19 1    
    35   21   19 1    
    36   36   19 1    
    37   22   20 1    
    38   37   20 1    
    39   38   20 1    
    40   39   21 1    
    41   40   22 1    
@<TRIPOS>SUBSTRUCTURE
     1 4BM503      1 GROUP   
@<TRIPOS>SET

