#    Name: 2zjn_F1N_1_INTS_M
#    Modification time : Tue Mar 25 10:47:31 2014

@<TRIPOS>MOLECULE
2zjn_F1N_1_INTS_M
   85     0    12     0     0
SMALL
NO_CHARGES


@<TRIPOS>ATOM
      1 CA         79.1655   39.4010   25.7370 C.3       4 GLC5        0.0000 
      2 CA         79.1750   38.6610   23.6860 C.3      12 GLL5        0.0000 
      3 CA         79.1560   40.1410   27.7880 C.3       8 GLP5        0.0000 
      4 CA         75.9350   31.7270   21.1210 C.3       4 GLC5        0.0000 
      5 CA         76.4810   33.3230   19.6710 C.3      12 GLL5        0.0000 
      6 CA         75.3890   30.1310   22.5710 C.3       8 GLP5        0.0000 
      7 CA         68.6190   29.7610   17.3910 C.3       4 GLC5        0.0000 
      8 CA         69.2520   31.5450   17.2480 C.3      12 GLL5        0.0000 
      9 CA         67.9860   27.9770   17.5340 C.3       8 GLP5        0.0000 
     10 CA         73.8370   30.8385   21.3625 C.3       4 GLC5        0.0000 
     11 CA         72.2850   31.5460   20.1540 C.3      12 GLL5        0.0000 
     12 CA         72.5545   29.8395   19.4675 C.3       4 GLC5        0.0000 
     13 CA         72.8240   28.1330   18.7810 C.3       8 GLP5        0.0000 
     14 CA         71.2080   30.9910   21.3240 C.3       4 GLC5        0.0000 
     15 CA         70.1310   30.4360   22.4940 C.3       8 GLP5        0.0000 
     16 CA         79.3750   38.3170   26.5755 C.3       4 GLC5        0.0000 
     17 CA         79.5940   36.4930   25.3630 C.3      12 GLL5        0.0000 
     18 CA         81.4990   36.5630   25.1420 C.3       4 GLC5        0.0000 
     19 CA         83.4040   36.6330   24.9210 C.3       8 GLP5        0.0000 
     20 CA         79.7060   34.6430   24.7090 C.3       4 GLC5        0.0000 
     21 CA         79.8180   32.7930   24.0550 C.3       8 GLP5        0.0000 
     22 CA         77.8930   36.0500   25.0905 C.3       4 GLC5        0.0000 
     23 CA         76.1920   35.6070   24.8180 C.3       8 GLP5        0.0000 
     24 CA         79.2755   42.6150   24.7960 C.3       4 GLC5        0.0000 
     25 CA         79.5350   41.5270   23.1920 C.3      12 GLL5        0.0000 
     26 CA         79.0160   43.7030   26.4000 C.3       8 GLP5        0.0000 
     27 CA         80.1995   43.1080   22.5485 C.3       4 GLC5        0.0000 
     28 CA         80.8640   44.6890   21.9050 C.3       8 GLP5        0.0000 
     29 CA         81.6010   41.6835   22.4510 C.3       4 GLC5        0.0000 
     30 CA         83.6670   41.8400   21.7100 C.3       8 GLP5        0.0000 
     31 CA         79.4710   38.2005   16.3405 C.3       4 GLC5        0.0000 
     32 CA         79.2430   39.6660   17.8420 C.3      12 GLL5        0.0000 
     33 CA         79.6990   36.7350   14.8390 C.3       8 GLP5        0.0000 
     34 CA         81.1500   39.0530   17.1910 C.3       4 GLC5        0.0000 
     35 CA         83.0570   38.4400   16.5400 C.3       8 GLP5        0.0000 
     36 CA         82.0060   38.8190   21.3620 C.3       4 GLC5        0.0000 
     37 CA         80.9650   39.3460   19.6350 C.3      12 GLL5        0.0000 
     38 CA         83.0470   38.2920   23.0890 C.3       8 GLP5        0.0000 
     39 CA         82.1280   38.4140   18.5800 C.3       4 GLC5        0.0000 
     40 CA         83.2910   37.4820   17.5250 C.3       8 GLP5        0.0000 
     41 CA         82.5975   40.2000   20.1855 C.3       4 GLC5        0.0000 
     42 CA         84.2300   41.0540   20.7360 C.3       8 GLP5        0.0000 
     43 CA         79.4810   34.6420   23.3470 C.3       4 GLC5        0.0000 
     44 CA         79.1440   36.4910   22.6390 C.3      12 GLL5        0.0000 
     45 OD1        78.1930   34.2145   21.1295 O.co2     3 ASC3        0.0000 
     46 OD1        77.5710   35.3570   20.3290 O.co2    11 ASL3        0.0000 
     47 OD1        78.8150   33.0720   21.9300 O.co2     7 ASP3        0.0000 
     48 O          78.1930   34.2145   21.1295 O.2       1 ALC1        0.0000 
     49 O          77.5710   35.3570   20.3290 O.2       9 ALL1        0.0000 
     50 O          78.8150   33.0720   21.9300 O.2       5 ALP1        0.0000 
     51 CA         75.7040   35.4070   22.7675 C.3       4 GLC5        0.0000 
     52 CA         75.2160   35.2070   20.7170 C.3      12 GLL5        0.0000 
     53 O          73.5545   33.2040   21.5755 O.2       1 ALC1        0.0000 
     54 O          74.1220   33.0780   20.2650 O.2       9 ALL1        0.0000 
     55 O          72.9870   33.3300   22.8860 O.2       5 ALP1        0.0000 
     56 N          65.1470   35.8995   17.7950 N.am      2 SEC2        0.0000 
     57 N          66.3670   35.7630   18.4160 N.am     10 SEL2        0.0000 
     58 N          63.9270   36.0360   17.1740 N.am      6 SEP2        0.0000 
     59 N          66.2655   35.4885   16.9840 N.am      2 SEC2        0.0000 
     60 N          66.1640   35.2140   15.5520 N.am      6 SEP2        0.0000 
     61 O          67.1960   36.0925   16.4280 O.2       1 ALC1        0.0000 
     62 O          68.2280   36.9710   17.3040 O.2       9 ALL1        0.0000 
     63 O          66.1640   35.2140   15.5520 O.2       5 ALP1        0.0000 
     64 CA         81.0497   38.6280   23.0780 C.3       4 GLC5        0.0000 
     65 CA         78.9300   39.2670   22.4480 C.3      12 GLL5        0.0000 
     66 CA         81.1300   37.5875   23.1490 C.3       4 GLC5        0.0000 
     67 CA         79.2820   37.2750   23.7790 C.3      12 GLL5        0.0000 
     68 CA         78.0925   32.1593   19.6440 C.3       4 GLC5        0.0000 
     69 CA         77.5810   34.3200   19.2990 C.3      12 GLL5        0.0000 
     70 CA         79.1540   30.4970   19.8030 C.3       8 GLP5        0.0000 
     71 CA         77.8310   34.1277   17.7250 C.3       4 GLC5        0.0000 
     72 CA         78.6310   34.4340   15.9650 C.3       8 GLP5        0.0000 
     73 CA         67.4878   31.9962   18.3330 C.3       4 GLC5        0.0000 
     74 CA         69.3710   32.7140   18.1920 C.3      12 GLL5        0.0000 
     75 CA         65.6640   31.8630   18.9460 C.3       8 GLP5        0.0000 
     76 CA         67.1375   33.1232   18.6883 C.3       4 GLC5        0.0000 
     77 CA         68.5660   33.8360   18.0000 C.3      12 GLL5        0.0000 
     78 CA         70.2275   31.8310   21.0855 C.3       4 GLC5        0.0000 
     79 CA         70.3700   33.7730   20.1100 C.3      12 GLL5        0.0000 
     80 CA         68.3179   33.7792   20.9695 C.3       4 GLC5        0.0000 
     81 CA         66.8950   33.2150   22.1890 C.3       8 GLP5        0.0000 
     82 CA         80.4264   35.4645   21.2443 C.3       4 GLC5        0.0000 
     83 CA         78.9000   37.0910   21.4050 C.3      12 GLL5        0.0000 
     84 CA         81.8700   34.3570   20.7730 C.3       8 GLP5        0.0000 
     85 CA         77.6891   36.4183   24.0019 C.3       4 GLC5        0.0000 
@<TRIPOS>BOND
@<TRIPOS>SUBSTRUCTURE
     1 ALC1       48 GROUP        1 X    ALC  0     ROOT ALC X 1
     2 SEC2       56 GROUP        1 X    SEC  0     **** SEC X 2
     3 ASC3       45 GROUP        1 X    ASC  0     **** ASC X 3
     4 GLC5        1 GROUP        1 X    GLC  0     **** GLC X 6
     5 ALP1       50 GROUP        1 Y    ALP  0     ROOT ALP Y 8
     6 SEP2       58 GROUP        1 Y    SEP  0     **** SEP Y 9
     7 ASP3       47 GROUP        1 Y    ASP  0     **** ASP Y 10
     8 GLP5        3 GROUP        1 Y    GLP  0     **** GLP Y 13
     9 ALL1       49 GROUP        1 Z    ALL  0     ROOT ALL Z 15
    10 SEL2       57 GROUP        1 Z    SEL  0     **** SEL Z 16
    11 ASL3       46 GROUP        1 Z    ASL  0     **** ASL Z 17
    12 GLL5        2 GROUP        1 Z    GLL  0     **** GLL Z 20
@<TRIPOS>SET

