#    Name: 2zjn_F1N_1_ligand
#    Modification time : Tue Mar 25 10:47:31 2014

@<TRIPOS>MOLECULE
2zjn_F1N_1_ligand
   71    73     1     0     0
SMALL
NO_CHARGES


@<TRIPOS>ATOM
      1 C31        79.5380   39.7980   19.3320 C.3       1 F1N449      0.0000 
      2 C28        78.9300   39.2670   22.4480 C.ar      1 F1N449      0.0000 
      3 C27        79.1750   38.6610   23.6860 C.ar      1 F1N449      0.0000 
      4 C26        79.2820   37.2750   23.7790 C.ar      1 F1N449      0.0000 
      5 C24        78.9000   37.0910   21.4050 C.ar      1 F1N449      0.0000 
      6 C23        78.7430   36.2150   20.1790 C.3       1 F1N449      0.0000 
      7 C22        76.4810   33.3230   19.6710 C.3       1 F1N449      0.0000 
      8 C17        75.1190   34.0090   19.7760 C.3       1 F1N449      0.0000 
      9 C12        69.2520   31.5450   17.2480 C.3       1 F1N449      0.0000 
     10 C11        69.3710   32.7140   18.1920 C.ar      1 F1N449      0.0000 
     11 C10        68.5660   33.8360   18.0000 C.ar      1 F1N449      0.0000 
     12 C9         68.6560   34.9310   18.8610 C.ar      1 F1N449      0.0000 
     13 C8         69.5670   34.8970   19.9190 C.ar      1 F1N449      0.0000 
     14 C7         70.3700   33.7730   20.1100 C.ar      1 F1N449      0.0000 
     15 C6         70.2780   32.6790   19.2440 C.ar      1 F1N449      0.0000 
     16 C3         72.2850   31.5460   20.1540 C.3       1 F1N449      0.0000 
     17 C2         73.3770   32.3200   19.4610 C.2       1 F1N449      0.0000 
     18 CL36       79.5940   36.4930   25.3630 Cl        1 F1N449      0.0000 
     19 O34        78.8180   40.6340   22.3390 O.3       1 F1N449      0.0000 
     20 C35        79.5350   41.5270   23.1920 C.3       1 F1N449      0.0000 
     21 C29        78.7960   38.4800   21.3080 C.ar      1 F1N449      0.0000 
     22 O30        78.5510   39.0700   20.0840 O.3       1 F1N449      0.0000 
     23 C33        79.2430   39.6660   17.8420 C.3       1 F1N449      0.0000 
     24 C32        80.9650   39.3460   19.6350 C.3       1 F1N449      0.0000 
     25 C25        79.1440   36.4910   22.6390 C.ar      1 F1N449      0.0000 
     26 N20        77.5710   35.3570   20.3290 N.4       1 F1N449      0.0000 
     27 C21        77.5810   34.3200   19.2990 C.3       1 F1N449      0.0000 
     28 C19        76.3370   36.1430   20.2640 C.3       1 F1N449      0.0000 
     29 C18        75.2160   35.2070   20.7170 C.3       1 F1N449      0.0000 
     30 N4         74.1220   33.0780   20.2650 N.am      1 F1N449      0.0000 
     31 O1         73.5370   32.2260   18.2520 O.2       1 F1N449      0.0000 
     32 O5         71.0620   31.5610   19.4110 O.3       1 F1N449      0.0000 
     33 S13        67.7170   36.2060   18.6140 S.o2      1 F1N449      0.0000 
     34 O15        66.3670   35.7630   18.4160 O.2       1 F1N449      0.0000 
     35 O16        67.7590   37.1120   19.7350 O.2       1 F1N449      0.0000 
     36 N14        68.2280   36.9710   17.3040 N.pl3     1 F1N449      0.0000 
     37 H          79.4750   40.8703   19.5717 H         1 F1N449      0.0000 
     38 H          79.2758   39.2429   24.5271 H         1 F1N449      0.0000 
     39 H          79.6503   35.6155   20.0605 H         1 F1N449      0.0000 
     40 H          78.6425   36.8594   19.3008 H         1 F1N449      0.0000 
     41 H          76.4327   32.5430   18.9100 H         1 F1N449      0.0000 
     42 H          76.7254   32.8612   20.6285 H         1 F1N449      0.0000 
     43 H          74.8507   34.3750   18.7946 H         1 F1N449      0.0000 
     44 H          67.8978   33.8579   17.2151 H         1 F1N449      0.0000 
     45 H          69.6447   35.6988   20.5547 H         1 F1N449      0.0000 
     46 H          71.0367   33.7468   20.8947 H         1 F1N449      0.0000 
     47 H          72.1438   31.9803   21.1628 H         1 F1N449      0.0000 
     48 H          72.6442   30.5102   20.3094 H         1 F1N449      0.0000 
     49 H          79.2218   35.4680   22.7049 H         1 F1N449      0.0000 
     50 H          77.6224   34.8680   21.3129 H         1 F1N449      0.0000 
     51 H          77.3567   34.7306   18.3268 H         1 F1N449      0.0000 
     52 H          78.5245   33.7971   19.2780 H         1 F1N449      0.0000 
     53 H          76.1312   36.4644   19.2576 H         1 F1N449      0.0000 
     54 H          76.3743   36.9846   20.9339 H         1 F1N449      0.0000 
     55 H          75.4250   34.8583   21.7239 H         1 F1N449      0.0000 
     56 H          74.2739   35.7469   20.7113 H         1 F1N449      0.0000 
     57 H          74.0180   33.0338   21.3104 H         1 F1N449      0.0000 
     58 H          68.9030   37.6938   17.4518 H         1 F1N449      0.0000 
     59 H          67.8338   36.6687   16.4361 H         1 F1N449      0.0000 
     60 H          69.4606   31.8060   16.3055 H         1 F1N449      0.0000 
     61 H          69.8783   30.8048   17.4926 H         1 F1N449      0.0000 
     62 H          68.3291   31.1600   17.2481 H         1 F1N449      0.0000 
     63 H          80.5240   41.4026   23.1127 H         1 F1N449      0.0000 
     64 H          79.3416   42.4838   22.9747 H         1 F1N449      0.0000 
     65 H          79.2988   41.3915   24.1542 H         1 F1N449      0.0000 
     66 H          79.9121   40.1589   17.2858 H         1 F1N449      0.0000 
     67 H          79.2595   38.7118   17.5432 H         1 F1N449      0.0000 
     68 H          78.3418   40.0308   17.6081 H         1 F1N449      0.0000 
     69 H          81.6380   39.8583   19.1016 H         1 F1N449      0.0000 
     70 H          81.1977   39.4722   20.5993 H         1 F1N449      0.0000 
     71 H          81.1003   38.3777   19.4252 H         1 F1N449      0.0000 
@<TRIPOS>BOND
     1   22    1 1    
     2   23    1 1    
     3   24    1 1    
     4   37    1 1    
     5    3    2 ar   
     6   19    2 1    
     7   21    2 ar   
     8    4    3 ar   
     9   38    3 1    
    10   18    4 1    
    11   25    4 ar   
    12    6    5 1    
    13   21    5 ar   
    14   25    5 ar   
    15   26    6 1    
    16   39    6 1    
    17   40    6 1    
    18    8    7 1    
    19   27    7 1    
    20   41    7 1    
    21   42    7 1    
    22   29    8 1    
    23   30    8 1    
    24   43    8 1    
    25   10    9 1    
    26   60    9 1    
    27   61    9 1    
    28   62    9 1    
    29   11   10 ar   
    30   15   10 ar   
    31   12   11 ar   
    32   44   11 1    
    33   13   12 ar   
    34   33   12 1    
    35   14   13 ar   
    36   45   13 1    
    37   15   14 ar   
    38   46   14 1    
    39   32   15 1    
    40   17   16 1    
    41   32   16 1    
    42   47   16 1    
    43   48   16 1    
    44   30   17 am   
    45   31   17 2    
    46   20   19 1    
    47   63   20 1    
    48   64   20 1    
    49   65   20 1    
    50   22   21 1    
    51   66   23 1    
    52   67   23 1    
    53   68   23 1    
    54   69   24 1    
    55   70   24 1    
    56   71   24 1    
    57   49   25 1    
    58   27   26 1    
    59   28   26 1    
    60   50   26 1    
    61   51   27 1    
    62   52   27 1    
    63   29   28 1    
    64   53   28 1    
    65   54   28 1    
    66   55   29 1    
    67   56   29 1    
    68   57   30 1    
    69   34   33 2    
    70   35   33 2    
    71   36   33 1    
    72   58   36 1    
    73   59   36 1    
@<TRIPOS>SUBSTRUCTURE
     1 F1N449      1 GROUP   
@<TRIPOS>SET

