#    Name: 4e2z_JHZ_2_INTS_M
#    Modification time : Mon Apr  7 23:16:50 2014

@<TRIPOS>MOLECULE
4e2z_JHZ_2_INTS_M
   89     0    15     0     0
SMALL
NO_CHARGES


@<TRIPOS>ATOM
      1 CA         28.6220  -13.3195    1.6405 C.3       5 GLC5        0.0000 
      2 CA         30.0860  -14.3900    1.3640 C.3      15 GLL5        0.0000 
      3 CA         27.1580  -12.2490    1.9170 C.3      10 GLP5        0.0000 
      4 CA         28.8100  -13.9360    2.8740 C.3       5 GLC5        0.0000 
      5 CA         30.7230  -14.8850    2.6670 C.3      15 GLL5        0.0000 
      6 CA         26.8970  -12.9870    3.0810 C.3      10 GLP5        0.0000 
      7 OD1        32.2160  -16.2610    4.5175 O.co2     3 ASC3        0.0000 
      8 OD1        31.9050  -16.9260    3.3770 O.co2    13 ASL3        0.0000 
      9 OD1        32.5270  -15.5960    5.6580 O.co2     8 ASP3        0.0000 
     10 O          32.8710  -16.6355    2.2415 O.2       1 ALC1        0.0000 
     11 O          31.9050  -16.9260    3.3770 O.2      11 ALL1        0.0000 
     12 O          33.8370  -16.3450    1.1060 O.2       6 ALP1        0.0000 
     13 O          32.2160  -16.2610    4.5175 O.2       1 ALC1        0.0000 
     14 O          32.5270  -15.5960    5.6580 O.2       6 ALP1        0.0000 
     15 N          32.4325  -18.8000    0.9800 N.am      2 SEC2        0.0000 
     16 N          31.1510  -18.0270    0.9420 N.am     12 SEL2        0.0000 
     17 N          33.7140  -19.5730    1.0180 N.am      7 SEP2        0.0000 
     18 CA         27.8635  -15.2225    0.4500 C.3       5 GLC5        0.0000 
     19 CA         29.5000  -16.4930    0.3340 C.3      15 GLL5        0.0000 
     20 CA         26.2270  -13.9520    0.5660 C.3      10 GLP5        0.0000 
     21 CA         27.1070  -16.0365    0.9095 C.3       5 GLC5        0.0000 
     22 CA         28.2490  -17.3520    0.1320 C.3      15 GLL5        0.0000 
     23 CA         25.9650  -14.7210    1.6870 C.3      10 GLP5        0.0000 
     24 CA         28.2895  -19.1270    0.6070 C.3       5 GLC5        0.0000 
     25 CA         28.3300  -20.9020    1.0820 C.3      10 GLP5        0.0000 
     26 CA         27.7710  -18.1335   -1.7705 C.3       5 GLC5        0.0000 
     27 CA         27.2930  -18.9150   -3.6730 C.3      10 GLP5        0.0000 
     28 CA         28.4095   -6.4220   -4.0650 C.3       5 GLC5        0.0000 
     29 CA         26.5950   -7.2810   -3.3320 C.3      15 GLL5        0.0000 
     30 CA         30.2240   -5.5630   -4.7980 C.3      10 GLP5        0.0000 
     31 N          26.6400  -13.8225   -1.6885 N.am      2 SEC2        0.0000 
     32 N          27.3420  -13.2150   -2.6860 N.am     12 SEL2        0.0000 
     33 N          25.9380  -14.4300   -0.6910 N.am      7 SEP2        0.0000 
     34 N          26.8610  -13.1465   -4.0020 N.am      2 SEC2        0.0000 
     35 N          26.3800  -13.0780   -5.3180 N.am      7 SEP2        0.0000 
     36 N          25.1650   -4.2340   -3.3105 N.am      2 SEC2        0.0000 
     37 N          25.5810   -5.0120   -4.5460 N.am     12 SEL2        0.0000 
     38 N          24.7490   -3.4560   -2.0750 N.am      7 SEP2        0.0000 
     39 NZ         30.9510  -13.3395   -4.0855 N.4       4 LYC4        0.0000 
     40 NZ         29.5940  -12.8380   -3.8940 N.4      14 LYL4        0.0000 
     41 NZ         32.3080  -13.8410   -4.2770 N.4       9 LYP4        0.0000 
     42 N          29.4100  -13.7630   -4.9840 N.am      2 SEC2        0.0000 
     43 N          29.5940  -12.8380   -3.8940 N.am     12 SEL2        0.0000 
     44 N          29.2260  -14.6880   -6.0740 N.am      7 SEP2        0.0000 
     45 N          28.6410   -7.9875    0.7100 N.am      2 SEC2        0.0000 
     46 N          27.7860   -7.7620   -0.4510 N.am     12 SEL2        0.0000 
     47 N          29.4960   -8.2130    1.8710 N.am      7 SEP2        0.0000 
     48 O          28.0395   -6.5865   -0.9610 O.2       1 ALC1        0.0000 
     49 O          27.7860   -7.7620   -0.4510 O.2      11 ALL1        0.0000 
     50 O          28.2930   -5.4110   -1.4710 O.2       6 ALP1        0.0000 
     51 CA         27.9385  -15.5970    3.2460 C.3       5 GLC5        0.0000 
     52 CA         29.5610  -16.9350    3.5480 C.3      15 GLL5        0.0000 
     53 CA         26.3160  -14.2590    2.9440 C.3      10 GLP5        0.0000 
     54 NZ         32.2300  -13.4500   -2.9410 N.4       4 LYC4        0.0000 
     55 NZ         32.1520  -13.0590   -1.6050 N.4      14 LYL4        0.0000 
     56 N          32.2300  -13.4500   -2.9410 N.am      2 SEC2        0.0000 
     57 N          32.1520  -13.0590   -1.6050 N.am     12 SEL2        0.0000 
     58 N          32.3080  -13.8410   -4.2770 N.am      7 SEP2        0.0000 
     59 CA         29.2000   -7.2310   -3.6975 C.3       5 GLC5        0.0000 
     60 CA         28.1760   -8.8990   -2.5970 C.3      15 GLL5        0.0000 
     61 N          21.6675   -6.6555   -7.4920 N.am      2 SEC2        0.0000 
     62 N          22.8950   -7.2610   -7.3260 N.am     12 SEL2        0.0000 
     63 N          20.4400   -6.0500   -7.6580 N.am      7 SEP2        0.0000 
     64 N          32.0455  -11.0795    0.3320 N.am      2 SEC2        0.0000 
     65 N          30.8180  -11.6980    0.1150 N.am     12 SEL2        0.0000 
     66 N          33.2730  -10.4610    0.5490 N.am      7 SEP2        0.0000 
     67 CA         28.8620   -9.6225   -5.0995 C.3       5 GLC5        0.0000 
     68 CA         28.1020  -10.2830   -3.2390 C.3      15 GLL5        0.0000 
     69 CA         29.6220   -8.9620   -6.9600 C.3      10 GLP5        0.0000 
     70 CA         27.5680  -11.2705   -4.7240 C.3       5 GLC5        0.0000 
     71 CA         27.0340  -12.2580   -6.2090 C.3      10 GLP5        0.0000 
     72 CA         22.7590  -11.5280   -5.5780 C.3       5 GLC5        0.0000 
     73 CA         23.6820   -9.9080   -6.3590 C.3      15 GLL5        0.0000 
     74 CA         21.8360  -13.1480   -4.7970 C.3      10 GLP5        0.0000 
     75 CA         22.4090  -10.1460   -8.0820 C.3       5 GLC5        0.0000 
     76 CA         21.1360  -10.3840   -9.8050 C.3      10 GLP5        0.0000 
     77 CA         26.0985  -10.3900   -5.5315 C.3       5 GLC5        0.0000 
     78 CA         25.1630   -8.5220   -4.8540 C.3      15 GLL5        0.0000 
     79 CA         26.0270   -8.1200   -6.8765 C.3       5 GLC5        0.0000 
     80 CA         26.8910   -7.7180   -8.8990 C.3      10 GLP5        0.0000 
     81 CA         32.1352  -13.4253    2.0697 C.3       5 GLC5        0.0000 
     82 CA         33.8660  -12.2130    2.1240 C.3      10 GLP5        0.0000 
     83 CA         30.0040   -9.7005   -3.3545 C.3       5 GLC5        0.0000 
     84 CA         31.8690   -9.8100   -3.7910 C.3      10 GLP5        0.0000 
     85 CA         25.1168  -10.7342   -6.7275 C.3       5 GLC5        0.0000 
     86 CA         24.2070   -8.5870   -5.8670 C.3      15 GLL5        0.0000 
     87 CA         26.2890  -12.2210   -7.3420 C.3      10 GLP5        0.0000 
     88 CA         24.7248   -8.3622   -7.8140 C.3       5 GLC5        0.0000 
     89 CA         25.5050   -7.4770   -9.5150 C.3      10 GLP5        0.0000 
@<TRIPOS>BOND
@<TRIPOS>SUBSTRUCTURE
     1 ALC1       10 GROUP        1 X    ALC  0     ROOT ALC X 1
     2 SEC2       15 GROUP        1 X    SEC  0     **** SEC X 2
     3 ASC3        7 GROUP        1 X    ASC  0     **** ASC X 3
     4 LYC4       39 GROUP        1 X    LYC  0     **** LYC X 4
     5 GLC5        1 GROUP        1 X    GLC  0     **** GLC X 6
     6 ALP1       12 GROUP        1 Y    ALP  0     ROOT ALP Y 8
     7 SEP2       17 GROUP        1 Y    SEP  0     **** SEP Y 9
     8 ASP3        9 GROUP        1 Y    ASP  0     **** ASP Y 10
     9 LYP4       41 GROUP        1 Y    LYP  0     **** LYP Y 11
    10 GLP5        3 GROUP        1 Y    GLP  0     **** GLP Y 13
    11 ALL1       11 GROUP        1 Z    ALL  0     ROOT ALL Z 15
    12 SEL2       16 GROUP        1 Z    SEL  0     **** SEL Z 16
    13 ASL3        8 GROUP        1 Z    ASL  0     **** ASL Z 17
    14 LYL4       40 GROUP        1 Z    LYL  0     **** LYL Z 18
    15 GLL5        2 GROUP        1 Z    GLL  0     **** GLL Z 20
@<TRIPOS>SET

