#    Name: 4e2z_JHZ_2_ligand
#    Modification time : Mon Apr  7 23:16:50 2014

@<TRIPOS>MOLECULE
4e2z_JHZ_2_ligand
   61    63     1     0     0
SMALL
NO_CHARGES


@<TRIPOS>ATOM
      1 P          28.7790  -12.7010   -2.6480 P.3       1 JHZ504      0.0000 
      2 C1         30.0860  -14.3900    1.3640 C.3       1 JHZ504      0.0000 
      3 O1         31.0780  -14.2490    0.3380 O.3       1 JHZ504      0.0000 
      4 C2         30.7230  -14.8850    2.6670 C.3       1 JHZ504      0.0000 
      5 P2         31.0090  -12.9820   -0.6260 P.3       1 JHZ504      0.0000 
      6 C3         30.7150  -16.4240    2.6710 C.3       1 JHZ504      0.0000 
      7 N3         31.9050  -16.9260    3.3770 N.4       1 JHZ504      0.0000 
      8 C4         30.4970  -17.0550    1.3080 C.2       1 JHZ504      0.0000 
      9 O4         31.1510  -18.0270    0.9420 O.2       1 JHZ504      0.0000 
     10 C5         29.5000  -16.4930    0.3340 C.3       1 JHZ504      0.0000 
     11 O5         29.0510  -15.2720    0.9130 O.3       1 JHZ504      0.0000 
     12 C6         28.2490  -17.3520    0.1320 C.3       1 JHZ504      0.0000 
     13 C1X        26.5950   -7.2810   -3.3320 C.3       1 JHZ504      0.0000 
     14 N11        25.5960   -7.3220   -4.4080 N.am      1 JHZ504      0.0000 
     15 O1P        27.3420  -13.2150   -2.6860 O.co2     1 JHZ504      0.0000 
     16 C2X        26.0130   -7.9960   -2.1180 C.3       1 JHZ504      0.0000 
     17 C21        25.1870   -6.1430   -4.9020 C.2       1 JHZ504      0.0000 
     18 O21        25.5810   -5.0120   -4.5460 O.2       1 JHZ504      0.0000 
     19 O2P        29.5940  -12.8380   -3.8940 O.co2     1 JHZ504      0.0000 
     20 C3X        27.2120   -8.6490   -1.4460 C.3       1 JHZ504      0.0000 
     21 O3X        27.7860   -7.7620   -0.4510 O.3       1 JHZ504      0.0000 
     22 N31        24.2770   -6.1310   -5.9320 N.am      1 JHZ504      0.0000 
     23 C3M        29.5610  -16.9350    3.5480 C.3       1 JHZ504      0.0000 
     24 O3P        32.1520  -13.0590   -1.6050 O.co2     1 JHZ504      0.0000 
     25 C4X        28.1760   -8.8990   -2.5970 C.3       1 JHZ504      0.0000 
     26 O4X        27.7730   -8.0330   -3.6410 O.3       1 JHZ504      0.0000 
     27 C41        23.7290   -7.2800   -6.3820 C.2       1 JHZ504      0.0000 
     28 O41        22.8950   -7.2610   -7.3260 O.2       1 JHZ504      0.0000 
     29 O4P        30.8180  -11.6980    0.1150 O.co2     1 JHZ504      0.0000 
     30 C5X        28.1020  -10.2830   -3.2390 C.3       1 JHZ504      0.0000 
     31 O5X        28.7100  -11.1480   -2.2930 O.3       1 JHZ504      0.0000 
     32 C51        24.2070   -8.5870   -5.8670 C.2       1 JHZ504      0.0000 
     33 C5A        23.6820   -9.9080   -6.3590 C.3       1 JHZ504      0.0000 
     34 C61        25.1630   -8.5220   -4.8540 C.2       1 JHZ504      0.0000 
     35 OPP        29.6350  -13.2550   -1.4060 O.3       1 JHZ504      0.0000 
     36 H          29.6527  -13.4010    1.5826 H         1 JHZ504      0.0000 
     37 H          30.1511  -14.5242    3.5074 H         1 JHZ504      0.0000 
     38 H          31.7414  -14.5345    2.7260 H         1 JHZ504      0.0000 
     39 H          29.9629  -16.3118   -0.6053 H         1 JHZ504      0.0000 
     40 H          26.8228   -6.2893   -3.0421 H         1 JHZ504      0.0000 
     41 H          25.3251   -8.7435   -2.4362 H         1 JHZ504      0.0000 
     42 H          25.5716   -7.2857   -1.4594 H         1 JHZ504      0.0000 
     43 H          26.9076   -9.5815   -1.0484 H         1 JHZ504      0.0000 
     44 H          24.0139   -5.2189   -6.3636 H         1 JHZ504      0.0000 
     45 H          29.1705   -8.6938   -2.3033 H         1 JHZ504      0.0000 
     46 H          28.6399  -10.2478   -4.1711 H         1 JHZ504      0.0000 
     47 H          27.0646  -10.5184   -3.4061 H         1 JHZ504      0.0000 
     48 H          25.5292   -9.4041   -4.4560 H         1 JHZ504      0.0000 
     49 H          31.7318  -17.8074    3.8166 H         1 JHZ504      0.0000 
     50 H          32.6783  -17.0550    2.7561 H         1 JHZ504      0.0000 
     51 H          32.2057  -16.2956    4.0927 H         1 JHZ504      0.0000 
     52 H          28.4754  -18.2618   -0.2158 H         1 JHZ504      0.0000 
     53 H          27.7456  -17.4817    0.9863 H         1 JHZ504      0.0000 
     54 H          27.6155  -16.9377   -0.5215 H         1 JHZ504      0.0000 
     55 H          29.5266  -17.9341    3.5713 H         1 JHZ504      0.0000 
     56 H          29.6470  -16.6225    4.4940 H         1 JHZ504      0.0000 
     57 H          28.6729  -16.6188    3.2144 H         1 JHZ504      0.0000 
     58 H          23.8343  -10.0260   -7.3403 H         1 JHZ504      0.0000 
     59 H          24.1243  -10.6780   -5.8991 H         1 JHZ504      0.0000 
     60 H          22.6985   -9.9985   -6.2021 H         1 JHZ504      0.0000 
     61 H          28.3635   -7.1311   -0.9692 H         1 JHZ504      0.0000 
@<TRIPOS>BOND
     1   15    1 ar   
     2   19    1 ar   
     3   31    1 1    
     4   35    1 1    
     5    3    2 1    
     6    4    2 1    
     7   11    2 1    
     8   36    2 1    
     9    5    3 1    
    10    6    4 1    
    11   37    4 1    
    12   38    4 1    
    13   24    5 ar   
    14   29    5 ar   
    15   35    5 1    
    16    7    6 1    
    17    8    6 1    
    18   23    6 1    
    19   49    7 1    
    20   50    7 1    
    21   51    7 1    
    22    9    8 2    
    23   10    8 1    
    24   11   10 1    
    25   12   10 1    
    26   39   10 1    
    27   52   12 1    
    28   53   12 1    
    29   54   12 1    
    30   14   13 1    
    31   16   13 1    
    32   26   13 1    
    33   40   13 1    
    34   17   14 1    
    35   34   14 1    
    36   20   16 1    
    37   41   16 1    
    38   42   16 1    
    39   18   17 2    
    40   22   17 1    
    41   21   20 1    
    42   25   20 1    
    43   43   20 1    
    44   61   21 1    
    45   27   22 1    
    46   44   22 1    
    47   55   23 1    
    48   56   23 1    
    49   57   23 1    
    50   26   25 1    
    51   30   25 1    
    52   45   25 1    
    53   28   27 2    
    54   32   27 1    
    55   31   30 1    
    56   46   30 1    
    57   47   30 1    
    58   33   32 1    
    59   34   32 2    
    60   58   33 1    
    61   59   33 1    
    62   60   33 1    
    63   48   34 1    
@<TRIPOS>SUBSTRUCTURE
     1 JHZ504      1 GROUP   
@<TRIPOS>SET

