#    Name: 2PK3_4_CAVITY_N1_6.mol2
#    Modification time : Tue Mar 11 05:29:37 2014

@<TRIPOS>MOLECULE
2PK3_4_CAVITY_N1_6.mol2
  109     0     7     0     0
SMALL
NO_CHARGES


@<TRIPOS>ATOM
      1 CA         48.2998   25.7070   -2.6517 C.3       6 GLY6        0.0000 
      2 O          47.9942   25.5506   -4.1119 O.2       2 ALA2        0.0000 
      3 N          46.7329   26.3425   -3.9328 N.2       2 ALA2        0.0000 
      4 N          48.9499   24.6023   -5.7512 N.2       2 ALA2        0.0000 
      5 CA         47.6886   25.3942   -5.5721 C.3       6 GLY6        0.0000 
      6 N          46.4274   26.1861   -5.3930 N.2       2 ALA2        0.0000 
      7 CZ         48.6443   24.4459   -7.2114 C.ar      5 PHE5        0.0000 
      8 O          47.3830   25.2378   -7.0323 O.2       2 ALA2        0.0000 
      9 CA         46.1218   26.0297   -6.8531 C.3       6 GLY6        0.0000 
     10 CZ         47.0775   25.0814   -8.4925 C.ar      5 PHE5        0.0000 
     11 NZ         48.3623   22.5429   -0.7850 N.2       4 LYS4        0.0000 
     12 CA         49.3180   21.5946   -2.4243 C.3       6 GLY6        0.0000 
     13 NZ         48.0567   22.3865   -2.2452 N.2       4 LYS4        0.0000 
     14 NZ         46.7954   23.1784   -2.0660 N.2       4 LYS4        0.0000 
     15 CA         49.0124   21.4382   -3.8845 C.3       6 GLY6        0.0000 
     16 CA         47.7511   22.2301   -3.7053 C.3       6 GLY6        0.0000 
     17 O          46.4898   23.0220   -3.5262 O.2       2 ALA2        0.0000 
     18 CA         47.4455   22.0737   -5.1655 C.3       6 GLY6        0.0000 
     19 O          46.1843   22.8656   -4.9864 O.2       2 ALA2        0.0000 
     20 CA         45.8787   22.7092   -6.4466 C.3       6 GLY6        0.0000 
     21 O          44.6174   23.5011   -6.2674 O.2       2 ALA2        0.0000 
     22 N          48.8089   23.6508   -2.5380 N.2       2 ALA2        0.0000 
     23 NZ         47.5476   24.4427   -2.3589 N.2       4 LYS4        0.0000 
     24 CA         49.7646   22.7025   -4.1773 C.3       6 GLY6        0.0000 
     25 N          48.5033   23.4944   -3.9982 N.2       2 ALA2        0.0000 
     26 O          47.2420   24.2863   -3.8191 O.2       2 ALA2        0.0000 
     27 OD1        45.9808   25.0782   -3.6399 O.3       3 ASP3        0.0000 
     28 CA         48.1977   23.3380   -5.4584 C.3       6 GLY6        0.0000 
     29 O          46.9364   24.1299   -5.2792 O.2       2 ALA2        0.0000 
     30 O          45.6752   24.9218   -5.1001 O.2       2 ALA2        0.0000 
     31 CA         46.6309   23.9735   -6.7394 C.3       6 GLY6        0.0000 
     32 N          45.3696   24.7654   -6.5603 N.2       2 ALA2        0.0000 
     33 NZ         46.3253   23.8171   -8.1996 N.2       4 LYS4        0.0000 
     34 N          45.0640   24.6090   -8.0205 N.2       2 ALA2        0.0000 
     35 N          43.0970   13.6929    1.2650 N.2       2 ALA2        0.0000 
     36 OG         41.8357   14.4847    1.4441 O.2       1 SER1        0.0000 
     37 OG         40.5744   15.2766    1.6232 O.2       1 SER1        0.0000 
     38 N          42.7914   13.5364   -0.1952 N.2       2 ALA2        0.0000 
     39 O          41.5301   14.3283   -0.0161 O.2       2 ALA2        0.0000 
     40 OG         40.2688   15.1202    0.1630 O.2       1 SER1        0.0000 
     41 N          39.9632   14.9638   -1.2971 N.2       2 ALA2        0.0000 
     42 N          39.6576   14.8074   -2.7573 N.2       2 ALA2        0.0000 
     43 CA         38.3964   15.5993   -2.5782 C.3       6 GLY6        0.0000 
     44 O          39.3521   14.6510   -4.2175 O.2       2 ALA2        0.0000 
     45 N          41.0835   13.2204    1.7369 N.2       2 ALA2        0.0000 
     46 OG         39.8222   14.0123    1.9161 O.2       1 SER1        0.0000 
     47 O          40.7779   13.0640    0.2768 O.2       2 ALA2        0.0000 
     48 OG         39.5166   13.8559    0.4559 O.2       1 SER1        0.0000 
     49 CA         37.9498   14.4914   -0.8252 C.3       6 GLY6        0.0000 
     50 OG         38.7644   12.5916    0.7487 O.2       1 SER1        0.0000 
     51 O          46.3488   22.0705   -0.3130 O.2       2 ALA2        0.0000 
     52 CA         48.5658   20.3303   -2.1314 C.3       6 GLY6        0.0000 
     53 O          47.3045   21.1222   -1.9523 O.2       2 ALA2        0.0000 
     54 O          46.0432   21.9141   -1.7732 O.2       2 ALA2        0.0000 
     55 CA         48.2602   20.1739   -3.5916 C.3       6 GLY6        0.0000 
     56 CA         46.9989   20.9658   -3.4125 C.3       6 GLY6        0.0000 
     57 O          45.7377   21.7577   -3.2334 O.2       2 ALA2        0.0000 
     58 O          45.4321   21.6013   -4.6935 O.2       2 ALA2        0.0000 
     59 O          45.5966   20.8062   -0.0201 O.2       2 ALA2        0.0000 
     60 N          46.5523   19.8579   -1.6595 N.2       2 ALA2        0.0000 
     61 O          45.2911   20.6498   -1.4803 O.2       2 ALA2        0.0000 
     62 CA         47.5080   18.9096   -3.2988 C.3       6 GLY6        0.0000 
     63 N          46.2467   19.7015   -3.1197 N.2       2 ALA2        0.0000 
     64 O          44.9855   20.4934   -2.9405 O.2       2 ALA2        0.0000 
     65 O          43.7242   21.2853   -2.7614 O.2       2 ALA2        0.0000 
     66 CA         45.9411   19.5451   -4.5798 C.3       6 GLY6        0.0000 
     67 O          44.6799   20.3370   -4.4007 O.2       2 ALA2        0.0000 
     68 O          43.4186   21.1289   -4.2216 O.2       2 ALA2        0.0000 
     69 O          44.8445   19.5419    0.2727 O.2       2 ALA2        0.0000 
     70 CA         43.5832   20.3338    0.4518 C.3       6 GLY6        0.0000 
     71 N          44.5389   19.3855   -1.1875 N.2       2 ALA2        0.0000 
     72 CA         43.2776   20.1774   -1.0083 C.3       6 GLY6        0.0000 
     73 N          44.2333   19.2291   -2.6477 N.2       2 ALA2        0.0000 
     74 CZ         42.9720   20.0210   -2.4685 C.ar      5 PHE5        0.0000 
     75 O          41.7107   20.8129   -2.2894 O.2       2 ALA2        0.0000 
     76 O          45.1890   18.2808   -4.2870 O.2       2 ALA2        0.0000 
     77 CZ         43.9277   19.0727   -4.1079 C.ar      5 PHE5        0.0000 
     78 CZ         42.6664   19.8646   -3.9287 C.ar      5 PHE5        0.0000 
     79 N          44.0923   18.2776    0.5656 N.2       2 ALA2        0.0000 
     80 N          43.7867   18.1212   -0.8946 N.2       2 ALA2        0.0000 
     81 CA         42.5254   18.9131   -0.7155 C.3       6 GLY6        0.0000 
     82 N          43.4811   17.9648   -2.3548 N.2       2 ALA2        0.0000 
     83 CZ         42.2198   18.7567   -2.1757 C.ar      5 PHE5        0.0000 
     84 CZ         40.9585   19.5486   -1.9965 C.ar      5 PHE5        0.0000 
     85 N          45.6980   16.2246   -4.1733 N.2       2 ALA2        0.0000 
     86 N          44.4368   17.0165   -3.9941 N.2       2 ALA2        0.0000 
     87 CZ         43.1755   17.8084   -3.8150 C.ar      5 PHE5        0.0000 
     88 CA         44.1312   16.8601   -5.4543 C.3       6 GLY6        0.0000 
     89 O          43.3401   17.0133    0.8584 O.2       2 ALA2        0.0000 
     90 CA         42.0788   17.8052    1.0375 C.3       6 GLY6        0.0000 
     91 N          43.0345   16.8569   -0.6018 N.2       2 ALA2        0.0000 
     92 CA         41.7732   17.6488   -0.4226 C.3       6 GLY6        0.0000 
     93 CA         40.5119   18.4407   -0.2435 C.3       6 GLY6        0.0000 
     94 N          43.9902   15.9086   -2.2411 N.2       2 ALA2        0.0000 
     95 N          42.7289   16.7005   -2.0620 N.2       2 ALA2        0.0000 
     96 CZ         41.4676   17.4924   -1.8828 C.ar      5 PHE5        0.0000 
     97 N          44.9459   14.9603   -3.8804 N.2       2 ALA2        0.0000 
     98 N          43.6846   15.7522   -3.7013 N.2       2 ALA2        0.0000 
     99 CZ         42.4233   16.5441   -3.5222 C.ar      5 PHE5        0.0000 
    100 O          43.8492   14.9572    0.9721 O.2       2 ALA2        0.0000 
    101 OG         42.5879   15.7490    1.1513 O.2       1 SER1        0.0000 
    102 CA         43.5436   14.8007   -0.4881 C.3       6 GLY6        0.0000 
    103 DU         42.2823   15.5926   -0.3089 H         7 CUB7        0.0000 
    104 N          41.0210   16.3845   -0.1298 N.2       2 ALA2        0.0000 
    105 O          43.2380   14.6443   -1.9483 O.2       2 ALA2        0.0000 
    106 O          41.9767   15.4362   -1.7691 O.2       2 ALA2        0.0000 
    107 N          40.7154   16.2281   -1.5900 N.2       2 ALA2        0.0000 
    108 O          41.6711   15.2798   -3.2293 O.2       2 ALA2        0.0000 
    109 CZ         40.4098   16.0717   -3.0502 C.ar      5 PHE5        0.0000 
@<TRIPOS>BOND
@<TRIPOS>SUBSTRUCTURE
     1 SER1       36 GROUP   
     2 ALA2        2 GROUP   
     3 ASP3       27 GROUP   
     4 LYS4       11 GROUP   
     5 PHE5        7 GROUP   
     6 GLY6        1 GROUP   
     7 CUB7      103 GROUP   
@<TRIPOS>SET

