#    Name: 2pk3_GDD_4_INTS_M
#    Modification time : Mon Mar 24 19:05:07 2014

@<TRIPOS>MOLECULE
2pk3_GDD_4_INTS_M
   78     0    12     0     0
SMALL
NO_CHARGES


@<TRIPOS>ATOM
      1 O          43.5405   22.7625   -8.2625 O.2       1 ALC1        0.0000 
      2 O          43.8490   22.5610   -6.7570 O.2       9 ALL1        0.0000 
      3 O          43.2320   22.9640   -9.7680 O.2       5 ALP1        0.0000 
      4 O          44.2665   23.4420   -8.8805 O.2       1 ALC1        0.0000 
      5 O          45.3010   23.9200   -7.9930 O.2       9 ALL1        0.0000 
      6 CA         48.2005   26.4545   -6.9140 C.3       4 GLC5        0.0000 
      7 CA         47.3640   24.5570   -7.1100 C.3      12 GLL5        0.0000 
      8 CA         49.0370   28.3520   -6.7180 C.3       8 GLP5        0.0000 
      9 N          48.8770   26.4355   -7.5065 N.am      2 SEC2        0.0000 
     10 N          48.5750   25.1110   -6.9700 N.am     10 SEL2        0.0000 
     11 N          49.1790   27.7600   -8.0430 N.am      6 SEP2        0.0000 
     12 CA         48.4330   22.2255   -5.6680 C.3       4 GLC5        0.0000 
     13 CA         48.2800   23.3940   -3.8440 C.3      12 GLL5        0.0000 
     14 CA         48.5860   21.0570   -7.4920 C.3       8 GLP5        0.0000 
     15 CA         50.0350   22.3460   -3.6815 C.3       4 GLC5        0.0000 
     16 CA         51.7900   21.2980   -3.5190 C.3       8 GLP5        0.0000 
     17 O          47.8260   25.6545   -0.9865 O.2       1 ALC1        0.0000 
     18 O          47.1210   24.9590   -2.2690 O.2       9 ALL1        0.0000 
     19 O          48.5310   26.3500    0.2960 O.2       5 ALP1        0.0000 
     20 O          46.9815   24.9695   -1.0745 O.2       1 ALC1        0.0000 
     21 O          46.8420   24.9800    0.1200 O.2       5 ALP1        0.0000 
     22 CA         49.6525   20.6290   -3.2095 C.3       4 GLC5        0.0000 
     23 CA         47.9730   21.4190   -2.6950 C.3      12 GLL5        0.0000 
     24 CA         51.3320   19.8390   -3.7240 C.3       8 GLP5        0.0000 
     25 N          44.9870   19.3215   -6.1355 N.am      2 SEC2        0.0000 
     26 N          44.8540   19.1270   -4.8160 N.am     10 SEL2        0.0000 
     27 N          45.1200   19.5160   -7.4550 N.am      6 SEP2        0.0000 
     28 NZ         43.4090   22.4445   -3.9150 N.4       3 LYC4        0.0000 
     29 NZ         43.3180   21.0690   -4.1060 N.4      11 LYL4        0.0000 
     30 NZ         43.5910   24.3900   -2.5310 N.4       7 LYP4        0.0000 
     31 N          43.4090   22.4445   -3.9150 N.am      2 SEC2        0.0000 
     32 N          43.3180   21.0690   -4.1060 N.am     10 SEL2        0.0000 
     33 N          43.5000   23.8200   -3.7240 N.am      6 SEP2        0.0000 
     34 N          45.8550   17.8265   -0.9030 N.am      2 SEC2        0.0000 
     35 N          45.2720   19.0580   -0.2200 N.am     10 SEL2        0.0000 
     36 N          46.4380   16.5950   -1.5860 N.am      6 SEP2        0.0000 
     37 N          46.6185   19.4290    0.5545 N.am      2 SEC2        0.0000 
     38 N          47.9650   19.8000    1.3290 N.am      6 SEP2        0.0000 
     39 N          43.5305   22.2270   -1.0400 N.am      2 SEC2        0.0000 
     40 N          43.4470   20.8220   -0.6370 N.am     10 SEL2        0.0000 
     41 N          43.6140   23.6320   -1.4430 N.am      6 SEP2        0.0000 
     42 CA         41.8635   17.6120   -3.0600 C.3       4 GLC5        0.0000 
     43 CA         42.8140   17.1000   -1.1130 C.3      12 GLL5        0.0000 
     44 CA         40.9130   18.1240   -5.0070 C.3       8 GLP5        0.0000 
     45 CA         44.5965   13.3940    2.3000 C.3       4 GLC5        0.0000 
     46 CA         43.4350   14.8930    1.8760 C.3      12 GLL5        0.0000 
     47 CA         45.7580   11.8950    2.7240 C.3       8 GLP5        0.0000 
     48 CA         44.7125   14.0690    0.5210 C.3       4 GLC5        0.0000 
     49 CA         45.9900   13.2450   -0.8340 C.3       8 GLP5        0.0000 
     50 O          45.0025   15.2700    3.7020 O.2       1 ALC1        0.0000 
     51 O          44.4420   15.5400    2.6470 O.2       9 ALL1        0.0000 
     52 O          45.5630   15.0000    4.7570 O.2       5 ALP1        0.0000 
     53 CA         40.5230   17.4140   -2.8540 C.3       4 GLC5        0.0000 
     54 CA         41.3640   16.6930   -1.4020 C.3      12 GLL5        0.0000 
     55 CA         39.6820   18.1350   -4.3060 C.3       8 GLP5        0.0000 
     56 CA         40.7275   18.4070    0.6570 C.3       4 GLC5        0.0000 
     57 CA         40.5830   16.4450   -0.0950 C.3      12 GLL5        0.0000 
     58 CA         40.8720   20.3690    1.4090 C.3       8 GLP5        0.0000 
     59 CA         39.1485   16.6615    1.2970 C.3       4 GLC5        0.0000 
     60 CA         37.7140   16.8780    2.6890 C.3       8 GLP5        0.0000 
     61 O          38.5600   16.9205   -0.8290 O.2       1 ALC1        0.0000 
     62 O          39.2990   15.8720   -0.4270 O.2       9 ALL1        0.0000 
     63 O          37.8210   17.9690   -1.2310 O.2       5 ALP1        0.0000 
     64 CA         40.0435   16.4525    2.0820 C.3       4 GLC5        0.0000 
     65 CA         41.3540   15.4510    0.7580 C.3      12 GLL5        0.0000 
     66 CA         38.7330   17.4540    3.4060 C.3       8 GLP5        0.0000 
     67 N          41.0175   15.4165    3.3130 N.am      2 SEC2        0.0000 
     68 N          40.6980   15.2030    2.0210 N.am     10 SEL2        0.0000 
     69 N          41.3370   15.6300    4.6050 N.am      6 SEP2        0.0000 
     70 N          39.2580   15.3760    2.1780 N.am      2 SEC2        0.0000 
     71 N          37.8180   15.5490    2.3350 N.am      6 SEP2        0.0000 
     72 CA         47.9042   22.6287   -7.0133 C.3       4 GLC5        0.0000 
     73 CA         47.0810   23.8440   -5.9590 C.3      12 GLL5        0.0000 
     74 CA         47.6860   19.8985   -4.5690 C.3       4 GLC5        0.0000 
     75 CA         47.9200   18.9260   -6.3400 C.3       8 GLP5        0.0000 
     76 CA         48.5045   19.6810   -1.4885 C.3       4 GLC5        0.0000 
     77 CA         46.9310   20.3230   -2.9010 C.3      12 GLL5        0.0000 
     78 CA         49.5570   18.4910   -0.1790 C.3       8 GLP5        0.0000 
@<TRIPOS>BOND
@<TRIPOS>SUBSTRUCTURE
     1 ALC1        1 GROUP        1 X    ALC  0     ROOT ALC X 1
     2 SEC2        9 GROUP        1 X    SEC  0     **** SEC X 2
     3 LYC4       28 GROUP        1 X    LYC  0     **** LYC X 4
     4 GLC5        6 GROUP        1 X    GLC  0     **** GLC X 6
     5 ALP1        3 GROUP        1 Y    ALP  0     ROOT ALP Y 8
     6 SEP2       11 GROUP        1 Y    SEP  0     **** SEP Y 9
     7 LYP4       30 GROUP        1 Y    LYP  0     **** LYP Y 11
     8 GLP5        8 GROUP        1 Y    GLP  0     **** GLP Y 13
     9 ALL1        2 GROUP        1 Z    ALL  0     ROOT ALL Z 15
    10 SEL2       10 GROUP        1 Z    SEL  0     **** SEL Z 16
    11 LYL4       29 GROUP        1 Z    LYL  0     **** LYL Z 18
    12 GLL5        7 GROUP        1 Z    GLL  0     **** GLL Z 20
@<TRIPOS>SET

