#    Name: 2pk3_GDD_4_ligand
#    Modification time : Mon Mar 24 19:05:07 2014

@<TRIPOS>MOLECULE
2pk3_GDD_4_ligand
   62    65     1     0     0
SMALL
NO_CHARGES


@<TRIPOS>ATOM
      1 N2         43.8490   22.5610   -6.7570 N.pl3     1 GDD411      0.0000 
      2 C2         45.0300   23.2210   -6.8420 C.2       1 GDD411      0.0000 
      3 N1         45.3010   23.9200   -7.9930 N.am      1 GDD411      0.0000 
      4 N3         45.9170   23.1510   -5.8260 N.2       1 GDD411      0.0000 
      5 C4         47.0810   23.8440   -5.9590 C.2       1 GDD411      0.0000 
      6 C5         47.3640   24.5570   -7.1100 C.2       1 GDD411      0.0000 
      7 C6         46.4550   24.6010   -8.1290 C.2       1 GDD411      0.0000 
      8 O6         46.6970   25.2560   -9.1840 O.2       1 GDD411      0.0000 
      9 N7         48.5750   25.1110   -6.9700 N.2       1 GDD411      0.0000 
     10 C8         49.0490   24.7630   -5.7760 C.2       1 GDD411      0.0000 
     11 N9         48.1270   23.9820   -5.1730 N.pl3     1 GDD411      0.0000 
     12 C1'        48.2800   23.3940   -3.8440 C.3       1 GDD411      0.0000 
     13 C2'        47.1350   23.6430   -2.8540 C.3       1 GDD411      0.0000 
     14 O2'        47.1210   24.9590   -2.2690 O.3       1 GDD411      0.0000 
     15 C3'        47.4410   22.5740   -1.8360 C.3       1 GDD411      0.0000 
     16 O3'        48.4430   22.9980   -0.8970 O.3       1 GDD411      0.0000 
     17 C4'        47.9730   21.4190   -2.6950 C.3       1 GDD411      0.0000 
     18 O4'        48.3170   21.9690   -3.9730 O.3       1 GDD411      0.0000 
     19 C5'        46.9310   20.3230   -2.9010 C.3       1 GDD411      0.0000 
     20 O5'        45.6420   20.9260   -3.0830 O.3       1 GDD411      0.0000 
     21 PA         44.4560   20.1150   -3.7570 P.3       1 GDD411      0.0000 
     22 O1A        44.8540   19.1270   -4.8160 O.co2     1 GDD411      0.0000 
     23 O2A        43.3180   21.0690   -4.1060 O.co2     1 GDD411      0.0000 
     24 O3A        44.0590   19.1440   -2.5370 O.3       1 GDD411      0.0000 
     25 PB         43.9410   19.4620   -0.9500 P.3       1 GDD411      0.0000 
     26 O2B        45.2720   19.0580   -0.2200 O.co2     1 GDD411      0.0000 
     27 O3B        43.4470   20.8220   -0.6370 O.co2     1 GDD411      0.0000 
     28 O1B        42.7920   18.3990   -0.5220 O.3       1 GDD411      0.0000 
     29 C11        42.8140   17.1000   -1.1130 C.3       1 GDD411      0.0000 
     30 O51        43.4510   16.1870   -0.1830 O.3       1 GDD411      0.0000 
     31 C51        42.7470   15.9910    1.0680 C.3       1 GDD411      0.0000 
     32 C61        43.4350   14.8930    1.8760 C.3       1 GDD411      0.0000 
     33 O6A        44.4420   15.5400    2.6470 O.3       1 GDD411      0.0000 
     34 C21        41.3640   16.6930   -1.4020 C.3       1 GDD411      0.0000 
     35 O21        41.3790   15.5000   -2.2140 O.3       1 GDD411      0.0000 
     36 C31        40.5830   16.4450   -0.0950 C.3       1 GDD411      0.0000 
     37 O31        39.2990   15.8720   -0.4270 O.3       1 GDD411      0.0000 
     38 C41        41.3540   15.4510    0.7580 C.3       1 GDD411      0.0000 
     39 O41        40.6980   15.2030    2.0210 O.3       1 GDD411      0.0000 
     40 H          43.6897   22.0512   -5.9116 H         1 GDD411      0.0000 
     41 H          43.2416   22.6423   -7.5472 H         1 GDD411      0.0000 
     42 H          44.5975   23.9160   -8.7636 H         1 GDD411      0.0000 
     43 H          49.9006   25.0180   -5.3971 H         1 GDD411      0.0000 
     44 H          49.1966   23.7243   -3.3721 H         1 GDD411      0.0000 
     45 H          46.2266   23.3713   -3.3422 H         1 GDD411      0.0000 
     46 H          46.5401   22.2555   -1.3845 H         1 GDD411      0.0000 
     47 H          48.8335   21.0036   -2.2144 H         1 GDD411      0.0000 
     48 H          46.9508   19.6701   -2.0245 H         1 GDD411      0.0000 
     49 H          47.2282   19.7351   -3.7734 H         1 GDD411      0.0000 
     50 H          43.3437   17.1222   -2.0484 H         1 GDD411      0.0000 
     51 H          42.6671   16.8571    1.6421 H         1 GDD411      0.0000 
     52 H          43.8497   14.1750    1.1803 H         1 GDD411      0.0000 
     53 H          42.6876   14.4153    2.4963 H         1 GDD411      0.0000 
     54 H          40.8886   17.5066   -1.9304 H         1 GDD411      0.0000 
     55 H          40.4873   17.3609    0.4254 H         1 GDD411      0.0000 
     56 H          41.4750   14.5323    0.2050 H         1 GDD411      0.0000 
     57 H          47.5303   24.8441   -1.3638 H         1 GDD411      0.0000 
     58 H          48.2839   22.4429   -0.0806 H         1 GDD411      0.0000 
     59 H          44.5682   14.9567    3.4494 H         1 GDD411      0.0000 
     60 H          40.6813   14.9059   -1.8138 H         1 GDD411      0.0000 
     61 H          38.7269   16.6508   -0.6843 H         1 GDD411      0.0000 
     62 H          40.5090   14.2210    2.0259 H         1 GDD411      0.0000 
@<TRIPOS>BOND
     1    2    1 1    
     2   40    1 1    
     3   41    1 1    
     4    3    2 1    
     5    4    2 2    
     6    7    3 am   
     7   42    3 1    
     8    5    4 1    
     9    6    5 2    
    10   11    5 1    
    11    7    6 1    
    12    9    6 1    
    13    8    7 2    
    14   10    9 2    
    15   11   10 1    
    16   43   10 1    
    17   12   11 1    
    18   13   12 1    
    19   18   12 1    
    20   44   12 1    
    21   14   13 1    
    22   15   13 1    
    23   45   13 1    
    24   57   14 1    
    25   16   15 1    
    26   17   15 1    
    27   46   15 1    
    28   58   16 1    
    29   18   17 1    
    30   19   17 1    
    31   47   17 1    
    32   20   19 1    
    33   48   19 1    
    34   49   19 1    
    35   21   20 1    
    36   22   21 ar   
    37   23   21 ar   
    38   24   21 1    
    39   25   24 1    
    40   26   25 ar   
    41   27   25 ar   
    42   28   25 1    
    43   29   28 1    
    44   30   29 1    
    45   34   29 1    
    46   50   29 1    
    47   31   30 1    
    48   32   31 1    
    49   38   31 1    
    50   51   31 1    
    51   33   32 1    
    52   52   32 1    
    53   53   32 1    
    54   59   33 1    
    55   35   34 1    
    56   36   34 1    
    57   54   34 1    
    58   60   35 1    
    59   37   36 1    
    60   38   36 1    
    61   55   36 1    
    62   61   37 1    
    63   39   38 1    
    64   56   38 1    
    65   62   39 1    
@<TRIPOS>SUBSTRUCTURE
     1 GDD411      1 GROUP   
@<TRIPOS>SET

