#    Name: 1fel_FEN_1_INTS_M
#    Modification time : Tue Mar 25 01:19:11 2014

@<TRIPOS>MOLECULE
1fel_FEN_1_INTS_M
   86     0     6     0     0
SMALL
NO_CHARGES


@<TRIPOS>ATOM
      1 CA         28.7955   19.1625   44.9500 C.3       2 GLC5        0.0000 
      2 CA         29.7800   21.0980   45.2060 C.3       6 GLL5        0.0000 
      3 CA         27.8110   17.2270   44.6940 C.3       4 GLP5        0.0000 
      4 CA         28.4955   18.9485   42.1125 C.3       2 GLC5        0.0000 
      5 CA         29.7110   19.9040   43.0410 C.3       6 GLL5        0.0000 
      6 CA         27.2800   17.9930   41.1840 C.3       4 GLP5        0.0000 
      7 CA         31.7545   16.9210   49.0520 C.3       2 GLC5        0.0000 
      8 CA         31.7220   19.1650   49.1370 C.3       6 GLL5        0.0000 
      9 CA         31.7870   14.6770   48.9670 C.3       4 GLP5        0.0000 
     10 CA         32.0850   20.3355   52.2200 C.3       2 GLC5        0.0000 
     11 CA         33.3290   18.8500   51.0780 C.3       6 GLL5        0.0000 
     12 CA         30.8410   21.8210   53.3620 C.3       4 GLP5        0.0000 
     13 CA         37.7015   19.8570   53.8545 C.3       2 GLC5        0.0000 
     14 CA         36.3600   18.3450   53.1990 C.3       6 GLL5        0.0000 
     15 CA         39.0430   21.3690   54.5100 C.3       4 GLP5        0.0000 
     16 CA         37.1855   17.8240   51.2335 C.3       2 GLC5        0.0000 
     17 CA         38.0110   17.3030   49.2680 C.3       4 GLP5        0.0000 
     18 CA         38.1715   17.5415   52.4640 C.3       2 GLC5        0.0000 
     19 CA         39.9830   16.7380   51.7290 C.3       4 GLP5        0.0000 
     20 CA         28.4225   19.2875   46.2445 C.3       2 GLC5        0.0000 
     21 CA         28.5270   21.4670   46.0520 C.3       6 GLL5        0.0000 
     22 CA         28.3180   17.1080   46.4370 C.3       4 GLP5        0.0000 
     23 CA         27.6260   21.5685   47.9360 C.3       2 GLC5        0.0000 
     24 CA         26.7250   21.6700   49.8200 C.3       4 GLP5        0.0000 
     25 CA         28.8460   23.0635   47.3205 C.3       2 GLC5        0.0000 
     26 CA         29.1650   24.6600   48.5890 C.3       4 GLP5        0.0000 
     27 CA         32.5850   21.7985   44.8570 C.3       2 GLC5        0.0000 
     28 CA         30.7450   22.1590   45.7020 C.3       6 GLL5        0.0000 
     29 CA         34.4250   21.4380   44.0120 C.3       4 GLP5        0.0000 
     30 CA         29.9550   23.4095   47.1455 C.3       2 GLC5        0.0000 
     31 CA         34.0260   17.8145   45.4140 C.3       2 GLC5        0.0000 
     32 CA         32.2060   18.0170   44.9120 C.3       6 GLL5        0.0000 
     33 CA         35.8460   17.6120   45.9160 C.3       4 GLP5        0.0000 
     34 CA         31.6710   16.2100   43.6880 C.3       2 GLC5        0.0000 
     35 CA         31.1360   14.4030   42.4640 C.3       4 GLP5        0.0000 
     36 CA         30.2620   17.5625   45.6745 C.3       2 GLC5        0.0000 
     37 CA         31.6415   16.1745   45.7205 C.3       2 GLC5        0.0000 
     38 CA         31.0770   14.3320   46.5290 C.3       4 GLP5        0.0000 
     39 CA         30.2345   20.7775   51.1140 C.3       2 GLC5        0.0000 
     40 CA         30.4940   19.6290   49.9570 C.3       6 GLL5        0.0000 
     41 CA         29.9750   21.9260   52.2710 C.3       4 GLP5        0.0000 
     42 CA         28.4585   20.0030   50.1125 C.3       2 GLC5        0.0000 
     43 CA         26.4230   20.3770   50.2680 C.3       4 GLP5        0.0000 
     44 CA         34.4015   18.8305   55.9400 C.3       2 GLC5        0.0000 
     45 CA         33.9950   19.0050   53.8390 C.3       6 GLL5        0.0000 
     46 CA         34.8080   18.6560   58.0410 C.3       4 GLP5        0.0000 
     47 CA         40.2775   19.3655   60.4215 C.3       2 GLC5        0.0000 
     48 CA         39.6830   18.8480   58.4460 C.3       6 GLL5        0.0000 
     49 CA         40.8720   19.8830   62.3970 C.3       4 GLP5        0.0000 
     50 CA         37.3890   17.8385   57.6690 C.3       2 GLC5        0.0000 
     51 CA         38.9940   17.3620   56.1980 C.3       6 GLL5        0.0000 
     52 CA         35.7840   18.3150   59.1400 C.3       4 GLP5        0.0000 
     53 N          36.4625   15.5090   53.8355 N.am      1 SEC2        0.0000 
     54 N          36.4150   16.9920   54.6620 N.am      5 SEL2        0.0000 
     55 N          36.5100   14.0260   53.0090 N.am      3 SEP2        0.0000 
     56 N          41.1000   18.4400   60.1330 N.am      1 SEC2        0.0000 
     57 N          41.0060   17.0890   59.2680 N.am      5 SEL2        0.0000 
     58 N          41.1940   19.7910   60.9980 N.am      3 SEP2        0.0000 
     59 CA         28.9083   21.4090   41.7895 C.3       2 GLC5        0.0000 
     60 CA         29.7480   21.2660   43.6890 C.3       6 GLL5        0.0000 
     61 CA         28.0870   22.2330   40.2140 C.3       4 GLP5        0.0000 
     62 CA         30.6350   19.2953   41.2507 C.3       2 GLC5        0.0000 
     63 CA         30.8520   18.9190   39.4090 C.3       4 GLP5        0.0000 
     64 CA         29.3750   18.3651   44.2776 C.3       2 GLC5        0.0000 
     65 CA         31.4600   19.3350   44.6300 C.3       6 GLL5        0.0000 
     66 CA         29.7099   18.2945   46.6974 C.3       2 GLC5        0.0000 
     67 CA         31.6860   19.3430   47.6850 C.3       6 GLL5        0.0000 
     68 CA         33.5538   20.7632   48.9470 C.3       2 GLC5        0.0000 
     69 CA         34.7720   22.3630   48.8560 C.3       4 GLP5        0.0000 
     70 CA         34.6288   20.5665   50.7773 C.3       2 GLC5        0.0000 
     71 CA         34.6280   18.6400   51.4470 C.3       6 GLL5        0.0000 
     72 CA         35.2790   22.3880   50.2920 C.3       4 GLP5        0.0000 
     73 CA         35.1375   17.8949   49.7341 C.3       2 GLC5        0.0000 
     74 CA         36.3870   16.9890   48.5590 C.3       4 GLP5        0.0000 
     75 CA         34.0217   20.3182   54.2248 C.3       2 GLC5        0.0000 
     76 CA         35.0420   18.6420   52.8300 C.3       6 GLL5        0.0000 
     77 CA         33.5250   21.8130   55.1150 C.3       4 GLP5        0.0000 
     78 CA         33.0871   20.0700   44.2058 C.3       2 GLC5        0.0000 
     79 CA         40.7692   19.7707   58.4582 C.3       2 GLC5        0.0000 
     80 CA         38.8100   19.3570   57.4730 C.3       6 GLL5        0.0000 
     81 CA         42.2920   20.4390   58.9570 C.3       4 GLP5        0.0000 
     82 CA         37.4677   18.6187   58.4047 C.3       2 GLC5        0.0000 
     83 CA         41.6845   18.0110   57.5383 C.3       2 GLC5        0.0000 
     84 CA         40.2220   17.5770   58.3050 C.3       6 GLL5        0.0000 
     85 CA         43.3160   18.8090   57.3340 C.3       4 GLP5        0.0000 
     86 CA         38.9250   19.7742   55.5277 C.3       2 GLC5        0.0000 
@<TRIPOS>BOND
@<TRIPOS>SUBSTRUCTURE
     1 SEC2       53 GROUP        1 X    SEC  0     ROOT SEC X 2
     2 GLC5        1 GROUP        1 X    GLC  0     **** GLC X 6
     3 SEP2       55 GROUP        1 Y    SEP  0     ROOT SEP Y 9
     4 GLP5        3 GROUP        1 Y    GLP  0     **** GLP Y 13
     5 SEL2       54 GROUP        1 Z    SEL  0     ROOT SEL Z 16
     6 GLL5        2 GROUP        1 Z    GLL  0     **** GLL Z 20
@<TRIPOS>SET

