#    Name: 1fel_FEN_1_ligand
#    Modification time : Tue Mar 25 01:19:11 2014

@<TRIPOS>MOLECULE
1fel_FEN_1_ligand
   62    63     1     0     0
SMALL
NO_CHARGES


@<TRIPOS>ATOM
      1 C1         29.7800   21.0980   45.2060 C.3       1 FEN184      0.0000 
      2 C2         29.7480   21.2660   43.6890 C.3       1 FEN184      0.0000 
      3 C3         29.7110   19.9040   43.0410 C.3       1 FEN184      0.0000 
      4 C4         31.1250   19.4390   43.1440 C.3       1 FEN184      0.0000 
      5 C5         31.4600   19.3350   44.6300 C.2       1 FEN184      0.0000 
      6 C6         30.4970   19.7410   45.5170 C.2       1 FEN184      0.0000 
      7 C7         30.5380   19.4970   46.9440 C.2       1 FEN184      0.0000 
      8 C8         31.6860   19.3430   47.6850 C.2       1 FEN184      0.0000 
      9 C9         31.7220   19.1650   49.1370 C.2       1 FEN184      0.0000 
     10 C10        32.9670   19.0730   49.6650 C.2       1 FEN184      0.0000 
     11 C11        33.3290   18.8500   51.0780 C.2       1 FEN184      0.0000 
     12 C12        34.6280   18.6400   51.4470 C.2       1 FEN184      0.0000 
     13 C13        35.0420   18.6420   52.8300 C.2       1 FEN184      0.0000 
     14 C14        36.3600   18.3450   53.1990 C.2       1 FEN184      0.0000 
     15 C15        36.8230   18.2890   54.6160 C.2       1 FEN184      0.0000 
     16 C16        28.5270   21.4670   46.0520 C.3       1 FEN184      0.0000 
     17 C17        30.7450   22.1590   45.7020 C.3       1 FEN184      0.0000 
     18 C18        32.2060   18.0170   44.9120 C.3       1 FEN184      0.0000 
     19 C19        30.4940   19.6290   49.9570 C.3       1 FEN184      0.0000 
     20 C20        33.9950   19.0050   53.8390 C.3       1 FEN184      0.0000 
     21 C1'        38.4300   18.6370   56.3130 C.ar      1 FEN184      0.0000 
     22 C2'        38.8100   19.3570   57.4730 C.ar      1 FEN184      0.0000 
     23 C3'        39.6830   18.8480   58.4460 C.ar      1 FEN184      0.0000 
     24 C4'        40.2220   17.5770   58.3050 C.ar      1 FEN184      0.0000 
     25 C5'        39.8840   16.8490   57.1800 C.ar      1 FEN184      0.0000 
     26 C6'        38.9940   17.3620   56.1980 C.ar      1 FEN184      0.0000 
     27 O          36.4150   16.9920   54.6620 O.2       1 FEN184      0.0000 
     28 N          37.5720   19.1520   55.3590 N.am      1 FEN184      0.0000 
     29 O4'        41.0060   17.0890   59.2680 O.3       1 FEN184      0.0000 
     30 H          30.6358   21.8009   43.3717 H         1 FEN184      0.0000 
     31 H          28.8645   21.8297   43.4123 H         1 FEN184      0.0000 
     32 H          29.4236   19.9982   42.0206 H         1 FEN184      0.0000 
     33 H          29.0665   19.2605   43.5916 H         1 FEN184      0.0000 
     34 H          31.7902   20.1509   42.6825 H         1 FEN184      0.0000 
     35 H          31.2362   18.4677   42.6896 H         1 FEN184      0.0000 
     36 H          29.5986   19.4376   47.4264 H         1 FEN184      0.0000 
     37 H          32.6239   19.3486   47.2058 H         1 FEN184      0.0000 
     38 H          33.8190   19.1676   49.0153 H         1 FEN184      0.0000 
     39 H          32.5601   18.8615   51.7578 H         1 FEN184      0.0000 
     40 H          35.3648   18.4707   50.7347 H         1 FEN184      0.0000 
     41 H          37.0776   18.1487   52.4788 H         1 FEN184      0.0000 
     42 H          38.4160   20.3170   57.6051 H         1 FEN184      0.0000 
     43 H          39.9203   19.4240   59.2642 H         1 FEN184      0.0000 
     44 H          40.2811   15.9025   57.0333 H         1 FEN184      0.0000 
     45 H          38.7636   16.7709   55.3820 H         1 FEN184      0.0000 
     46 H          37.5068   20.1662   55.2198 H         1 FEN184      0.0000 
     47 H          28.6791   21.3118   47.0281 H         1 FEN184      0.0000 
     48 H          28.2759   22.4289   45.9438 H         1 FEN184      0.0000 
     49 H          27.7289   20.9245   45.7898 H         1 FEN184      0.0000 
     50 H          31.6593   22.0396   45.3149 H         1 FEN184      0.0000 
     51 H          30.4415   23.0802   45.4584 H         1 FEN184      0.0000 
     52 H          30.8427   22.1362   46.6970 H         1 FEN184      0.0000 
     53 H          33.0605   17.9562   44.3961 H         1 FEN184      0.0000 
     54 H          32.4404   17.9226   45.8795 H         1 FEN184      0.0000 
     55 H          31.6566   17.2190   44.6643 H         1 FEN184      0.0000 
     56 H          30.6164   19.4627   50.9354 H         1 FEN184      0.0000 
     57 H          30.3211   20.6076   49.8454 H         1 FEN184      0.0000 
     58 H          29.6605   19.1507   49.6804 H         1 FEN184      0.0000 
     59 H          34.3547   18.9830   54.7718 H         1 FEN184      0.0000 
     60 H          33.6344   19.9250   53.6855 H         1 FEN184      0.0000 
     61 H          33.2175   18.3768   53.8098 H         1 FEN184      0.0000 
     62 H          40.6004   16.2076   59.5100 H         1 FEN184      0.0000 
@<TRIPOS>BOND
     1    2    1 1    
     2    6    1 1    
     3   16    1 1    
     4   17    1 1    
     5    3    2 1    
     6   30    2 1    
     7   31    2 1    
     8    4    3 1    
     9   32    3 1    
    10   33    3 1    
    11    5    4 1    
    12   34    4 1    
    13   35    4 1    
    14    6    5 2    
    15   18    5 1    
    16    7    6 1    
    17    8    7 2    
    18   36    7 1    
    19    9    8 1    
    20   37    8 1    
    21   10    9 2    
    22   19    9 1    
    23   11   10 1    
    24   38   10 1    
    25   12   11 2    
    26   39   11 1    
    27   13   12 1    
    28   40   12 1    
    29   14   13 2    
    30   20   13 1    
    31   15   14 1    
    32   41   14 1    
    33   27   15 2    
    34   28   15 am   
    35   47   16 1    
    36   48   16 1    
    37   49   16 1    
    38   50   17 1    
    39   51   17 1    
    40   52   17 1    
    41   53   18 1    
    42   54   18 1    
    43   55   18 1    
    44   56   19 1    
    45   57   19 1    
    46   58   19 1    
    47   59   20 1    
    48   60   20 1    
    49   61   20 1    
    50   22   21 ar   
    51   26   21 ar   
    52   28   21 1    
    53   23   22 ar   
    54   42   22 1    
    55   24   23 ar   
    56   43   23 1    
    57   25   24 ar   
    58   29   24 1    
    59   26   25 ar   
    60   44   25 1    
    61   45   26 1    
    62   46   28 1    
    63   62   29 1    
@<TRIPOS>SUBSTRUCTURE
     1 FEN184      1 GROUP   
@<TRIPOS>SET

