#    Name: 2vrj_NCW_2_INTS_M
#    Modification time : Tue Mar 25 02:49:49 2014

@<TRIPOS>MOLECULE
2vrj_NCW_2_INTS_M
   62     0     9     0     0
SMALL
NO_CHARGES


@<TRIPOS>ATOM
      1 CA        -21.0425  -33.0610   -2.0420 C.3       3 GLC5        0.0000 
      2 CA        -21.1060  -31.2680   -3.0050 C.3       9 GLL5        0.0000 
      3 CA        -20.9790  -34.8540   -1.0790 C.3       6 GLP5        0.0000 
      4 CA        -22.2245  -28.4580   -3.6085 C.3       3 GLC5        0.0000 
      5 CA        -21.2920  -30.2200   -4.1990 C.3       9 GLL5        0.0000 
      6 CA        -23.1570  -26.6960   -3.0180 C.3       6 GLP5        0.0000 
      7 CA        -21.7080  -27.6625   -4.4260 C.3       3 GLC5        0.0000 
      8 CA        -20.2590  -28.6290   -5.8340 C.3       9 GLL5        0.0000 
      9 N         -19.1580  -29.1620   -9.3755 N.am      2 SEC2        0.0000 
     10 N         -19.3690  -28.5720   -8.1040 N.am      8 SEL2        0.0000 
     11 N         -18.9470  -29.7520  -10.6470 N.am      5 SEP2        0.0000 
     12 O         -20.3945  -28.0310   -8.4760 O.2       1 ALC1        0.0000 
     13 O         -19.3690  -28.5720   -8.1040 O.2       7 ALL1        0.0000 
     14 O         -21.4200  -27.4900   -8.8480 O.2       4 ALP1        0.0000 
     15 N         -16.5945  -32.0500   -7.4515 N.am      2 SEC2        0.0000 
     16 N         -17.7780  -31.0300   -7.4900 N.am      8 SEL2        0.0000 
     17 N         -15.4110  -33.0700   -7.4130 N.am      5 SEP2        0.0000 
     18 N         -18.9575  -31.5675   -8.1705 N.am      2 SEC2        0.0000 
     19 N         -20.1370  -32.1050   -8.8510 N.am      5 SEP2        0.0000 
     20 O         -17.4975  -31.0195   -8.7345 O.2       1 ALC1        0.0000 
     21 O         -17.7780  -31.0300   -7.4900 O.2       7 ALL1        0.0000 
     22 O         -17.2170  -31.0090   -9.9790 O.2       4 ALP1        0.0000 
     23 O         -16.2100  -29.9445   -4.3805 O.2       1 ALC1        0.0000 
     24 O         -16.9490  -31.0790   -4.7620 O.2       7 ALL1        0.0000 
     25 O         -15.4710  -28.8100   -3.9990 O.2       4 ALP1        0.0000 
     26 CA        -18.3770  -26.7755   -4.0110 C.3       3 GLC5        0.0000 
     27 CA        -19.2740  -27.5970   -5.3070 C.3       9 GLL5        0.0000 
     28 CA        -17.4800  -25.9540   -2.7150 C.3       6 GLP5        0.0000 
     29 CA        -18.0315  -26.4190   -6.2530 C.3       3 GLC5        0.0000 
     30 CA        -16.7890  -25.2410   -7.1990 C.3       6 GLP5        0.0000 
     31 CA        -20.3550  -25.8595   -5.5585 C.3       3 GLC5        0.0000 
     32 CA        -21.4360  -24.1220   -5.8100 C.3       6 GLP5        0.0000 
     33 CA        -18.3680  -28.2465   -2.9550 C.3       3 GLC5        0.0000 
     34 CA        -18.8850  -29.6410   -4.1820 C.3       9 GLL5        0.0000 
     35 CA        -17.8510  -26.8520   -1.7280 C.3       6 GLP5        0.0000 
     36 O         -22.7000  -29.2150   -6.1230 O.2       1 ALC1        0.0000 
     37 O         -22.5010  -30.0170   -4.7410 O.2       7 ALL1        0.0000 
     38 O         -22.8990  -28.4130   -7.5050 O.2       4 ALP1        0.0000 
     39 CA        -22.4750  -31.4335   -6.8710 C.3       3 GLC5        0.0000 
     40 CA        -23.4820  -31.0720   -4.9490 C.3       9 GLL5        0.0000 
     41 CA        -21.4680  -31.7950   -8.7930 C.3       6 GLP5        0.0000 
     42 CA        -24.6175  -28.8615   -3.4510 C.3       3 GLC5        0.0000 
     43 CA        -24.7730  -30.7750   -4.1980 C.3       9 GLL5        0.0000 
     44 CA        -24.4620  -26.9480   -2.7040 C.3       6 GLP5        0.0000 
     45 CA        -26.5240  -35.0025   -0.7025 C.3       3 GLC5        0.0000 
     46 CA        -27.7170  -33.5460    0.0340 C.3       9 GLL5        0.0000 
     47 CA        -25.3310  -36.4590   -1.4390 C.3       6 GLP5        0.0000 
     48 CA        -20.6150  -32.4195   -4.6275 C.3       3 GLC5        0.0000 
     49 CA        -20.0310  -34.0950   -5.6530 C.3       6 GLP5        0.0000 
     50 CA        -17.5748  -28.9678   -7.9640 C.3       3 GLC5        0.0000 
     51 CA        -19.5840  -29.4220   -6.9650 C.3       9 GLL5        0.0000 
     52 CA        -16.2350  -28.1920   -9.1690 C.3       6 GLP5        0.0000 
     53 CA        -19.1432  -32.2300   -5.7500 C.3       3 GLC5        0.0000 
     54 CA        -18.2450  -30.0650   -6.5530 C.3       9 GLL5        0.0000 
     55 CA        -20.2756  -30.6701   -7.6346 C.3       3 GLC5        0.0000 
     56 CA        -25.9112  -34.4865   -1.9400 C.3       3 GLC5        0.0000 
     57 CA        -25.7670  -32.5500   -2.6890 C.3       9 GLL5        0.0000 
     58 CA        -26.4862  -34.6485    1.7708 C.3       3 GLC5        0.0000 
     59 CA        -25.0590  -35.8950    2.7910 C.3       6 GLP5        0.0000 
     60 CA        -28.2587  -35.1640    0.9718 C.3       3 GLC5        0.0000 
     61 CA        -28.1100  -33.2580    1.4670 C.3       9 GLL5        0.0000 
     62 CA        -28.6040  -36.9260    1.1930 C.3       6 GLP5        0.0000 
@<TRIPOS>BOND
@<TRIPOS>SUBSTRUCTURE
     1 ALC1       12 GROUP        1 X    ALC  0     ROOT ALC X 1
     2 SEC2        9 GROUP        1 X    SEC  0     **** SEC X 2
     3 GLC5        1 GROUP        1 X    GLC  0     **** GLC X 6
     4 ALP1       14 GROUP        1 Y    ALP  0     ROOT ALP Y 8
     5 SEP2       11 GROUP        1 Y    SEP  0     **** SEP Y 9
     6 GLP5        3 GROUP        1 Y    GLP  0     **** GLP Y 13
     7 ALL1       13 GROUP        1 Z    ALL  0     ROOT ALL Z 15
     8 SEL2       10 GROUP        1 Z    SEL  0     **** SEL Z 16
     9 GLL5        2 GROUP        1 Z    GLL  0     **** GLL Z 20
@<TRIPOS>SET

