#    Name: 2vrj_NCW_2_ligand
#    Modification time : Tue Mar 25 02:49:49 2014

@<TRIPOS>MOLECULE
2vrj_NCW_2_ligand
   50    51     1     0     0
SMALL
NO_CHARGES


@<TRIPOS>ATOM
      1 S1        -21.1060  -31.2680   -3.0050 S.2       1 NCW1446     0.0000 
      2 C7        -21.2920  -30.2200   -4.1990 C.2       1 NCW1446     0.0000 
      3 N1        -20.2380  -29.5370   -4.6970 N.am      1 NCW1446     0.0000 
      4 C5        -20.2590  -28.6290   -5.8340 C.3       1 NCW1446     0.0000 
      5 C4        -19.5840  -29.4220   -6.9650 C.3       1 NCW1446     0.0000 
      6 O4        -19.3690  -28.5720   -8.1040 O.3       1 NCW1446     0.0000 
      7 C3        -18.2450  -30.0650   -6.5530 C.3       1 NCW1446     0.0000 
      8 O3        -17.7780  -31.0300   -7.4900 O.3       1 NCW1446     0.0000 
      9 C2        -18.2660  -30.6650   -5.1410 C.3       1 NCW1446     0.0000 
     10 O2        -16.9490  -31.0790   -4.7620 O.3       1 NCW1446     0.0000 
     11 C6        -19.2740  -27.5970   -5.3070 C.3       1 NCW1446     0.0000 
     12 O1        -18.3790  -28.3240   -4.4320 O.3       1 NCW1446     0.0000 
     13 C1        -18.8850  -29.6410   -4.1820 C.3       1 NCW1446     0.0000 
     14 N2        -22.5010  -30.0170   -4.7410 N.am      1 NCW1446     0.0000 
     15 C8        -23.4820  -31.0720   -4.9490 C.3       1 NCW1446     0.0000 
     16 C9        -24.7730  -30.7750   -4.1980 C.3       1 NCW1446     0.0000 
     17 C10       -25.6590  -32.0170   -4.1110 C.3       1 NCW1446     0.0000 
     18 C11       -25.7670  -32.5500   -2.6890 C.3       1 NCW1446     0.0000 
     19 C12       -27.2160  -32.4780   -2.1930 C.3       1 NCW1446     0.0000 
     20 C13       -27.2920  -32.2710   -0.6820 C.3       1 NCW1446     0.0000 
     21 C14       -27.7170  -33.5460    0.0340 C.3       1 NCW1446     0.0000 
     22 C15       -28.1100  -33.2580    1.4670 C.3       1 NCW1446     0.0000 
     23 H         -21.1361  -28.2618   -6.0519 H         1 NCW1446     0.0000 
     24 H         -20.2626  -30.2397   -7.2448 H         1 NCW1446     0.0000 
     25 H         -17.4993  -29.2220   -6.5082 H         1 NCW1446     0.0000 
     26 H         -18.9477  -31.5242   -5.1816 H         1 NCW1446     0.0000 
     27 H         -19.8230  -26.8392   -4.7724 H         1 NCW1446     0.0000 
     28 H         -18.7481  -27.1653   -6.1428 H         1 NCW1446     0.0000 
     29 H         -18.8604  -29.9513   -3.2282 H         1 NCW1446     0.0000 
     30 H         -22.8029  -29.0556   -5.0494 H         1 NCW1446     0.0000 
     31 H         -23.0966  -32.0396   -4.5993 H         1 NCW1446     0.0000 
     32 H         -23.7225  -31.1784   -6.0158 H         1 NCW1446     0.0000 
     33 H         -25.3172  -29.9829   -4.7138 H         1 NCW1446     0.0000 
     34 H         -24.5344  -30.4346   -3.1896 H         1 NCW1446     0.0000 
     35 H         -25.2445  -32.7973   -4.7585 H         1 NCW1446     0.0000 
     36 H         -26.6599  -31.7681   -4.4803 H         1 NCW1446     0.0000 
     37 H         -25.1360  -31.9572   -2.0301 H         1 NCW1446     0.0000 
     38 H         -25.4335  -33.5853   -2.6630 H         1 NCW1446     0.0000 
     39 H         -27.7288  -33.4068   -2.4558 H         1 NCW1446     0.0000 
     40 H         -27.7238  -31.6511   -2.6960 H         1 NCW1446     0.0000 
     41 H         -28.0110  -31.4783   -0.4649 H         1 NCW1446     0.0000 
     42 H         -26.3123  -31.9595   -0.3136 H         1 NCW1446     0.0000 
     43 H         -26.8894  -34.2577    0.0190 H         1 NCW1446     0.0000 
     44 H         -28.5638  -33.9879   -0.4944 H         1 NCW1446     0.0000 
     45 H         -27.3551  -32.8566    1.9856 H         1 NCW1446     0.0000 
     46 H         -28.8758  -32.6171    1.5205 H         1 NCW1446     0.0000 
     47 H         -28.3884  -34.0883    1.9498 H         1 NCW1446     0.0000 
     48 H         -20.2320  -28.5926   -8.6088 H         1 NCW1446     0.0000 
     49 H         -17.6932  -30.5324   -8.3533 H         1 NCW1446     0.0000 
     50 H         -16.4844  -30.2390   -4.4818 H         1 NCW1446     0.0000 
@<TRIPOS>BOND
     1    2    1 2    
     2    3    2 am   
     3   14    2 am   
     4    4    3 1    
     5   13    3 1    
     6    5    4 1    
     7   11    4 1    
     8   23    4 1    
     9    6    5 1    
    10    7    5 1    
    11   24    5 1    
    12   48    6 1    
    13    8    7 1    
    14    9    7 1    
    15   25    7 1    
    16   49    8 1    
    17   10    9 1    
    18   13    9 1    
    19   26    9 1    
    20   50   10 1    
    21   12   11 1    
    22   27   11 1    
    23   28   11 1    
    24   13   12 1    
    25   29   13 1    
    26   15   14 1    
    27   30   14 1    
    28   16   15 1    
    29   31   15 1    
    30   32   15 1    
    31   17   16 1    
    32   33   16 1    
    33   34   16 1    
    34   18   17 1    
    35   35   17 1    
    36   36   17 1    
    37   19   18 1    
    38   37   18 1    
    39   38   18 1    
    40   20   19 1    
    41   39   19 1    
    42   40   19 1    
    43   21   20 1    
    44   41   20 1    
    45   42   20 1    
    46   22   21 1    
    47   43   21 1    
    48   44   21 1    
    49   45   22 1    
    50   46   22 1    
    51   47   22 1    
@<TRIPOS>SUBSTRUCTURE
     1 NCW1446     1 GROUP   
@<TRIPOS>SET

