#    Name: 4BUB_1_CAVITY_N1_ALL.mol2
#    Modification time : Tue Mar 11 20:30:00 2014

@<TRIPOS>MOLECULE
4BUB_1_CAVITY_N1_ALL.mol2
  129     0     7     0     0
SMALL
NO_CHARGES


@<TRIPOS>ATOM
      1 NZ         26.7728  -20.6692   -0.6550 N.2       4 LYS4        0.0000 
      2 CZ         28.0848  -20.9600   -1.3216 C.ar      5 PHE5        0.0000 
      3 N          26.2591  -20.0667   -1.9290 N.2       2 ALA2        0.0000 
      4 CA         27.5710  -20.3575   -2.5956 C.3       6 GLY6        0.0000 
      5 CZ         28.8830  -20.6483   -3.2621 C.ar      5 PHE5        0.0000 
      6 CZ         30.1949  -20.9391   -3.9286 C.ar      5 PHE5        0.0000 
      7 CZ         29.6309  -13.0422   -1.7329 C.ar      5 PHE5        0.0000 
      8 OD1        30.9428  -13.3330   -2.3994 O.3       3 ASP3        0.0000 
      9 O          32.2547  -13.6239   -3.0659 O.2       2 ALA2        0.0000 
     10 CZ         26.4933  -11.8582   -1.6738 C.ar      5 PHE5        0.0000 
     11 CZ         27.8052  -12.1490   -2.3403 C.ar      5 PHE5        0.0000 
     12 OD1        29.1171  -12.4398   -3.0069 O.3       3 ASP3        0.0000 
     13 OD1        30.4291  -12.7306   -3.6734 O.3       3 ASP3        0.0000 
     14 OD1        31.7410  -13.0214   -4.3399 O.3       3 ASP3        0.0000 
     15 N          25.9796  -11.2557   -2.9478 N.2       2 ALA2        0.0000 
     16 DU         27.2915  -11.5465   -3.6144 H         7 CUB7        0.0000 
     17 OD1        28.6034  -11.8373   -4.2809 O.3       3 ASP3        0.0000 
     18 OD1        29.9153  -12.1281   -4.9474 O.3       3 ASP3        0.0000 
     19 N          25.4658  -10.6532   -4.2218 N.2       2 ALA2        0.0000 
     20 NZ         26.7778  -10.9440   -4.8884 N.2       4 LYS4        0.0000 
     21 NZ         28.0897  -11.2348   -5.5549 N.2       4 LYS4        0.0000 
     22 CA         23.6402   -9.7599   -4.8293 C.3       6 GLY6        0.0000 
     23 NZ         24.9521  -10.0507   -5.4958 N.2       4 LYS4        0.0000 
     24 NZ         26.2640  -10.3415   -6.1624 N.2       4 LYS4        0.0000 
     25 CZ         28.8336  -11.4089   -0.6390 C.ar      5 PHE5        0.0000 
     26 N          27.0080  -10.5156   -1.2465 N.2       2 ALA2        0.0000 
     27 OD1        28.3199  -10.8064   -1.9130 O.3       3 ASP3        0.0000 
     28 NZ         27.8013  -19.9291    1.0463 N.2       4 LYS4        0.0000 
     29 CZ         29.1132  -20.2199    0.3798 C.ar      5 PHE5        0.0000 
     30 NZ         27.2875  -19.3266   -0.2277 N.2       4 LYS4        0.0000 
     31 CZ         28.5995  -19.6174   -0.8942 C.ar      5 PHE5        0.0000 
     32 CZ         29.9114  -19.9082   -1.5607 C.ar      5 PHE5        0.0000 
     33 CZ         31.2233  -20.1990   -2.2273 C.ar      5 PHE5        0.0000 
     34 CA         25.4619  -18.4333   -0.8352 C.3       6 GLY6        0.0000 
     35 CA         26.7738  -18.7241   -1.5017 C.3       6 GLY6        0.0000 
     36 DU         28.0857  -19.0149   -2.1682 H         7 CUB7        0.0000 
     37 DU         29.3977  -19.3057   -2.8348 H         7 CUB7        0.0000 
     38 CZ         30.7096  -19.5966   -3.5013 C.ar      5 PHE5        0.0000 
     39 CZ         32.0215  -19.8874   -4.1678 C.ar      5 PHE5        0.0000 
     40 CA         26.2601  -18.1217   -2.7757 C.3       6 GLY6        0.0000 
     41 CA         27.5720  -18.4125   -3.4422 C.3       6 GLY6        0.0000 
     42 CA         28.8840  -18.7033   -4.1088 C.3       6 GLY6        0.0000 
     43 CA         30.1959  -18.9941   -4.7753 C.3       6 GLY6        0.0000 
     44 O          31.5078  -19.2849   -5.4418 O.2       2 ALA2        0.0000 
     45 CZ         30.9398  -19.1681    0.1406 C.ar      5 PHE5        0.0000 
     46 OG         32.2518  -19.4590   -0.5259 O.2       1 SER1        0.0000 
     47 CZ         27.8022  -17.9841    0.1997 C.ar      5 PHE5        0.0000 
     48 CA         29.1142  -18.2749   -0.4669 C.3       6 GLY6        0.0000 
     49 DU         30.4261  -18.5657   -1.1334 H         7 CUB7        0.0000 
     50 OG         31.7380  -18.8565   -1.7999 O.2       1 SER1        0.0000 
     51 N          33.0500  -19.1473   -2.4665 N.2       2 ALA2        0.0000 
     52 CA         25.9766  -17.0908   -0.4078 C.3       6 GLY6        0.0000 
     53 CZ         27.2885  -17.3816   -1.0743 C.ar      5 PHE5        0.0000 
     54 DU         28.6005  -17.6724   -1.7409 H         7 CUB7        0.0000 
     55 DU         29.9124  -17.9632   -2.4074 H         7 CUB7        0.0000 
     56 O          31.2243  -18.2540   -3.0739 O.2       2 ALA2        0.0000 
     57 CA         32.5362  -18.5448   -3.7405 C.3       6 GLY6        0.0000 
     58 CA         26.7748  -16.7791   -2.3484 C.3       6 GLY6        0.0000 
     59 DU         28.0867  -17.0699   -3.0149 H         7 CUB7        0.0000 
     60 N          29.3987  -17.3607   -3.6814 N.2       2 ALA2        0.0000 
     61 O          30.7106  -17.6515   -4.3480 O.2       2 ALA2        0.0000 
     62 CA         26.2611  -16.1766   -3.6224 C.3       6 GLY6        0.0000 
     63 N          27.5730  -16.4674   -4.2889 N.2       2 ALA2        0.0000 
     64 CA         25.7474  -15.5741   -4.8964 C.3       6 GLY6        0.0000 
     65 CA         27.0583  -17.8100   -4.7163 C.3       6 GLY6        0.0000 
     66 N          28.3702  -18.1008   -5.3828 N.2       2 ALA2        0.0000 
     67 N          26.4943   -9.9131   -2.5205 N.2       2 ALA2        0.0000 
     68 OD1        27.8062  -10.2039   -3.1870 O.3       3 ASP3        0.0000 
     69 OD1        29.1181  -10.4947   -3.8535 O.3       3 ASP3        0.0000 
     70 N          25.9805   -9.3106   -3.7945 N.2       2 ALA2        0.0000 
     71 DU         27.2925   -9.6014   -4.4610 H         7 CUB7        0.0000 
     72 OD1        28.6044   -9.8923   -5.1276 O.3       3 ASP3        0.0000 
     73 OD1        29.9163  -10.1831   -5.7941 O.3       3 ASP3        0.0000 
     74 NZ         26.7787   -8.9990   -5.7350 N.2       4 LYS4        0.0000 
     75 NZ         28.0907   -9.2898   -6.4016 N.2       4 LYS4        0.0000 
     76 N          27.5227   -9.1730   -0.8191 N.2       2 ALA2        0.0000 
     77 OD1        28.8346   -9.4638   -1.4857 O.3       3 ASP3        0.0000 
     78 OD1        28.3209   -8.8614   -2.7597 O.3       3 ASP3        0.0000 
     79 DU         27.8072   -8.2589   -4.0337 H         7 CUB7        0.0000 
     80 O          32.7675  -16.1714   -0.9452 O.2       2 ALA2        0.0000 
     81 CZ         29.6299  -14.9873   -0.8862 C.ar      5 PHE5        0.0000 
     82 O          30.9418  -15.2781   -1.5527 O.2       2 ALA2        0.0000 
     83 O          32.2537  -15.5689   -2.2193 O.2       2 ALA2        0.0000 
     84 CA         33.5657  -15.8597   -2.8858 C.3       6 GLY6        0.0000 
     85 CZ         29.1161  -14.3848   -2.1602 C.ar      5 PHE5        0.0000 
     86 DU         30.4281  -14.6756   -2.8267 H         7 CUB7        0.0000 
     87 O          31.7400  -14.9664   -3.4933 O.2       2 ALA2        0.0000 
     88 CZ         25.9786  -13.2007   -2.1012 C.ar      5 PHE5        0.0000 
     89 CZ         27.2905  -13.4915   -2.7677 C.ar      5 PHE5        0.0000 
     90 CZ         28.6024  -13.7823   -3.4342 C.ar      5 PHE5        0.0000 
     91 N          29.9144  -14.0731   -4.1008 N.2       2 ALA2        0.0000 
     92 O          31.2263  -14.3639   -4.7673 O.2       2 ALA2        0.0000 
     93 N          25.4648  -12.5982   -3.3752 N.2       2 ALA2        0.0000 
     94 DU         26.7768  -12.8890   -4.0417 H         7 CUB7        0.0000 
     95 N          28.0887  -13.1798   -4.7082 N.2       2 ALA2        0.0000 
     96 N          29.4006  -13.4706   -5.3748 N.2       2 ALA2        0.0000 
     97 CA         23.6392  -11.7049   -3.9826 C.3       6 GLY6        0.0000 
     98 N          24.9511  -11.9957   -4.6492 N.2       2 ALA2        0.0000 
     99 NZ         26.2631  -12.2866   -5.3157 N.2       4 LYS4        0.0000 
    100 NZ         27.5750  -12.5774   -5.9822 N.2       4 LYS4        0.0000 
    101 CA         23.1255  -11.1025   -5.2567 C.3       6 GLY6        0.0000 
    102 CA         24.4374  -11.3933   -5.9232 C.3       6 GLY6        0.0000 
    103 NZ         25.7493  -11.6841   -6.5897 N.2       4 LYS4        0.0000 
    104 CA         23.9237  -10.7908   -7.1972 C.3       6 GLY6        0.0000 
    105 CA         29.6812  -20.3366   -5.2027 C.3       6 GLY6        0.0000 
    106 CA         30.9931  -20.6274   -5.8692 C.3       6 GLY6        0.0000 
    107 CA         29.1675  -19.7341   -6.4767 C.3       6 GLY6        0.0000 
    108 O          29.6289  -16.9323   -0.0395 O.2       2 ALA2        0.0000 
    109 O          30.9408  -17.2231   -0.7061 O.2       2 ALA2        0.0000 
    110 OG         32.2527  -17.5139   -1.3726 O.2       1 SER1        0.0000 
    111 OG         33.5647  -17.8047   -2.0391 O.2       1 SER1        0.0000 
    112 CZ         29.1152  -16.3298   -1.3135 C.ar      5 PHE5        0.0000 
    113 O          30.4271  -16.6206   -1.9801 O.2       2 ALA2        0.0000 
    114 O          31.7390  -16.9114   -2.6466 O.2       2 ALA2        0.0000 
    115 CZ         27.2895  -15.4365   -1.9210 C.ar      5 PHE5        0.0000 
    116 CZ         28.6014  -15.7274   -2.5876 C.ar      5 PHE5        0.0000 
    117 DU         29.9134  -16.0182   -3.2541 H         7 CUB7        0.0000 
    118 O          31.2253  -16.3090   -3.9206 O.2       2 ALA2        0.0000 
    119 CA         25.4639  -14.5433   -2.5285 C.3       6 GLY6        0.0000 
    120 CZ         26.7758  -14.8341   -3.1950 C.ar      5 PHE5        0.0000 
    121 N          28.0877  -15.1249   -3.8616 N.2       2 ALA2        0.0000 
    122 N          29.3996  -15.4157   -4.5281 N.2       2 ALA2        0.0000 
    123 CA         30.7116  -15.7065   -5.1946 C.3       6 GLY6        0.0000 
    124 OG         24.9501  -13.9408   -3.8025 O.2       1 SER1        0.0000 
    125 DU         26.2621  -14.2316   -4.4690 H         7 CUB7        0.0000 
    126 N          27.5740  -14.5224   -5.1356 N.2       2 ALA2        0.0000 
    127 OG         24.4364  -13.3383   -5.0765 O.2       1 SER1        0.0000 
    128 CA         25.7483  -13.6291   -5.7431 C.3       6 GLY6        0.0000 
    129 N          27.0603  -13.9199   -6.4096 N.2       2 ALA2        0.0000 
@<TRIPOS>BOND
@<TRIPOS>SUBSTRUCTURE
     1 SER1       46 GROUP   
     2 ALA2        3 GROUP   
     3 ASP3        8 GROUP   
     4 LYS4        1 GROUP   
     5 PHE5        2 GROUP   
     6 GLY6        4 GROUP   
     7 CUB7       16 GROUP   
@<TRIPOS>SET

