#    Name: 4bub_ADP_1_INTS_M
#    Modification time : Tue Mar 25 08:22:52 2014

@<TRIPOS>MOLECULE
4bub_ADP_1_INTS_M
   47     0    15     0     0
SMALL
NO_CHARGES


@<TRIPOS>ATOM
      1 NZ         32.2140  -11.3720   -6.5340 N.4       3 LYC4        0.0000 
      2 NZ         32.0250  -12.5930   -5.2210 N.4      13 LYL4        0.0000 
      3 NZ         32.4030  -10.1510   -7.8470 N.4       8 LYP4        0.0000 
      4 Zn         31.7880  -11.3195   -2.4965 Zn        4 ZIC7        0.0000 
      5 Zn         32.4130  -12.2350   -2.7210 Zn       14 ZIL7        0.0000 
      6 Zn         31.1630  -10.4040   -2.2720 Zn        9 ZIP7        0.0000 
      7 NZ         31.3855  -13.8200   -0.3750 N.4       3 LYC4        0.0000 
      8 NZ         31.0090  -14.4040   -1.5640 N.4      13 LYL4        0.0000 
      9 NZ         31.2040  -13.9770    1.7650 N.4       8 LYP4        0.0000 
     10 N          30.8855  -14.8025   -0.0415 N.am      2 SEC2        0.0000 
     11 N          31.0090  -14.4040   -1.5640 N.am     12 SEL2        0.0000 
     12 N          30.7620  -15.2010    1.4810 N.am      7 SEP2        0.0000 
     13 N          31.3855  -13.8200   -0.3750 N.am      2 SEC2        0.0000 
     14 N          31.7620  -13.2360    0.8140 N.am      7 SEP2        0.0000 
     15 N          32.6775  -15.4845   -4.7380 N.am      2 SEC2        0.0000 
     16 N          32.2600  -14.4290   -3.7260 N.am     12 SEL2        0.0000 
     17 N          33.0950  -16.5400   -5.7500 N.am      7 SEP2        0.0000 
     18 CA         28.4110  -14.8500   -1.4300 C.3       5 GLC5        0.0000 
     19 CA         29.1440  -15.7700   -3.2360 C.3      15 GLL5        0.0000 
     20 CA         27.6780  -13.9300    0.3760 C.3      10 GLP5        0.0000 
     21 CA         30.1935  -20.9315   -1.9330 C.3       5 GLC5        0.0000 
     22 CA         29.0690  -19.2990   -2.7100 C.3      15 GLL5        0.0000 
     23 CA         31.3180  -22.5640   -1.1560 C.3      10 GLP5        0.0000 
     24 CA         29.9410  -18.1335   -6.0405 C.3       5 GLC5        0.0000 
     25 CA         29.1640  -19.1110   -4.2090 C.3      15 GLL5        0.0000 
     26 CA         30.7180  -17.1560   -7.8720 C.3      10 GLP5        0.0000 
     27 N          33.9760  -20.3260   -4.3475 N.am      2 SEC2        0.0000 
     28 N          32.7090  -19.7380   -5.0370 N.am     12 SEL2        0.0000 
     29 N          35.2430  -20.9140   -3.6580 N.am      7 SEP2        0.0000 
     30 CA         33.2060  -18.6765   -5.6405 C.3       5 GLC5        0.0000 
     31 CA         32.1380  -20.2400   -6.1510 C.3      15 GLL5        0.0000 
     32 CA         34.2740  -17.1130   -5.1300 C.3      10 GLP5        0.0000 
     33 O          35.0770  -20.6190   -6.6095 O.2       1 ALC1        0.0000 
     34 O          33.9100  -21.0830   -7.6750 O.2      11 ALL1        0.0000 
     35 O          36.2440  -20.1550   -5.5440 O.2       6 ALP1        0.0000 
     36 CA         30.5400  -19.1115   -7.9815 C.3       5 GLC5        0.0000 
     37 CA         30.3620  -21.0670   -8.0910 C.3      15 GLL5        0.0000 
     38 CA         30.8410  -22.3795   -6.4360 C.3       5 GLC5        0.0000 
     39 CA         31.3200  -23.6920   -4.7810 C.3      10 GLP5        0.0000 
     40 CA         28.5035  -21.4935   -7.0435 C.3       5 GLC5        0.0000 
     41 CA         26.6450  -21.9200   -5.9960 C.3      10 GLP5        0.0000 
     42 CA         28.5680  -20.2470   -5.8830 C.3       5 GLC5        0.0000 
     43 CA         30.6920  -20.0690   -5.9790 C.3      15 GLL5        0.0000 
     44 CA         26.4440  -20.4250   -5.7870 C.3      10 GLP5        0.0000 
     45 CA         27.7803  -19.8150   -4.6232 C.3       5 GLC5        0.0000 
     46 CA         31.1239  -18.7346   -7.1265 C.3       5 GLC5        0.0000 
     47 CA         31.4249  -22.0026   -5.5810 C.3       5 GLC5        0.0000 
@<TRIPOS>BOND
@<TRIPOS>SUBSTRUCTURE
     1 ALC1       33 GROUP        1 X    ALC  0     ROOT ALC X 1
     2 SEC2       10 GROUP        1 X    SEC  0     **** SEC X 2
     3 LYC4        1 GROUP        1 X    LYC  0     **** LYC X 4
     4 ZIC7        4 GROUP        1 X    ZIC  0     **** ZIC X 5
     5 GLC5       18 GROUP        1 X    GLC  0     **** GLC X 6
     6 ALP1       35 GROUP        1 Y    ALP  0     ROOT ALP Y 8
     7 SEP2       12 GROUP        1 Y    SEP  0     **** SEP Y 9
     8 LYP4        3 GROUP        1 Y    LYP  0     **** LYP Y 11
     9 ZIP7        6 GROUP        1 Y    ZIP  0     **** ZIP Y 12
    10 GLP5       20 GROUP        1 Y    GLP  0     **** GLP Y 13
    11 ALL1       34 GROUP        1 Z    ALL  0     ROOT ALL Z 15
    12 SEL2       11 GROUP        1 Z    SEL  0     **** SEL Z 16
    13 LYL4        2 GROUP        1 Z    LYL  0     **** LYL Z 18
    14 ZIL7        5 GROUP        1 Z    ZIL  0     **** ZIL Z 19
    15 GLL5       19 GROUP        1 Z    GLL  0     **** GLL Z 20
@<TRIPOS>SET

