#    Name: 4bub_ADP_1_ligand
#    Modification time : Tue Mar 25 08:22:52 2014

@<TRIPOS>MOLECULE
4bub_ADP_1_ligand
   39    41     1     0     0
SMALL
NO_CHARGES


@<TRIPOS>ATOM
      1 PB         31.6590  -12.9610   -3.8070 P.3       1 ADP1486     0.0000 
      2 O1B        30.1790  -13.1280   -3.5270 O.co2     1 ADP1486     0.0000 
      3 O2B        32.0250  -12.5930   -5.2210 O.co2     1 ADP1486     0.0000 
      4 O3B        32.4130  -12.2350   -2.7210 O.co2     1 ADP1486     0.0000 
      5 PA         31.6750  -15.3360   -2.5550 P.3       1 ADP1486     0.0000 
      6 O1A        32.7970  -16.2510   -2.0930 O.co2     1 ADP1486     0.0000 
      7 O2A        31.0090  -14.4040   -1.5640 O.co2     1 ADP1486     0.0000 
      8 O3A        32.2600  -14.4290   -3.7260 O.3       1 ADP1486     0.0000 
      9 O5'        30.5210  -16.1330   -3.3620 O.3       1 ADP1486     0.0000 
     10 C5'        29.1440  -15.7700   -3.2360 C.3       1 ADP1486     0.0000 
     11 C4'        28.3240  -17.0440   -3.3540 C.3       1 ADP1486     0.0000 
     12 O4'        28.8080  -17.7470   -4.4960 O.3       1 ADP1486     0.0000 
     13 C3'        28.5100  -17.9800   -2.1650 C.3       1 ADP1486     0.0000 
     14 O3'        27.2460  -18.1620   -1.5160 O.3       1 ADP1486     0.0000 
     15 C2'        29.0690  -19.2990   -2.7100 C.3       1 ADP1486     0.0000 
     16 O2'        28.2110  -20.4290   -2.4870 O.3       1 ADP1486     0.0000 
     17 C1'        29.1640  -19.1110   -4.2090 C.3       1 ADP1486     0.0000 
     18 N9         30.5030  -19.4790   -4.7830 N.pl3     1 ADP1486     0.0000 
     19 C8         31.7160  -19.2800   -4.2230 C.2       1 ADP1486     0.0000 
     20 N7         32.7090  -19.7380   -5.0370 N.2       1 ADP1486     0.0000 
     21 C5         32.1380  -20.2400   -6.1510 C.ar      1 ADP1486     0.0000 
     22 C6         32.5970  -20.8750   -7.4150 C.ar      1 ADP1486     0.0000 
     23 N6         33.9100  -21.0830   -7.6750 N.pl3     1 ADP1486     0.0000 
     24 N1         31.6700  -21.2510   -8.3130 N.ar      1 ADP1486     0.0000 
     25 C2         30.3620  -21.0670   -8.0910 C.ar      1 ADP1486     0.0000 
     26 N3         29.8750  -20.4970   -6.9790 N.ar      1 ADP1486     0.0000 
     27 C4         30.6920  -20.0690   -5.9790 C.ar      1 ADP1486     0.0000 
     28 H          28.8306  -15.0902   -4.0248 H         1 ADP1486     0.0000 
     29 H          28.9313  -15.3175   -2.2703 H         1 ADP1486     0.0000 
     30 H          27.2963  -16.8036   -3.4592 H         1 ADP1486     0.0000 
     31 H          29.2415  -17.5449   -1.5147 H         1 ADP1486     0.0000 
     32 H          30.0512  -19.4445   -2.3346 H         1 ADP1486     0.0000 
     33 H          28.4009  -19.7740   -4.6606 H         1 ADP1486     0.0000 
     34 H          31.8688  -18.8635   -3.3504 H         1 ADP1486     0.0000 
     35 H          34.1248  -21.4731   -8.5704 H         1 ADP1486     0.0000 
     36 H          34.5482  -20.8281   -6.9486 H         1 ADP1486     0.0000 
     37 H          29.6704  -21.3908   -8.8379 H         1 ADP1486     0.0000 
     38 H          27.1314  -19.1529   -1.4461 H         1 ADP1486     0.0000 
     39 H          28.8065  -21.1339   -2.1016 H         1 ADP1486     0.0000 
@<TRIPOS>BOND
     1    2    1 ar   
     2    3    1 ar   
     3    4    1 ar   
     4    8    1 1    
     5    6    5 ar   
     6    7    5 ar   
     7    8    5 1    
     8    9    5 1    
     9   10    9 1    
    10   11   10 1    
    11   28   10 1    
    12   29   10 1    
    13   12   11 1    
    14   13   11 1    
    15   30   11 1    
    16   17   12 1    
    17   14   13 1    
    18   15   13 1    
    19   31   13 1    
    20   38   14 1    
    21   16   15 1    
    22   17   15 1    
    23   32   15 1    
    24   39   16 1    
    25   18   17 1    
    26   33   17 1    
    27   19   18 1    
    28   27   18 1    
    29   20   19 2    
    30   34   19 1    
    31   21   20 1    
    32   22   21 ar   
    33   27   21 ar   
    34   23   22 1    
    35   24   22 ar   
    36   35   23 1    
    37   36   23 1    
    38   25   24 ar   
    39   26   25 ar   
    40   37   25 1    
    41   27   26 ar   
@<TRIPOS>SUBSTRUCTURE
     1 ADP1486     1 GROUP   
@<TRIPOS>SET

