#    Name: 2nom_DUT_1_INTS_M
#    Modification time : Tue Mar 25 21:25:23 2014

@<TRIPOS>MOLECULE
2nom_DUT_1_INTS_M
   58     0    15     0     0
SMALL
NO_CHARGES


@<TRIPOS>ATOM
      1 CA        -22.5430    2.2625   -3.8910 C.3       5 GLC5        0.0000 
      2 CA        -22.1340    0.2310   -3.0360 C.3      15 GLL5        0.0000 
      3 CA        -22.9520    4.2940   -4.7460 C.3      10 GLP5        0.0000 
      4 CA        -23.2450   -0.4120   -4.2755 C.3       5 GLC5        0.0000 
      5 CA        -24.3560   -1.0550   -5.5150 C.3      10 GLP5        0.0000 
      6 CA        -21.8920   -0.2155   -5.0810 C.3       5 GLC5        0.0000 
      7 CA        -21.2100   -0.6980   -3.4570 C.3      15 GLL5        0.0000 
      8 CA        -22.5740    0.2670   -6.7050 C.3      10 GLP5        0.0000 
      9 N         -23.6785   -4.2640   -1.5820 N.am      2 SEC2        0.0000 
     10 N         -22.8660   -3.7030   -2.4620 N.am     12 SEL2        0.0000 
     11 N         -24.4910   -4.8250   -0.7020 N.am      7 SEP2        0.0000 
     12 CA        -18.8815   -3.2365   -2.6950 C.3       5 GLC5        0.0000 
     13 CA        -20.4370   -2.9870   -3.7340 C.3      15 GLL5        0.0000 
     14 CA        -17.3260   -3.4860   -1.6560 C.3      10 GLP5        0.0000 
     15 CA        -21.9865   -4.9780   -5.2880 C.3       5 GLC5        0.0000 
     16 CA        -20.8800   -3.5020   -5.0920 C.3      15 GLL5        0.0000 
     17 CA        -23.0930   -6.4540   -5.4840 C.3      10 GLP5        0.0000 
     18 CA        -17.9435   -3.3270   -3.9565 C.3       5 GLC5        0.0000 
     19 CA        -18.8440   -2.2650   -5.2860 C.3      15 GLL5        0.0000 
     20 CA        -17.0430   -4.3890   -2.6270 C.3      10 GLP5        0.0000 
     21 O         -19.0170   -4.2585   -6.9945 O.2       1 ALC1        0.0000 
     22 O         -20.0450   -3.0990   -7.3340 O.2      11 ALL1        0.0000 
     23 O         -17.9890   -5.4180   -6.6550 O.2       6 ALP1        0.0000 
     24 N         -21.0475    2.3500   -6.8290 N.am      2 SEC2        0.0000 
     25 N         -20.0530    2.4470   -5.6760 N.am     12 SEL2        0.0000 
     26 N         -22.0420    2.2530   -7.9820 N.am      7 SEP2        0.0000 
     27 Zn        -14.6535    1.6360   -6.4690 Zn        4 ZIC7        0.0000 
     28 Zn        -15.6950    1.2450   -6.7860 Zn       14 ZIL7        0.0000 
     29 Zn        -13.6120    2.0270   -6.1520 Zn        9 ZIP7        0.0000 
     30 N         -15.2530    0.0800   -7.7675 N.am      2 SEC2        0.0000 
     31 N         -15.6950    1.2450   -6.7860 N.am     12 SEL2        0.0000 
     32 N         -14.8110   -1.0850   -8.7490 N.am      7 SEP2        0.0000 
     33 NZ        -16.1560    6.1705   -9.0415 N.4       3 LYC4        0.0000 
     34 NZ        -16.5800    5.1360   -7.8950 N.4      13 LYL4        0.0000 
     35 NZ        -15.7320    7.2050  -10.1880 N.4       8 LYP4        0.0000 
     36 N         -16.1560    6.1705   -9.0415 N.am      2 SEC2        0.0000 
     37 N         -16.5800    5.1360   -7.8950 N.am     12 SEL2        0.0000 
     38 N         -15.7320    7.2050  -10.1880 N.am      7 SEP2        0.0000 
     39 N         -17.8170    5.2375   -8.2670 N.am      2 SEC2        0.0000 
     40 N         -19.0540    5.3390   -8.6390 N.am      7 SEP2        0.0000 
     41 NZ        -15.3805    3.7950  -10.8110 N.4       3 LYC4        0.0000 
     42 NZ        -14.9130    4.5000   -9.6580 N.4      13 LYL4        0.0000 
     43 NZ        -15.8480    3.0900  -11.9640 N.4       8 LYP4        0.0000 
     44 NZ        -15.3225    5.8525   -9.9230 N.4       3 LYC4        0.0000 
     45 N         -13.6370    4.6295  -10.1420 N.am      2 SEC2        0.0000 
     46 N         -14.9130    4.5000   -9.6580 N.am     12 SEL2        0.0000 
     47 N         -12.3610    4.7590  -10.6260 N.am      7 SEP2        0.0000 
     48 N         -15.3805    3.7950  -10.8110 N.am      2 SEC2        0.0000 
     49 N         -15.8480    3.0900  -11.9640 N.am      7 SEP2        0.0000 
     50 N         -15.3225    5.8525   -9.9230 N.am      2 SEC2        0.0000 
     51 Zn        -14.1295    2.8085   -6.7335 Zn        4 ZIC7        0.0000 
     52 Zn        -14.6470    3.5900   -7.3150 Zn       14 ZIL7        0.0000 
     53 CA        -20.4503   -4.7788   -3.0935 C.3       5 GLC5        0.0000 
     54 CA        -20.2420   -6.3130   -1.7740 C.3      10 GLP5        0.0000 
     55 CA        -21.8805   -2.5545   -6.4642 C.3       5 GLC5        0.0000 
     56 CA        -23.2410   -2.0840   -7.3720 C.3      10 GLP5        0.0000 
     57 CA        -17.0145   -1.9373   -6.0652 C.3       5 GLC5        0.0000 
     58 CA        -15.5350   -2.2730   -6.7140 C.3      10 GLP5        0.0000 
@<TRIPOS>BOND
@<TRIPOS>SUBSTRUCTURE
     1 ALC1       21 GROUP        1 X    ALC  0     ROOT ALC X 1
     2 SEC2        9 GROUP        1 X    SEC  0     **** SEC X 2
     3 LYC4       33 GROUP        1 X    LYC  0     **** LYC X 4
     4 ZIC7       27 GROUP        1 X    ZIC  0     **** ZIC X 5
     5 GLC5        1 GROUP        1 X    GLC  0     **** GLC X 6
     6 ALP1       23 GROUP        1 Y    ALP  0     ROOT ALP Y 8
     7 SEP2       11 GROUP        1 Y    SEP  0     **** SEP Y 9
     8 LYP4       35 GROUP        1 Y    LYP  0     **** LYP Y 11
     9 ZIP7       29 GROUP        1 Y    ZIP  0     **** ZIP Y 12
    10 GLP5        3 GROUP        1 Y    GLP  0     **** GLP Y 13
    11 ALL1       22 GROUP        1 Z    ALL  0     ROOT ALL Z 15
    12 SEL2       10 GROUP        1 Z    SEL  0     **** SEL Z 16
    13 LYL4       34 GROUP        1 Z    LYL  0     **** LYL Z 18
    14 ZIL7       28 GROUP        1 Z    ZIL  0     **** ZIL Z 19
    15 GLL5        2 GROUP        1 Z    GLL  0     **** GLL Z 20
@<TRIPOS>SET

