#    Name: 2nom_DUT_1_ligand
#    Modification time : Tue Mar 25 21:25:23 2014

@<TRIPOS>MOLECULE
2nom_DUT_1_ligand
   39    40     1     0     0
SMALL
NO_CHARGES


@<TRIPOS>ATOM
      1 N1        -21.4400   -2.0180   -3.2860 N.am      1 DUT501      0.0000 
      2 C2        -22.6240   -2.4710   -2.6510 C.2       1 DUT501      0.0000 
      3 N3        -23.5240   -1.5440   -2.2560 N.am      1 DUT501      0.0000 
      4 C4        -23.3010   -0.2260   -2.4370 C.2       1 DUT501      0.0000 
      5 C5        -22.1340    0.2310   -3.0360 C.2       1 DUT501      0.0000 
      6 C6        -21.2100   -0.6980   -3.4570 C.2       1 DUT501      0.0000 
      7 O2        -22.8660   -3.7030   -2.4620 O.2       1 DUT501      0.0000 
      8 O4        -24.1610    0.5850   -2.0520 O.2       1 DUT501      0.0000 
      9 C1'       -20.4370   -2.9870   -3.7340 C.3       1 DUT501      0.0000 
     10 C2'       -20.8800   -3.5020   -5.0920 C.3       1 DUT501      0.0000 
     11 C3'       -20.1600   -2.5480   -6.0210 C.3       1 DUT501      0.0000 
     12 C4'       -18.8440   -2.2650   -5.2860 C.3       1 DUT501      0.0000 
     13 O4'       -19.1860   -2.2960   -3.8970 O.3       1 DUT501      0.0000 
     14 O3'       -20.0450   -3.0990   -7.3340 O.3       1 DUT501      0.0000 
     15 C5'       -18.1440   -0.9380   -5.5470 C.3       1 DUT501      0.0000 
     16 O5'       -19.0280    0.1090   -5.9430 O.3       1 DUT501      0.0000 
     17 PA        -18.7420    1.6660   -5.5990 P.3       1 DUT501      0.0000 
     18 O1A       -17.9730    1.7660   -4.3240 O.co2     1 DUT501      0.0000 
     19 O2A       -20.0530    2.4470   -5.6760 O.co2     1 DUT501      0.0000 
     20 O3A       -17.9990    2.2320   -6.8920 O.3       1 DUT501      0.0000 
     21 PB        -16.8320    1.5900   -7.7510 P.3       1 DUT501      0.0000 
     22 O1B       -15.6950    1.2450   -6.7860 O.co2     1 DUT501      0.0000 
     23 O2B       -17.4360    0.4830   -8.5770 O.co2     1 DUT501      0.0000 
     24 O3B       -16.4790    2.8030   -8.7630 O.3       1 DUT501      0.0000 
     25 PG        -15.5760    4.1010   -8.3700 P.3       1 DUT501      0.0000 
     26 O1G       -16.5800    5.1360   -7.8950 O.co2     1 DUT501      0.0000 
     27 O2G       -14.9130    4.5000   -9.6580 O.co2     1 DUT501      0.0000 
     28 O3G       -14.6470    3.5900   -7.3150 O.co2     1 DUT501      0.0000 
     29 H         -24.4169   -1.8575   -1.7979 H         1 DUT501      0.0000 
     30 H         -21.9718    1.2296   -3.1578 H         1 DUT501      0.0000 
     31 H         -20.3321   -0.3699   -3.9087 H         1 DUT501      0.0000 
     32 H         -20.3634   -3.7936   -3.0627 H         1 DUT501      0.0000 
     33 H         -21.9227   -3.3922   -5.1958 H         1 DUT501      0.0000 
     34 H         -20.5280   -4.4845   -5.2365 H         1 DUT501      0.0000 
     35 H         -20.7347   -1.6205   -6.0075 H         1 DUT501      0.0000 
     36 H         -18.1565   -3.0800   -5.4903 H         1 DUT501      0.0000 
     37 H         -17.3627   -1.1198   -6.3195 H         1 DUT501      0.0000 
     38 H         -17.5875   -0.6672   -4.6211 H         1 DUT501      0.0000 
     39 H         -19.5428   -3.9550   -7.2122 H         1 DUT501      0.0000 
@<TRIPOS>BOND
     1    2    1 1    
     2    6    1 1    
     3    9    1 1    
     4    3    2 1    
     5    7    2 2    
     6    4    3 1    
     7   29    3 1    
     8    5    4 1    
     9    8    4 2    
    10    6    5 2    
    11   30    5 1    
    12   31    6 1    
    13   10    9 1    
    14   13    9 1    
    15   32    9 1    
    16   11   10 1    
    17   33   10 1    
    18   34   10 1    
    19   12   11 1    
    20   14   11 1    
    21   35   11 1    
    22   13   12 1    
    23   15   12 1    
    24   36   12 1    
    25   39   14 1    
    26   16   15 1    
    27   37   15 1    
    28   38   15 1    
    29   17   16 1    
    30   18   17 ar   
    31   19   17 ar   
    32   20   17 1    
    33   21   20 1    
    34   22   21 ar   
    35   23   21 ar   
    36   24   21 1    
    37   25   24 1    
    38   26   25 ar   
    39   27   25 ar   
    40   28   25 ar   
@<TRIPOS>SUBSTRUCTURE
     1 DUT501      1 GROUP   
@<TRIPOS>SET

