#    Name: 2w4q_CBW_1_INTS_M
#    Modification time : Tue Mar 25 03:41:02 2014

@<TRIPOS>MOLECULE
2w4q_CBW_1_INTS_M
   83     0     9     0     0
SMALL
NO_CHARGES


@<TRIPOS>ATOM
      1 CA         14.5770  -12.2775   25.4320 C.3       3 GLC5        0.0000 
      2 CA         15.3460  -11.1550   26.5180 C.3       9 GLL5        0.0000 
      3 CA         13.8080  -13.4000   24.3460 C.3       6 GLP5        0.0000 
      4 CA         16.9250  -13.1640   28.6260 C.3       3 GLC5        0.0000 
      5 CA         15.6060  -11.4820   29.0750 C.3       9 GLL5        0.0000 
      6 CA         18.2440  -14.8460   28.1770 C.3       6 GLP5        0.0000 
      7 CA         15.3835  -12.8200   30.8020 C.3       3 GLC5        0.0000 
      8 CA         15.1610  -14.1580   32.5290 C.3       6 GLP5        0.0000 
      9 CA         17.8660  -12.7150   27.9385 C.3       3 GLC5        0.0000 
     10 CA         17.4880  -10.5840   27.7000 C.3       9 GLL5        0.0000 
     11 CA         19.2615   -8.7075   29.4415 C.3       3 GLC5        0.0000 
     12 CA         18.8050   -9.8090   27.5780 C.3       9 GLL5        0.0000 
     13 CA         19.7180   -7.6060   31.3050 C.3       6 GLP5        0.0000 
     14 CA         16.6545  -12.4270   24.1460 C.3       3 GLC5        0.0000 
     15 CA         17.4110  -10.7480   25.1880 C.3       9 GLL5        0.0000 
     16 CA         15.8980  -14.1060   23.1040 C.3       6 GLP5        0.0000 
     17 CA         15.0685   -7.1720   27.3525 C.3       3 GLC5        0.0000 
     18 CA         16.1210   -8.8170   26.3420 C.3       9 GLL5        0.0000 
     19 CA         14.0160   -5.5270   28.3630 C.3       6 GLP5        0.0000 
     20 CA         16.4245   -6.8300   26.1905 C.3       3 GLC5        0.0000 
     21 CA         16.7280   -4.8430   26.0390 C.3       6 GLP5        0.0000 
     22 CA         15.8840   -7.8925   24.3570 C.3       3 GLC5        0.0000 
     23 CA         15.6470   -6.9680   22.3720 C.3       6 GLP5        0.0000 
     24 CA         17.6180  -13.3885   21.9415 C.3       3 GLC5        0.0000 
     25 CA         19.3380  -12.6710   20.7790 C.3       9 GLL5        0.0000 
     26 CA         23.3800  -12.2755   19.0400 C.3       3 GLC5        0.0000 
     27 CA         21.5360  -12.5300   19.6980 C.3       9 GLL5        0.0000 
     28 CA         25.2240  -12.0210   18.3820 C.3       6 GLP5        0.0000 
     29 CA         22.7465  -10.4775   18.7995 C.3       3 GLC5        0.0000 
     30 CA         21.5630  -11.0010   19.9140 C.3       9 GLL5        0.0000 
     31 CA         23.9300   -9.9540   17.6850 C.3       6 GLP5        0.0000 
     32 CA         14.5880   -9.0865   30.5880 C.3       3 GLC5        0.0000 
     33 CA         16.3770   -9.1430   29.5620 C.3       9 GLL5        0.0000 
     34 CA         12.7990   -9.0300   31.6140 C.3       6 GLP5        0.0000 
     35 CA         15.1965   -7.3350   28.9625 C.3       3 GLC5        0.0000 
     36 CA         17.6275   -7.8220   30.1010 C.3       3 GLC5        0.0000 
     37 CA         18.8780   -6.5010   30.6400 C.3       6 GLP5        0.0000 
     38 CA         18.0125  -12.9890   29.1880 C.3       3 GLC5        0.0000 
     39 CA         17.7810  -11.1320   30.1990 C.3       9 GLL5        0.0000 
     40 CA         18.7495   -9.3690   30.7520 C.3       3 GLC5        0.0000 
     41 CA         17.8200   -7.8890   23.1585 C.3       3 GLC5        0.0000 
     42 CA         18.8140   -8.7240   24.6870 C.3       9 GLL5        0.0000 
     43 CA         16.8260   -7.0540   21.6300 C.3       6 GLP5        0.0000 
     44 CA         17.7405  -13.3585   23.6955 C.3       3 GLC5        0.0000 
     45 CA         19.5830  -12.6110   24.2870 C.3       9 GLL5        0.0000 
     46 CA         19.2770  -14.4305   24.8890 C.3       3 GLC5        0.0000 
     47 CA         18.9710  -16.2500   25.4910 C.3       6 GLP5        0.0000 
     48 CA         22.4450   -8.4345   20.0470 C.3       3 GLC5        0.0000 
     49 CA         20.7660   -9.0270   21.2480 C.3       9 GLL5        0.0000 
     50 CA         24.1240   -7.8420   18.8460 C.3       6 GLP5        0.0000 
     51 CA         21.8975   -8.0610   22.7815 C.3       3 GLC5        0.0000 
     52 CA         23.0290   -7.0950   24.3150 C.3       6 GLP5        0.0000 
     53 CA         18.8355   -8.4120   20.8595 C.3       3 GLC5        0.0000 
     54 CA         16.9050   -7.7970   20.4710 C.3       6 GLP5        0.0000 
     55 CA         19.8325  -16.1320   20.3560 C.3       3 GLC5        0.0000 
     56 CA         20.1130  -14.6160   19.2990 C.3       9 GLL5        0.0000 
     57 CA         19.5520  -17.6480   21.4130 C.3       6 GLP5        0.0000 
     58 O          13.5495  -11.9515   30.1890 O.2       1 ALC1        0.0000 
     59 O          14.8790  -11.5280   30.3340 O.2       7 ALL1        0.0000 
     60 O          12.2200  -12.3750   30.0440 O.2       4 ALP1        0.0000 
     61 N          17.4820  -13.5210   18.3255 N.am      2 SEC2        0.0000 
     62 N          18.2310  -12.4300   18.2660 N.am      8 SEL2        0.0000 
     63 N          16.7330  -14.6120   18.3850 N.am      5 SEP2        0.0000 
     64 N          17.3400  -11.7910   17.4895 N.am      2 SEC2        0.0000 
     65 N          16.4490  -11.1520   16.7130 N.am      5 SEP2        0.0000 
     66 N          19.8995  -11.3855   16.0470 N.am      2 SEC2        0.0000 
     67 N          20.2240  -12.1260   17.2990 N.am      8 SEL2        0.0000 
     68 N          19.5750  -10.6450   14.7950 N.am      5 SEP2        0.0000 
     69 CA         14.1767  -12.7860   27.5077 C.3       3 GLC5        0.0000 
     70 CA         14.6450  -11.1060   27.9240 C.3       9 GLL5        0.0000 
     71 CA         13.2280  -14.2780   26.5160 C.3       6 GLP5        0.0000 
     72 CA         20.6890  -11.1522   27.7888 C.3       3 GLC5        0.0000 
     73 CA         22.1640  -12.2230   28.5940 C.3       6 GLP5        0.0000 
     74 CA         16.9905  -12.4970   22.8705 C.3       3 GLC5        0.0000 
     75 CA         18.7730  -10.9950   22.6340 C.3       9 GLL5        0.0000 
     76 CA         22.4462   -9.5025   24.1870 C.3       3 GLC5        0.0000 
     77 CA         21.0240  -10.6070   23.7860 C.3       9 GLL5        0.0000 
     78 CA         23.5620   -8.1680   25.2600 C.3       6 GLP5        0.0000 
     79 CA         17.8373   -9.4130   21.2037 C.3       3 GLC5        0.0000 
     80 CA         19.4560  -11.1700   21.2360 C.3       9 GLL5        0.0000 
     81 CA         19.0938  -14.5980   17.9535 C.3       3 GLC5        0.0000 
     82 CA         20.1260  -13.0700   19.5090 C.3       9 GLL5        0.0000 
     83 CA         18.0680  -15.3530   16.5030 C.3       6 GLP5        0.0000 
@<TRIPOS>BOND
@<TRIPOS>SUBSTRUCTURE
     1 ALC1       58 GROUP        1 X    ALC  0     ROOT ALC X 1
     2 SEC2       61 GROUP        1 X    SEC  0     **** SEC X 2
     3 GLC5        1 GROUP        1 X    GLC  0     **** GLC X 6
     4 ALP1       60 GROUP        1 Y    ALP  0     ROOT ALP Y 8
     5 SEP2       63 GROUP        1 Y    SEP  0     **** SEP Y 9
     6 GLP5        3 GROUP        1 Y    GLP  0     **** GLP Y 13
     7 ALL1       59 GROUP        1 Z    ALL  0     ROOT ALL Z 15
     8 SEL2       62 GROUP        1 Z    SEL  0     **** SEL Z 16
     9 GLL5        2 GROUP        1 Z    GLL  0     **** GLL Z 20
@<TRIPOS>SET

