#    Name: 2w4q_CBW_1_ligand
#    Modification time : Tue Mar 25 03:41:02 2014

@<TRIPOS>MOLECULE
2w4q_CBW_1_ligand
   79    83     1     0     0
SMALL
NO_CHARGES


@<TRIPOS>ATOM
      1 C1         15.3460  -11.1550   26.5180 C.3       1 CBW1350     0.0000 
      2 C2         14.6450  -11.1060   27.9240 C.3       1 CBW1350     0.0000 
      3 C3         15.6060  -11.4820   29.0750 C.3       1 CBW1350     0.0000 
      4 C4         16.8120  -10.5460   29.1310 C.3       1 CBW1350     0.0000 
      5 C5         17.4880  -10.5840   27.7000 C.3       1 CBW1350     0.0000 
      6 C6         18.8050   -9.8090   27.5780 C.3       1 CBW1350     0.0000 
      7 C7         19.6230  -10.3540   26.3890 C.3       1 CBW1350     0.0000 
      8 C8         18.8600  -10.2350   25.0620 C.3       1 CBW1350     0.0000 
      9 C9         17.4110  -10.7480   25.1880 C.3       1 CBW1350     0.0000 
     10 C10        16.5890  -10.2820   26.4500 C.3       1 CBW1350     0.0000 
     11 C11        16.6710  -10.5990   23.8360 C.2       1 CBW1350     0.0000 
     12 C12        17.3930  -10.7810   22.6400 C.2       1 CBW1350     0.0000 
     13 C13        18.7730  -10.9950   22.6340 C.2       1 CBW1350     0.0000 
     14 C14        19.5710  -11.1110   23.9710 C.3       1 CBW1350     0.0000 
     15 C15        21.0240  -10.6070   23.7860 C.3       1 CBW1350     0.0000 
     16 C16        21.6370  -11.0670   22.4420 C.3       1 CBW1350     0.0000 
     17 C17        20.8600  -10.5630   21.2230 C.3       1 CBW1350     0.0000 
     18 C18        19.4560  -11.1700   21.2360 C.3       1 CBW1350     0.0000 
     19 C19        16.1210   -8.8170   26.3420 C.3       1 CBW1350     0.0000 
     20 C20        19.3380  -12.6710   20.7790 C.3       1 CBW1350     0.0000 
     21 C21        20.1260  -13.0700   19.5090 C.3       1 CBW1350     0.0000 
     22 C22        21.5360  -12.5300   19.6980 C.3       1 CBW1350     0.0000 
     23 C23        21.5630  -11.0010   19.9140 C.3       1 CBW1350     0.0000 
     24 C24        16.3770   -9.1430   29.5620 C.3       1 CBW1350     0.0000 
     25 C25        17.7810  -11.1320   30.1990 C.3       1 CBW1350     0.0000 
     26 C26        18.8140   -8.7240   24.6870 C.3       1 CBW1350     0.0000 
     27 C27        19.5830  -12.6110   24.2870 C.3       1 CBW1350     0.0000 
     28 C28        20.7660   -9.0270   21.2480 C.3       1 CBW1350     0.0000 
     29 C33        19.4750  -12.4700   18.2580 C.2       1 CBW1350     0.0000 
     30 C34        20.1130  -14.6160   19.2990 C.3       1 CBW1350     0.0000 
     31 O3         14.8790  -11.5280   30.3340 O.3       1 CBW1350     0.0000 
     32 O11        15.4610  -10.3550   23.7920 O.2       1 CBW1350     0.0000 
     33 O34        18.2310  -12.4300   18.2660 O.co2     1 CBW1350     0.0000 
     34 O35        20.2240  -12.1260   17.2990 O.co2     1 CBW1350     0.0000 
     35 H          14.6198  -10.8286   25.7688 H         1 CBW1350     0.0000 
     36 H          15.6093  -12.1954   26.3098 H         1 CBW1350     0.0000 
     37 H          13.8057  -11.7996   27.9129 H         1 CBW1350     0.0000 
     38 H          14.2672  -10.0973   28.0837 H         1 CBW1350     0.0000 
     39 H          15.9857  -12.4943   28.8401 H         1 CBW1350     0.0000 
     40 H          17.8026  -11.6913   27.5501 H         1 CBW1350     0.0000 
     41 H          19.3795   -9.9285   28.4871 H         1 CBW1350     0.0000 
     42 H          18.5929   -8.7612   27.4109 H         1 CBW1350     0.0000 
     43 H          19.8598  -11.4033   26.5740 H         1 CBW1350     0.0000 
     44 H          20.5577   -9.7950   26.3169 H         1 CBW1350     0.0000 
     45 H          17.5211  -11.8943   25.3152 H         1 CBW1350     0.0000 
     46 H          16.8787  -10.7543   21.7383 H         1 CBW1350     0.0000 
     47 H          21.6369  -10.9867   24.6041 H         1 CBW1350     0.0000 
     48 H          21.0278   -9.5172   23.8233 H         1 CBW1350     0.0000 
     49 H          21.6632  -12.1628   22.4262 H         1 CBW1350     0.0000 
     50 H          22.6704  -10.7054   22.3868 H         1 CBW1350     0.0000 
     51 H          18.8209  -10.5803   20.5286 H         1 CBW1350     0.0000 
     52 H          18.2654  -12.8946   20.6206 H         1 CBW1350     0.0000 
     53 H          19.6679  -13.3095   21.6211 H         1 CBW1350     0.0000 
     54 H          22.1400  -12.7686   18.8158 H         1 CBW1350     0.0000 
     55 H          21.9992  -13.0132   20.5652 H         1 CBW1350     0.0000 
     56 H          22.6033  -10.6639   19.9426 H         1 CBW1350     0.0000 
     57 H          21.0693  -10.5134   19.0684 H         1 CBW1350     0.0000 
     58 H          16.8929   -8.1830   26.2960 H         1 CBW1350     0.0000 
     59 H          15.5665   -8.6636   25.5241 H         1 CBW1350     0.0000 
     60 H          15.5653   -8.5457   27.1279 H         1 CBW1350     0.0000 
     61 H          17.1504   -8.5104   29.6024 H         1 CBW1350     0.0000 
     62 H          15.7098   -8.7502   28.9291 H         1 CBW1350     0.0000 
     63 H          15.9542   -9.1473   30.4682 H         1 CBW1350     0.0000 
     64 H          18.0775  -12.0575   29.9634 H         1 CBW1350     0.0000 
     65 H          18.6063  -10.5758   30.2967 H         1 CBW1350     0.0000 
     66 H          17.3528  -11.1821   31.1013 H         1 CBW1350     0.0000 
     67 H          19.7311   -8.3391   24.5827 H         1 CBW1350     0.0000 
     68 H          18.3316   -8.5699   23.8247 H         1 CBW1350     0.0000 
     69 H          18.3464   -8.1821   25.3854 H         1 CBW1350     0.0000 
     70 H          20.0392  -13.1380   23.5699 H         1 CBW1350     0.0000 
     71 H          20.0610  -12.8063   25.1434 H         1 CBW1350     0.0000 
     72 H          18.6575  -12.9789   24.3774 H         1 CBW1350     0.0000 
     73 H          21.6699   -8.5994   21.2371 H         1 CBW1350     0.0000 
     74 H          20.2646   -8.6727   20.4586 H         1 CBW1350     0.0000 
     75 H          20.2954   -8.6970   22.0663 H         1 CBW1350     0.0000 
     76 H          20.6187  -14.8837   18.4789 H         1 CBW1350     0.0000 
     77 H          20.5281  -15.0990   20.0700 H         1 CBW1350     0.0000 
     78 H          19.1829  -14.9693   19.1982 H         1 CBW1350     0.0000 
     79 H          13.9751  -11.8847   30.0979 H         1 CBW1350     0.0000 
@<TRIPOS>BOND
     1    2    1 1    
     2   10    1 1    
     3   35    1 1    
     4   36    1 1    
     5    3    2 1    
     6   37    2 1    
     7   38    2 1    
     8    4    3 1    
     9   31    3 1    
    10   39    3 1    
    11    5    4 1    
    12   24    4 1    
    13   25    4 1    
    14    6    5 1    
    15   10    5 1    
    16   40    5 1    
    17    7    6 1    
    18   41    6 1    
    19   42    6 1    
    20    8    7 1    
    21   43    7 1    
    22   44    7 1    
    23    9    8 1    
    24   14    8 1    
    25   26    8 1    
    26   10    9 1    
    27   11    9 1    
    28   45    9 1    
    29   19   10 1    
    30   12   11 1    
    31   32   11 2    
    32   13   12 2    
    33   46   12 1    
    34   14   13 1    
    35   18   13 1    
    36   15   14 1    
    37   27   14 1    
    38   16   15 1    
    39   47   15 1    
    40   48   15 1    
    41   17   16 1    
    42   49   16 1    
    43   50   16 1    
    44   18   17 1    
    45   23   17 1    
    46   28   17 1    
    47   20   18 1    
    48   51   18 1    
    49   58   19 1    
    50   59   19 1    
    51   60   19 1    
    52   21   20 1    
    53   52   20 1    
    54   53   20 1    
    55   22   21 1    
    56   29   21 1    
    57   30   21 1    
    58   23   22 1    
    59   54   22 1    
    60   55   22 1    
    61   56   23 1    
    62   57   23 1    
    63   61   24 1    
    64   62   24 1    
    65   63   24 1    
    66   64   25 1    
    67   65   25 1    
    68   66   25 1    
    69   67   26 1    
    70   68   26 1    
    71   69   26 1    
    72   70   27 1    
    73   71   27 1    
    74   72   27 1    
    75   73   28 1    
    76   74   28 1    
    77   75   28 1    
    78   33   29 ar   
    79   34   29 ar   
    80   76   30 1    
    81   77   30 1    
    82   78   30 1    
    83   79   31 1    
@<TRIPOS>SUBSTRUCTURE
     1 CBW1350     1 GROUP   
@<TRIPOS>SET

