#    Name: 2vwc_BC2_1_INTS_M
#    Modification time : Tue Mar 25 03:10:03 2014

@<TRIPOS>MOLECULE
2vwc_BC2_1_INTS_M
   55     0     6     0     0
SMALL
NO_CHARGES


@<TRIPOS>ATOM
      1 N         -24.5905   31.6105    0.7285 N.am      1 SEC2        0.0000 
      2 N         -25.2220   32.5990   -0.0230 N.am      5 SEL2        0.0000 
      3 N         -23.9590   30.6220    1.4800 N.am      3 SEP2        0.0000 
      4 CA        -22.9550   36.3020   -0.0385 C.3       2 GLC5        0.0000 
      5 CA        -24.8420   35.4350   -0.7710 C.3       6 GLL5        0.0000 
      6 CA        -21.0680   37.1690    0.6940 C.3       4 GLP5        0.0000 
      7 CA        -26.3770   36.2605   -1.4955 C.3       2 GLC5        0.0000 
      8 CA        -27.9120   37.0860   -2.2200 C.3       4 GLP5        0.0000 
      9 CA        -25.0750   35.5525    1.3845 C.3       2 GLC5        0.0000 
     10 CA        -25.3080   35.6700    3.5400 C.3       4 GLP5        0.0000 
     11 CA        -18.1845   35.6010   -2.6485 C.3       2 GLC5        0.0000 
     12 CA        -19.2660   34.1480   -1.6300 C.3       6 GLL5        0.0000 
     13 CA        -17.1030   37.0540   -3.6670 C.3       4 GLP5        0.0000 
     14 CA        -20.1670   35.6585   -0.4680 C.3       2 GLC5        0.0000 
     15 CA        -17.3720   33.2440   -0.9205 C.3       2 GLC5        0.0000 
     16 CA        -15.4780   32.3400   -0.2110 C.3       4 GLP5        0.0000 
     17 CA        -23.9810   38.5275   -4.2270 C.3       2 GLC5        0.0000 
     18 CA        -24.5550   36.6200   -4.8160 C.3       6 GLL5        0.0000 
     19 CA        -23.4070   40.4350   -3.6380 C.3       4 GLP5        0.0000 
     20 CA        -26.2335   36.8530   -3.5180 C.3       2 GLC5        0.0000 
     21 CA        -19.9170   38.7810   -6.2950 C.3       2 GLC5        0.0000 
     22 CA        -21.8710   39.0060   -6.7710 C.3       6 GLL5        0.0000 
     23 CA        -17.9630   38.5560   -5.8190 C.3       4 GLP5        0.0000 
     24 CA        -20.7735   40.7160   -6.5300 C.3       2 GLC5        0.0000 
     25 CA        -19.6760   42.4260   -6.2890 C.3       4 GLP5        0.0000 
     26 CA        -22.6390   39.7205   -5.2045 C.3       2 GLC5        0.0000 
     27 N         -22.7880   35.0130  -10.0790 N.am      1 SEC2        0.0000 
     28 N         -22.2180   36.1120   -9.2320 N.am      5 SEL2        0.0000 
     29 N         -23.3580   33.9140  -10.9260 N.am      3 SEP2        0.0000 
     30 CA        -19.6815   36.2595  -10.6320 C.3       2 GLC5        0.0000 
     31 CA        -21.7340   37.0370  -10.2280 C.3       6 GLL5        0.0000 
     32 CA        -17.6290   35.4820  -11.0360 C.3       4 GLP5        0.0000 
     33 CA        -18.6110   33.2315   -8.6305 C.3       2 GLC5        0.0000 
     34 CA        -19.8700   34.5870   -8.6070 C.3       6 GLL5        0.0000 
     35 CA        -17.3520   31.8760   -8.6540 C.3       4 GLP5        0.0000 
     36 CA        -18.7495   35.0345   -9.8215 C.3       2 GLC5        0.0000 
     37 CA        -19.3940   36.4265   -5.2250 C.3       2 GLC5        0.0000 
     38 CA        -20.2230   34.9200   -6.2300 C.3       6 GLL5        0.0000 
     39 CA        -18.5650   37.9330   -4.2200 C.3       4 GLP5        0.0000 
     40 CA        -20.8725   31.1275   -4.6760 C.3       2 GLC5        0.0000 
     41 CA        -21.3380   32.7340   -5.7820 C.3       6 GLL5        0.0000 
     42 CA        -20.4070   29.5210   -3.5700 C.3       4 GLP5        0.0000 
     43 CA        -20.0750   31.6070   -3.8280 C.3       2 GLC5        0.0000 
     44 CA        -19.7430   33.6930   -4.0860 C.3       6 GLL5        0.0000 
     45 CA        -18.4230   35.3735   -3.8765 C.3       2 GLC5        0.0000 
     46 CA        -23.1790   33.5500   -0.1451 C.3       2 GLC5        0.0000 
     47 CA        -24.3100   34.1790   -1.4180 C.3       6 GLL5        0.0000 
     48 CA        -22.4860   32.6010    1.3250 C.3       4 GLP5        0.0000 
     49 CA        -21.4073   36.3040   -0.9375 C.3       2 GLC5        0.0000 
     50 CA        -22.3940   35.4120   -2.4070 C.3       6 GLL5        0.0000 
     51 CA        -19.6365   36.3790   -3.4790 C.3       2 GLC5        0.0000 
     52 CA        -21.0990   35.4660   -2.7310 C.3       6 GLL5        0.0000 
     53 CA        -19.9153   33.6875   -0.3207 C.3       2 GLC5        0.0000 
     54 CA        -20.3170   34.1840   -2.7450 C.3       6 GLL5        0.0000 
     55 CA        -20.0390   33.2090    1.5460 C.3       4 GLP5        0.0000 
@<TRIPOS>BOND
@<TRIPOS>SUBSTRUCTURE
     1 SEC2        1 GROUP        1 X    SEC  0     ROOT SEC X 2
     2 GLC5        4 GROUP        1 X    GLC  0     **** GLC X 6
     3 SEP2        3 GROUP        1 Y    SEP  0     ROOT SEP Y 9
     4 GLP5        6 GROUP        1 Y    GLP  0     **** GLP Y 13
     5 SEL2        2 GROUP        1 Z    SEL  0     ROOT SEL Z 16
     6 GLL5        5 GROUP        1 Z    GLL  0     **** GLL Z 20
@<TRIPOS>SET

