#    Name: 2vwc_BC2_1_ligand
#    Modification time : Tue Mar 25 03:10:03 2014

@<TRIPOS>MOLECULE
2vwc_BC2_1_ligand
   82    83     1     0     0
SMALL
NO_CHARGES


@<TRIPOS>ATOM
      1 O23       -26.4460   34.5140   -3.4630 O.2       1 BC21215     0.0000 
      2 C2        -25.8930   33.6480   -4.1770 C.2       1 BC21215     0.0000 
      3 C3        -25.3910   32.3660   -3.5240 C.2       1 BC21215     0.0000 
      4 C4        -24.8060   31.4320   -4.2890 C.2       1 BC21215     0.0000 
      5 C5        -24.6140   31.6580   -5.7960 C.2       1 BC21215     0.0000 
      6 O24       -24.0520   30.7790   -6.5010 O.2       1 BC21215     0.0000 
      7 C6        -25.1020   32.9530   -6.4350 C.2       1 BC21215     0.0000 
      8 N22       -25.5610   32.1590   -2.1900 N.am      1 BC21215     0.0000 
      9 C21       -25.0550   32.9260   -1.1950 C.2       1 BC21215     0.0000 
     10 O37       -25.2220   32.5990   -0.0230 O.2       1 BC21215     0.0000 
     11 C20       -24.3100   34.1790   -1.4180 C.2       1 BC21215     0.0000 
     12 C36       -24.8420   35.4350   -0.7710 C.3       1 BC21215     0.0000 
     13 C19       -23.1680   34.1910   -2.1360 C.2       1 BC21215     0.0000 
     14 C18       -22.3940   35.4120   -2.4070 C.2       1 BC21215     0.0000 
     15 C17       -21.0990   35.4660   -2.7310 C.2       1 BC21215     0.0000 
     16 C16       -20.3170   34.1840   -2.7450 C.3       1 BC21215     0.0000 
     17 C35       -19.2660   34.1480   -1.6300 C.3       1 BC21215     0.0000 
     18 C1        -25.6990   33.8940   -5.6720 C.2       1 BC21215     0.0000 
     19 C7        -26.1810   35.1780   -6.2560 C.3       1 BC21215     0.0000 
     20 O38       -26.5670   34.9870   -7.6270 O.3       1 BC21215     0.0000 
     21 C39       -27.9240   34.5370   -7.7490 C.3       1 BC21215     0.0000 
     22 C8        -25.1260   36.2950   -6.2000 C.3       1 BC21215     0.0000 
     23 C25       -24.5550   36.6200   -4.8160 C.3       1 BC21215     0.0000 
     24 C9        -24.0760   36.1920   -7.3110 C.3       1 BC21215     0.0000 
     25 C10       -22.6890   36.7020   -6.9670 C.3       1 BC21215     0.0000 
     26 O26       -22.8600   38.1010   -7.2780 O.3       1 BC21215     0.0000 
     27 C27       -21.8710   39.0060   -6.7710 C.3       1 BC21215     0.0000 
     28 C11       -21.6100   36.3260   -7.9610 C.3       1 BC21215     0.0000 
     29 O28       -22.2180   36.1120   -9.2320 O.3       1 BC21215     0.0000 
     30 C40       -21.7340   37.0370  -10.2280 C.3       1 BC21215     0.0000 
     31 C12       -20.9250   34.9900   -7.5790 C.3       1 BC21215     0.0000 
     32 C29       -19.8700   34.5870   -8.6070 C.3       1 BC21215     0.0000 
     33 C13       -20.2230   34.9200   -6.2300 C.2       1 BC21215     0.0000 
     34 C14       -20.4220   33.8670   -5.4070 C.2       1 BC21215     0.0000 
     35 C30       -21.3380   32.7340   -5.7820 C.3       1 BC21215     0.0000 
     36 C15       -19.7430   33.6930   -4.0860 C.3       1 BC21215     0.0000 
     37 O31       -18.7630   32.6480   -3.9900 O.3       1 BC21215     0.0000 
     38 C32       -17.5420   32.6660   -4.7780 C.2       1 BC21215     0.0000 
     39 O33       -16.8250   31.6780   -4.6510 O.2       1 BC21215     0.0000 
     40 N34       -17.2090   33.6770   -5.5730 N.am      1 BC21215     0.0000 
     41 H         -24.4566   30.5353   -3.9467 H         1 BC21215     0.0000 
     42 H         -24.9433   33.0341   -7.4332 H         1 BC21215     0.0000 
     43 H         -26.1546   31.3035   -1.9003 H         1 BC21215     0.0000 
     44 H         -22.7707   33.3110   -2.5430 H         1 BC21215     0.0000 
     45 H         -22.9660   36.3111   -2.3239 H         1 BC21215     0.0000 
     46 H         -20.5911   36.3039   -2.9709 H         1 BC21215     0.0000 
     47 H         -21.0675   33.3573   -2.4279 H         1 BC21215     0.0000 
     48 H         -27.0454   35.5261   -5.6817 H         1 BC21215     0.0000 
     49 H         -25.7318   37.2606   -6.4910 H         1 BC21215     0.0000 
     50 H         -24.4527   36.7418   -8.2018 H         1 BC21215     0.0000 
     51 H         -24.0019   35.1276   -7.6262 H         1 BC21215     0.0000 
     52 H         -22.4322   36.5564   -6.0099 H         1 BC21215     0.0000 
     53 H         -20.8691   37.0835   -8.0029 H         1 BC21215     0.0000 
     54 H         -21.6862   34.1895   -7.5994 H         1 BC21215     0.0000 
     55 H         -19.6143   35.7090   -6.0150 H         1 BC21215     0.0000 
     56 H         -18.8728   34.6855   -4.2264 H         1 BC21215     0.0000 
     57 H         -17.8454   34.4481   -5.5943 H         1 BC21215     0.0000 
     58 H         -16.3520   33.5756   -6.0783 H         1 BC21215     0.0000 
     59 H         -24.8775   35.3533    0.2250 H         1 BC21215     0.0000 
     60 H         -24.2726   36.2301   -0.9798 H         1 BC21215     0.0000 
     61 H         -25.7685   35.6485   -1.0808 H         1 BC21215     0.0000 
     62 H         -18.7419   33.2964   -1.6410 H         1 BC21215     0.0000 
     63 H         -18.6093   34.8974   -1.7143 H         1 BC21215     0.0000 
     64 H         -19.6828   34.2241   -0.7242 H         1 BC21215     0.0000 
     65 H         -28.1861   34.4022   -8.7046 H         1 BC21215     0.0000 
     66 H         -28.0702   33.6663   -7.2793 H         1 BC21215     0.0000 
     67 H         -28.5694   35.1931   -7.3578 H         1 BC21215     0.0000 
     68 H         -24.1050   35.8275   -4.4044 H         1 BC21215     0.0000 
     69 H         -23.8767   37.3536   -4.8570 H         1 BC21215     0.0000 
     70 H         -25.2680   36.9153   -4.1800 H         1 BC21215     0.0000 
     71 H         -20.9574   38.7880   -7.1142 H         1 BC21215     0.0000 
     72 H         -22.0643   39.9517   -7.0322 H         1 BC21215     0.0000 
     73 H         -21.8225   38.9818   -5.7725 H         1 BC21215     0.0000 
     74 H         -20.7458   36.9580  -10.3592 H         1 BC21215     0.0000 
     75 H         -22.1613   36.8810  -11.1185 H         1 BC21215     0.0000 
     76 H         -21.9211   37.9863   -9.9753 H         1 BC21215     0.0000 
     77 H         -19.1510   35.2768   -8.6912 H         1 BC21215     0.0000 
     78 H         -19.4233   33.7263   -8.3628 H         1 BC21215     0.0000 
     79 H         -20.2661   34.4639   -9.5169 H         1 BC21215     0.0000 
     80 H         -21.0409   32.2784   -6.6212 H         1 BC21215     0.0000 
     81 H         -21.3768   32.0356   -5.0673 H         1 BC21215     0.0000 
     82 H         -22.2747   33.0489   -5.9353 H         1 BC21215     0.0000 
@<TRIPOS>BOND
     1    2    1 2    
     2    3    2 1    
     3   18    2 1    
     4    4    3 2    
     5    8    3 1    
     6    5    4 1    
     7   41    4 1    
     8    6    5 2    
     9    7    5 1    
    10   18    7 2    
    11   42    7 1    
    12    9    8 am   
    13   43    8 1    
    14   10    9 2    
    15   11    9 1    
    16   12   11 1    
    17   13   11 2    
    18   59   12 1    
    19   60   12 1    
    20   61   12 1    
    21   14   13 1    
    22   44   13 1    
    23   15   14 2    
    24   45   14 1    
    25   16   15 1    
    26   46   15 1    
    27   17   16 1    
    28   36   16 1    
    29   47   16 1    
    30   62   17 1    
    31   63   17 1    
    32   64   17 1    
    33   19   18 1    
    34   20   19 1    
    35   22   19 1    
    36   48   19 1    
    37   21   20 1    
    38   65   21 1    
    39   66   21 1    
    40   67   21 1    
    41   23   22 1    
    42   24   22 1    
    43   49   22 1    
    44   68   23 1    
    45   69   23 1    
    46   70   23 1    
    47   25   24 1    
    48   50   24 1    
    49   51   24 1    
    50   26   25 1    
    51   28   25 1    
    52   52   25 1    
    53   27   26 1    
    54   71   27 1    
    55   72   27 1    
    56   73   27 1    
    57   29   28 1    
    58   31   28 1    
    59   53   28 1    
    60   30   29 1    
    61   74   30 1    
    62   75   30 1    
    63   76   30 1    
    64   32   31 1    
    65   33   31 1    
    66   54   31 1    
    67   77   32 1    
    68   78   32 1    
    69   79   32 1    
    70   34   33 2    
    71   55   33 1    
    72   35   34 1    
    73   36   34 1    
    74   80   35 1    
    75   81   35 1    
    76   82   35 1    
    77   37   36 1    
    78   56   36 1    
    79   38   37 1    
    80   39   38 2    
    81   40   38 am   
    82   57   40 1    
    83   58   40 1    
@<TRIPOS>SUBSTRUCTURE
     1 BC21215     1 GROUP   
@<TRIPOS>SET

