#    Name: 2NVD_1_CAVITY_N1_ALL.mol2
#    Modification time : Tue Mar 11 00:56:44 2014

@<TRIPOS>MOLECULE
2NVD_1_CAVITY_N1_ALL.mol2
   96     0     5     0     0
SMALL
NO_CHARGES


@<TRIPOS>ATOM
      1 DU         21.8184   -9.4774   11.2663 H         5 CUB7        0.0000 
      2 OG         20.4137   -9.7626   10.8241 O.2       1 SER1        0.0000 
      3 N          25.1814   -9.3367   15.7574 N.2       2 ALA2        0.0000 
      4 DU         23.7767   -9.6220   15.3152 H         5 CUB7        0.0000 
      5 DU         23.9546   -8.6931   14.1510 H         5 CUB7        0.0000 
      6 CA         22.1942  -10.8362   16.0373 C.3       4 GLY6        0.0000 
      7 DU         22.3721   -9.9073   14.8731 H         5 CUB7        0.0000 
      8 DU         22.5499   -8.9784   13.7088 H         5 CUB7        0.0000 
      9 DU         22.7278   -8.0494   12.5446 H         5 CUB7        0.0000 
     10 DU         20.9674  -10.1925   14.4309 H         5 CUB7        0.0000 
     11 DU         19.3849  -11.4067   15.1529 H         5 CUB7        0.0000 
     12 DU         19.7406   -9.5489   12.8244 H         5 CUB7        0.0000 
     13 CA         19.9184   -8.6200   11.6602 C.3       4 GLY6        0.0000 
     14 DU         17.9802  -11.6920   14.7107 H         5 CUB7        0.0000 
     15 CZ         18.1581  -10.7631   13.5465 C.ar      3 PHE5        0.0000 
     16 CZ         18.3359   -9.8342   12.3822 C.ar      3 PHE5        0.0000 
     17 CA         18.5138   -8.9052   11.2180 C.3       4 GLY6        0.0000 
     18 CZ         15.1709  -12.2625   13.8263 C.ar      3 PHE5        0.0000 
     19 N          24.6861   -8.1941   16.5935 N.2       2 ALA2        0.0000 
     20 CA         23.1036   -9.4083   17.3156 C.3       4 GLY6        0.0000 
     21 N          23.2815   -8.4793   16.1513 N.2       2 ALA2        0.0000 
     22 N          23.4593   -7.5504   14.9871 N.2       2 ALA2        0.0000 
     23 N          23.6372   -6.6215   13.8228 N.2       2 ALA2        0.0000 
     24 CA         21.6989   -9.6935   16.8734 C.3       4 GLY6        0.0000 
     25 DU         21.8768   -8.7646   15.7091 H         5 CUB7        0.0000 
     26 DU         22.0547   -7.8357   14.5449 H         5 CUB7        0.0000 
     27 O          22.2325   -6.9067   13.3806 O.2       2 ALA2        0.0000 
     28 CZ         20.2943   -9.9788   16.4312 C.ar      3 PHE5        0.0000 
     29 DU         20.4721   -9.0499   15.2669 H         5 CUB7        0.0000 
     30 DU         20.6500   -8.1209   14.1027 H         5 CUB7        0.0000 
     31 O          20.8278   -7.1920   12.9384 O.2       2 ALA2        0.0000 
     32 CZ         18.7117  -11.1930   17.1532 C.ar      3 PHE5        0.0000 
     33 CZ         18.8896  -10.2641   15.9890 C.ar      3 PHE5        0.0000 
     34 DU         19.0675   -9.3351   14.8247 H         5 CUB7        0.0000 
     35 CA         19.2453   -8.4062   13.6605 C.3       4 GLY6        0.0000 
     36 CA         19.4232   -7.4773   12.4962 C.3       4 GLY6        0.0000 
     37 O          17.1292  -12.4072   17.8753 O.2       2 ALA2        0.0000 
     38 O          17.3071  -11.4783   16.7110 O.2       2 ALA2        0.0000 
     39 DU         17.4849  -10.5493   15.5468 H         5 CUB7        0.0000 
     40 CZ         17.6628   -9.6204   14.3825 C.ar      3 PHE5        0.0000 
     41 CA         17.8407   -8.6915   13.2183 C.3       4 GLY6        0.0000 
     42 DU         15.9024  -11.7635   16.2688 H         5 CUB7        0.0000 
     43 CZ         16.0803  -10.8346   15.1046 C.ar      3 PHE5        0.0000 
     44 CZ         16.2581   -9.9057   13.9403 C.ar      3 PHE5        0.0000 
     45 N          14.3199  -12.9777   16.9909 N.2       2 ALA2        0.0000 
     46 CA         14.4978  -12.0488   15.8266 C.3       4 GLY6        0.0000 
     47 CZ         14.6756  -11.1199   14.6624 C.ar      3 PHE5        0.0000 
     48 CA         22.6083   -8.2656   18.1516 C.3       4 GLY6        0.0000 
     49 N          22.7862   -7.3366   16.9874 N.2       2 ALA2        0.0000 
     50 CZ         21.2037   -8.5508   17.7094 C.ar      3 PHE5        0.0000 
     51 CA         21.3815   -7.6219   16.5452 C.3       4 GLY6        0.0000 
     52 CA         21.5594   -6.6930   15.3809 C.3       4 GLY6        0.0000 
     53 CZ         19.7990   -8.8361   17.2672 C.ar      3 PHE5        0.0000 
     54 CA         19.9769   -7.9072   16.1030 C.3       4 GLY6        0.0000 
     55 CA         20.1547   -6.9783   14.9387 C.3       4 GLY6        0.0000 
     56 O          20.3326   -6.0493   13.7745 O.2       2 ALA2        0.0000 
     57 CZ         18.3943   -9.1214   16.8250 C.ar      3 PHE5        0.0000 
     58 DU         18.5722   -8.1925   15.6608 H         5 CUB7        0.0000 
     59 CA         18.7501   -7.2635   14.4965 C.3       4 GLY6        0.0000 
     60 CA         18.9279   -6.3346   13.3323 C.3       4 GLY6        0.0000 
     61 O          16.9897   -9.4066   16.3828 O.2       2 ALA2        0.0000 
     62 DU         17.1675   -8.4777   15.2186 H         5 CUB7        0.0000 
     63 CA         17.3454   -7.5488   14.0543 C.3       4 GLY6        0.0000 
     64 O          15.2293  -11.5498   18.2691 O.2       2 ALA2        0.0000 
     65 O          15.4072  -10.6208   17.1049 O.2       2 ALA2        0.0000 
     66 DU         15.5850   -9.6919   15.9406 H         5 CUB7        0.0000 
     67 CZ         15.7629   -8.7630   14.7764 C.ar      3 PHE5        0.0000 
     68 CZ         15.9407   -7.8341   13.6121 C.ar      3 PHE5        0.0000 
     69 N          13.8246  -11.8350   17.8269 N.2       2 ALA2        0.0000 
     70 CA         14.0025  -10.9061   16.6627 C.3       4 GLY6        0.0000 
     71 CA         14.1803   -9.9772   15.4984 C.3       4 GLY6        0.0000 
     72 CZ         22.1131   -7.1229   18.9877 C.ar      3 PHE5        0.0000 
     73 CA         22.2909   -6.1940   17.8234 C.3       4 GLY6        0.0000 
     74 CZ         20.7084   -7.4082   18.5455 C.ar      3 PHE5        0.0000 
     75 CA         20.8863   -6.4792   17.3812 C.3       4 GLY6        0.0000 
     76 CZ         19.3038   -7.6934   18.1033 C.ar      3 PHE5        0.0000 
     77 CA         19.4816   -6.7645   16.9390 C.3       4 GLY6        0.0000 
     78 O          17.8991   -7.9787   17.6611 O.2       2 ALA2        0.0000 
     79 CA         18.0769   -7.0498   16.4968 C.3       4 GLY6        0.0000 
     80 CA         18.2548   -6.1208   15.3326 C.3       4 GLY6        0.0000 
     81 O          16.4944   -8.2640   17.2189 O.2       2 ALA2        0.0000 
     82 DU         16.6723   -7.3350   16.0546 H         5 CUB7        0.0000 
     83 CZ         16.8501   -6.4061   14.8904 C.ar      3 PHE5        0.0000 
     84 O          14.9119   -9.4782   17.9409 O.2       2 ALA2        0.0000 
     85 CA         15.0898   -8.5492   16.7767 C.3       4 GLY6        0.0000 
     86 CZ         15.2676   -7.6203   15.6124 C.ar      3 PHE5        0.0000 
     87 O          15.4455   -6.6914   14.4482 O.2       2 ALA2        0.0000 
     88 CA         13.6851   -8.8345   16.3345 C.3       4 GLY6        0.0000 
     89 CA         20.2132   -6.2655   19.3815 C.3       4 GLY6        0.0000 
     90 CA         18.8085   -6.5507   18.9393 C.3       4 GLY6        0.0000 
     91 O          17.4038   -6.8360   18.4971 O.2       2 ALA2        0.0000 
     92 CA         17.5817   -5.9071   17.3329 C.3       4 GLY6        0.0000 
     93 O          15.9992   -7.1213   18.0550 O.2       2 ALA2        0.0000 
     94 O          16.1770   -6.1924   16.8907 O.2       2 ALA2        0.0000 
     95 N          14.5945   -7.4065   17.6128 N.2       2 ALA2        0.0000 
     96 N          14.7724   -6.4776   16.4485 N.2       2 ALA2        0.0000 
@<TRIPOS>BOND
@<TRIPOS>SUBSTRUCTURE
     1 SER1        2 GROUP   
     2 ALA2        3 GROUP   
     3 PHE5       15 GROUP   
     4 GLY6        6 GROUP   
     5 CUB7        1 GROUP   
@<TRIPOS>SET

