#    Name: 2nvd_ITB_1_INTS_M
#    Modification time : Tue Mar 25 21:41:19 2014

@<TRIPOS>MOLECULE
2nvd_ITB_1_INTS_M
   35     0     6     0     0
SMALL
NO_CHARGES


@<TRIPOS>ATOM
      1 CA         14.4750   -8.6675   14.4225 C.3       2 GLC5        0.0000 
      2 CA         16.2290   -9.6320   15.2150 C.3       6 GLL5        0.0000 
      3 CA         12.7210   -7.7030   13.6300 C.3       4 GLP5        0.0000 
      4 CA         15.4425  -10.1335   13.5450 C.3       2 GLC5        0.0000 
      5 CA         14.6560  -10.6350   11.8750 C.3       4 GLP5        0.0000 
      6 N          17.0240  -10.6390   18.5045 N.am      1 SEC2        0.0000 
      7 N          16.7830  -11.1320   17.1170 N.am      5 SEL2        0.0000 
      8 N          17.2650  -10.1460   19.8920 N.am      3 SEP2        0.0000 
      9 N          14.9765   -5.3675   15.4300 N.am      1 SEC2        0.0000 
     10 N          15.3920   -6.5870   16.3580 N.am      5 SEL2        0.0000 
     11 N          14.5610   -4.1480   14.5020 N.am      3 SEP2        0.0000 
     12 N          14.5205   -5.7840   20.5115 N.am      1 SEC2        0.0000 
     13 N          15.2200   -5.9520   19.0520 N.am      5 SEL2        0.0000 
     14 N          13.8210   -5.6160   21.9710 N.am      3 SEP2        0.0000 
     15 N          14.0885   -5.3555   18.5735 N.am      1 SEC2        0.0000 
     16 N          12.9570   -4.7590   18.0950 N.am      3 SEP2        0.0000 
     17 CA         23.5955   -5.4180   19.3395 C.3       2 GLC5        0.0000 
     18 CA         22.2680   -7.0800   19.1080 C.3       6 GLL5        0.0000 
     19 CA         24.9230   -3.7560   19.5710 C.3       4 GLP5        0.0000 
     20 CA         18.6258   -5.6497   17.6258 C.3       2 GLC5        0.0000 
     21 CA         17.3860   -7.3950   17.8880 C.3       6 GLL5        0.0000 
     22 CA         19.8520   -4.2230   16.7490 C.3       4 GLP5        0.0000 
     23 CA         17.3603   -7.5453   21.2555 C.3       2 GLC5        0.0000 
     24 CA         18.7000   -6.6170   19.5790 C.3       6 GLL5        0.0000 
     25 CA         16.6640   -8.4030   23.1630 C.3       4 GLP5        0.0000 
     26 CA         23.0380   -6.4943   21.0280 C.3       2 GLC5        0.0000 
     27 CA         21.1040   -6.6730   19.7520 C.3       6 GLL5        0.0000 
     28 CA         24.3900   -6.1120   22.6260 C.3       4 GLP5        0.0000 
     29 CA         20.0289   -5.4761   18.1415 C.3       2 GLC5        0.0000 
     30 CA         23.5663   -8.4465   19.2912 C.3       2 GLC5        0.0000 
     31 CA         24.8840   -9.4870   20.0970 C.3       4 GLP5        0.0000 
     32 CA         21.8622   -5.4820   17.7702 C.3       2 GLC5        0.0000 
     33 CA         21.4760   -3.5580   17.0550 C.3       4 GLP5        0.0000 
     34 CA         19.9824   -6.0360   17.0645 C.3       2 GLC5        0.0000 
     35 CA         21.0230   -7.9990   17.2120 C.3       6 GLL5        0.0000 
@<TRIPOS>BOND
@<TRIPOS>SUBSTRUCTURE
     1 SEC2        6 GROUP        1 X    SEC  0     ROOT SEC X 2
     2 GLC5        1 GROUP        1 X    GLC  0     **** GLC X 6
     3 SEP2        8 GROUP        1 Y    SEP  0     ROOT SEP Y 9
     4 GLP5        3 GROUP        1 Y    GLP  0     **** GLP Y 13
     5 SEL2        7 GROUP        1 Z    SEL  0     ROOT SEL Z 16
     6 GLL5        2 GROUP        1 Z    GLL  0     **** GLL Z 20
@<TRIPOS>SET

