#    Name: 2nvd_ITB_1_ligand
#    Modification time : Tue Mar 25 21:41:20 2014

@<TRIPOS>MOLECULE
2nvd_ITB_1_ligand
   30    32     1     0     0
SMALL
NO_CHARGES


@<TRIPOS>ATOM
      1 C1         19.8410   -7.6060   17.8070 C.ar      1 ITB600      0.0000 
      2 C10        18.5640   -7.7920   17.2890 C.ar      1 ITB600      0.0000 
      3 C14        18.1520   -8.4940   16.0210 C.2       1 ITB600      0.0000 
      4 O19        19.0520   -8.8920   15.2770 O.2       1 ITB600      0.0000 
      5 N15        16.8210   -8.4450   15.8300 N.am      1 ITB600      0.0000 
      6 C20        16.2290   -9.6320   15.2150 C.3       1 ITB600      0.0000 
      7 C21        16.3040  -10.9670   15.8770 C.2       1 ITB600      0.0000 
      8 O23        16.7830  -11.1320   17.1170 O.co2     1 ITB600      0.0000 
      9 O22        15.9140  -11.9900   15.2800 O.co2     1 ITB600      0.0000 
     10 S16        15.9550   -7.8040   16.9280 S.o2      1 ITB600      0.0000 
     11 O18        15.3920   -6.5870   16.3580 O.2       1 ITB600      0.0000 
     12 O17        15.0970   -8.7270   17.6390 O.2       1 ITB600      0.0000 
     13 C9         17.3860   -7.3950   17.8880 C.ar      1 ITB600      0.0000 
     14 C8         17.4130   -6.7580   19.1170 C.ar      1 ITB600      0.0000 
     15 C11        16.2300   -6.2390   19.8810 C.2       1 ITB600      0.0000 
     16 O13        15.2200   -5.9520   19.0520 O.co2     1 ITB600      0.0000 
     17 O12        16.0870   -6.0430   21.0620 O.co2     1 ITB600      0.0000 
     18 C7         18.7000   -6.6170   19.5790 C.ar      1 ITB600      0.0000 
     19 C6         19.9150   -6.9540   19.0530 C.ar      1 ITB600      0.0000 
     20 C5         21.1040   -6.6730   19.7520 C.ar      1 ITB600      0.0000 
     21 C4         22.2680   -7.0800   19.1080 C.ar      1 ITB600      0.0000 
     22 C3         22.2290   -7.7320   17.8630 C.ar      1 ITB600      0.0000 
     23 C2         21.0230   -7.9990   17.2120 C.ar      1 ITB600      0.0000 
     24 H          16.6521   -9.7470   14.1552 H         1 ITB600      0.0000 
     25 H          15.1246   -9.4182   14.9911 H         1 ITB600      0.0000 
     26 H          18.7621   -6.1271   20.5900 H         1 ITB600      0.0000 
     27 H          21.1033   -6.2213   20.6316 H         1 ITB600      0.0000 
     28 H          23.1877   -6.9015   19.5507 H         1 ITB600      0.0000 
     29 H          23.1211   -8.0204   17.4202 H         1 ITB600      0.0000 
     30 H          21.0231   -8.4782   16.3095 H         1 ITB600      0.0000 
@<TRIPOS>BOND
     1    2    1 ar   
     2   19    1 ar   
     3   23    1 ar   
     4    3    2 1    
     5   13    2 ar   
     6    4    3 2    
     7    5    3 am   
     8    6    5 1    
     9   10    5 1    
    10    7    6 1    
    11   24    6 1    
    12   25    6 1    
    13    8    7 ar   
    14    9    7 ar   
    15   11   10 2    
    16   12   10 2    
    17   13   10 1    
    18   14   13 ar   
    19   15   14 1    
    20   18   14 ar   
    21   16   15 ar   
    22   17   15 ar   
    23   19   18 ar   
    24   26   18 1    
    25   20   19 ar   
    26   21   20 ar   
    27   27   20 1    
    28   22   21 ar   
    29   28   21 1    
    30   23   22 ar   
    31   29   22 1    
    32   30   23 1    
@<TRIPOS>SUBSTRUCTURE
     1 ITB600      1 GROUP   
@<TRIPOS>SET

