#    Name: 3zns_NU7_3_INTS_M
#    Modification time : Tue Mar 25 03:44:12 2014

@<TRIPOS>MOLECULE
3zns_NU7_3_INTS_M
   70     0     6     0     0
SMALL
NO_CHARGES


@<TRIPOS>ATOM
      1 CA         44.4300  -22.2675    8.6580 C.3       2 GLC5        0.0000 
      2 CA         44.8620  -23.9780    9.2410 C.3       6 GLL5        0.0000 
      3 CA         43.9980  -20.5570    8.0750 C.3       4 GLP5        0.0000 
      4 CA         43.4795  -22.8000   10.2805 C.3       2 GLC5        0.0000 
      5 CA         42.0970  -21.6220   11.3200 C.3       4 GLP5        0.0000 
      6 CA         46.4720  -23.1075    5.8400 C.3       2 GLC5        0.0000 
      7 CA         46.2300  -23.2190    7.7420 C.3       6 GLL5        0.0000 
      8 CA         46.7140  -22.9960    3.9380 C.3       4 GLP5        0.0000 
      9 CA         47.0330  -21.4655    7.6610 C.3       2 GLC5        0.0000 
     10 CA         47.8360  -19.7120    7.5800 C.3       4 GLP5        0.0000 
     11 CA         45.4480  -22.0000    8.9385 C.3       2 GLC5        0.0000 
     12 CA         46.8980  -23.4430    9.8020 C.3       6 GLL5        0.0000 
     13 CA         47.3670  -21.5775    8.6910 C.3       2 GLC5        0.0000 
     14 Zn         46.1705  -26.6140   10.0955 Zn        1 ZIC7        0.0000 
     15 Zn         45.9950  -26.5450    8.8200 Zn        5 ZIL7        0.0000 
     16 Zn         46.3460  -26.6830   11.3710 Zn        3 ZIP7        0.0000 
     17 CA         49.4015  -28.2045    8.9635 C.3       2 GLC5        0.0000 
     18 CA         48.9710  -27.6010    6.9750 C.3       6 GLL5        0.0000 
     19 CA         49.8320  -28.8080   10.9520 C.3       4 GLP5        0.0000 
     20 CA         47.1860  -30.2315    7.0380 C.3       2 GLC5        0.0000 
     21 CA         48.8480  -28.9120    6.5030 C.3       6 GLL5        0.0000 
     22 CA         45.5240  -31.5510    7.5730 C.3       4 GLP5        0.0000 
     23 CA         47.7385  -28.9560    1.9060 C.3       2 GLC5        0.0000 
     24 CA         48.1700  -31.0290    1.5950 C.3       6 GLL5        0.0000 
     25 CA         47.3070  -26.8830    2.2170 C.3       4 GLP5        0.0000 
     26 CA         42.0400  -31.4315    4.5245 C.3       2 GLC5        0.0000 
     27 CA         44.0400  -31.3390    4.3370 C.3       6 GLL5        0.0000 
     28 CA         40.0400  -31.5240    4.7120 C.3       4 GLP5        0.0000 
     29 CA         44.4575  -31.5860    2.1295 C.3       2 GLC5        0.0000 
     30 CA         44.9530  -32.6660    3.6050 C.3       6 GLL5        0.0000 
     31 CA         43.9620  -30.5060    0.6540 C.3       4 GLP5        0.0000 
     32 CA         43.9520  -25.7170    4.0130 C.3       2 GLC5        0.0000 
     33 CA         45.0060  -26.7410    5.6680 C.3       6 GLL5        0.0000 
     34 CA         42.8980  -24.6930    2.3580 C.3       4 GLP5        0.0000 
     35 CA         45.8600  -24.8685    4.8030 C.3       2 GLC5        0.0000 
     36 CA         43.1135  -25.0320    4.5925 C.3       2 GLC5        0.0000 
     37 CA         43.6520  -26.3900    5.7230 C.3       6 GLL5        0.0000 
     38 CA         42.5750  -23.6740    3.4620 C.3       4 GLP5        0.0000 
     39 CA         40.7445  -26.5550    4.8805 C.3       2 GLC5        0.0000 
     40 CA         42.6800  -27.3040    5.2980 C.3       6 GLL5        0.0000 
     41 CA         38.8090  -25.8060    4.4630 C.3       4 GLP5        0.0000 
     42 CA         43.9733  -24.6138    9.5853 C.3       2 GLC5        0.0000 
     43 CA         42.4510  -25.2640   10.1270 C.3       4 GLP5        0.0000 
     44 CA         45.1977  -22.3960    7.5340 C.3       2 GLC5        0.0000 
     45 CA         46.1290  -23.9490    8.8460 C.3       6 GLL5        0.0000 
     46 CA         44.2160  -21.2080    6.7740 C.3       4 GLP5        0.0000 
     47 CA         47.0733  -22.4935   10.5990 C.3       2 GLC5        0.0000 
     48 CA         47.6330  -21.2910   11.8740 C.3       4 GLP5        0.0000 
     49 CA         48.1604  -23.1593    9.1460 C.3       2 GLC5        0.0000 
     50 CA         49.7820  -22.8050    9.2440 C.3       4 GLP5        0.0000 
     51 CA         50.8422  -25.1887    5.6720 C.3       2 GLC5        0.0000 
     52 CA         50.1500  -26.8770    6.7330 C.3       6 GLL5        0.0000 
     53 CA         51.0050  -23.2040    4.9610 C.3       4 GLP5        0.0000 
     54 CA         52.4168  -28.4557    7.3788 C.3       2 GLC5        0.0000 
     55 CA         51.2090  -27.4700    6.0330 C.3       6 GLL5        0.0000 
     56 CA         53.6830  -28.7850    8.9570 C.3       4 GLP5        0.0000 
     57 CA         45.9370  -31.0440    1.3635 C.3       2 GLC5        0.0000 
     58 CA         43.6565  -30.4030    2.8987 C.3       2 GLC5        0.0000 
     59 CA         44.8400  -30.2610    4.2560 C.3       6 GLL5        0.0000 
     60 CA         42.8730  -30.0060    1.5010 C.3       4 GLP5        0.0000 
     61 CA         44.0233  -32.5343    5.6195 C.3       2 GLC5        0.0000 
     62 CA         43.5500  -33.0660    7.2680 C.3       4 GLP5        0.0000 
     63 CA         43.3070  -29.3758    3.1465 C.3       2 GLC5        0.0000 
     64 CA         44.4210  -28.9260    4.7650 C.3       6 GLL5        0.0000 
     65 CA         45.2671  -30.1749    6.2119 C.3       2 GLC5        0.0000 
     66 CA         42.2967  -26.7713    3.5187 C.3       2 GLC5        0.0000 
     67 CA         43.0610  -28.5650    4.8190 C.3       6 GLL5        0.0000 
     68 CA         41.7230  -25.6080    1.9790 C.3       4 GLP5        0.0000 
     69 CA         41.6387  -29.5098    5.5772 C.3       2 GLC5        0.0000 
     70 CA         40.4070  -31.0850    6.0960 C.3       4 GLP5        0.0000 
@<TRIPOS>BOND
@<TRIPOS>SUBSTRUCTURE
     1 ZIC7       14 GROUP        1 X    ZIC  0     ROOT ZIC X 5
     2 GLC5        1 GROUP        1 X    GLC  0     **** GLC X 6
     3 ZIP7       16 GROUP        1 Y    ZIP  0     ROOT ZIP Y 12
     4 GLP5        3 GROUP        1 Y    GLP  0     **** GLP Y 13
     5 ZIL7       15 GROUP        1 Z    ZIL  0     ROOT ZIL Z 19
     6 GLL5        2 GROUP        1 Z    GLL  0     **** GLL Z 20
@<TRIPOS>SET

