#    Name: 3zns_NU7_3_ligand
#    Modification time : Tue Mar 25 03:44:12 2014

@<TRIPOS>MOLECULE
3zns_NU7_3_ligand
   62    66     1     0     0
SMALL
NO_CHARGES


@<TRIPOS>ATOM
      1 C1         47.9140  -32.4420   -1.0150 C.3       1 NU71900     0.0000 
      2 N2         48.9880  -32.7250   -0.0460 N.4       1 NU71900     0.0000 
      3 F01        44.8620  -23.9780    9.2410 F         1 NU71900     0.0000 
      4 C02        46.1290  -23.9490    8.8460 C.3       1 NU71900     0.0000 
      5 F03        46.2300  -23.2190    7.7420 F         1 NU71900     0.0000 
      6 F04        46.8980  -23.4430    9.8020 F         1 NU71900     0.0000 
      7 C05        46.6070  -25.3330    8.5090 C.2       1 NU71900     0.0000 
      8 N06        47.7090  -25.5790    7.8350 N.2       1 NU71900     0.0000 
      9 C07        47.8530  -26.9580    7.6960 C.2       1 NU71900     0.0000 
     10 N08        46.8180  -27.5440    8.2760 N.2       1 NU71900     0.0000 
     11 O09        45.9950  -26.5450    8.8200 O.3       1 NU71900     0.0000 
     12 C10        48.9710  -27.6010    6.9750 C.ar      1 NU71900     0.0000 
     13 C11        50.1500  -26.8770    6.7330 C.ar      1 NU71900     0.0000 
     14 C12        51.2090  -27.4700    6.0330 C.ar      1 NU71900     0.0000 
     15 C13        51.0920  -28.7830    5.5680 C.ar      1 NU71900     0.0000 
     16 C14        49.9160  -29.5030    5.8150 C.ar      1 NU71900     0.0000 
     17 C15        48.8480  -28.9120    6.5030 C.ar      1 NU71900     0.0000 
     18 C16        49.7850  -30.8790    5.3050 C.2       1 NU71900     0.0000 
     19 O17        50.5840  -31.7600    5.6200 O.2       1 NU71900     0.0000 
     20 N18        48.7920  -31.0870    4.4510 N.am      1 NU71900     0.0000 
     21 C19        48.6190  -32.3550    3.7220 C.3       1 NU71900     0.0000 
     22 C20        47.6540  -32.1350    2.5510 C.3       1 NU71900     0.0000 
     23 C21        47.4210  -33.4590    1.7880 C.3       1 NU71900     0.0000 
     24 C22        48.5940  -33.8270    0.8520 C.3       1 NU71900     0.0000 
     25 C24        49.3320  -31.5040    0.6990 C.3       1 NU71900     0.0000 
     26 C25        48.1700  -31.0290    1.5950 C.3       1 NU71900     0.0000 
     27 C26        46.3730  -31.6840    3.2190 C.2       1 NU71900     0.0000 
     28 N27        46.0910  -30.4660    3.6520 N.2       1 NU71900     0.0000 
     29 C28        44.8400  -30.2610    4.2560 C.2       1 NU71900     0.0000 
     30 C29        44.0400  -31.3390    4.3370 C.2       1 NU71900     0.0000 
     31 S30        44.9530  -32.6660    3.6050 S.3       1 NU71900     0.0000 
     32 C31        44.4210  -28.9260    4.7650 C.ar      1 NU71900     0.0000 
     33 C32        45.3900  -28.0040    5.1910 C.ar      1 NU71900     0.0000 
     34 C33        45.0060  -26.7410    5.6680 C.ar      1 NU71900     0.0000 
     35 C34        43.6520  -26.3900    5.7230 C.ar      1 NU71900     0.0000 
     36 C35        42.6800  -27.3040    5.2980 C.ar      1 NU71900     0.0000 
     37 C36        43.0610  -28.5650    4.8190 C.ar      1 NU71900     0.0000 
     38 H          49.8783  -33.0452   -0.6145 H         1 NU71900     0.0000 
     39 H          50.2344  -25.9124    7.0700 H         1 NU71900     0.0000 
     40 H          52.0698  -26.9393    5.8625 H         1 NU71900     0.0000 
     41 H          51.8599  -29.2168    5.0502 H         1 NU71900     0.0000 
     42 H          47.9845  -29.4367    6.6585 H         1 NU71900     0.0000 
     43 H          48.0694  -30.3578    4.2443 H         1 NU71900     0.0000 
     44 H          48.2017  -33.1210    4.3716 H         1 NU71900     0.0000 
     45 H          49.5685  -32.7049    3.3234 H         1 NU71900     0.0000 
     46 H          46.5074  -33.3693    1.1935 H         1 NU71900     0.0000 
     47 H          47.2792  -34.2655    2.5130 H         1 NU71900     0.0000 
     48 H          49.4446  -34.1341    1.4837 H         1 NU71900     0.0000 
     49 H          48.2929  -34.7130    0.2679 H         1 NU71900     0.0000 
     50 H          49.5829  -30.6860    0.0100 H         1 NU71900     0.0000 
     51 H          50.2061  -31.6744    1.3422 H         1 NU71900     0.0000 
     52 H          48.5051  -30.1763    2.1923 H         1 NU71900     0.0000 
     53 H          47.3424  -30.6981    0.9611 H         1 NU71900     0.0000 
     54 H          43.2383  -31.5831    4.6273 H         1 NU71900     0.0000 
     55 H          46.3846  -28.2548    5.1535 H         1 NU71900     0.0000 
     56 H          45.7217  -26.0737    5.9772 H         1 NU71900     0.0000 
     57 H          43.3735  -25.4695    6.0722 H         1 NU71900     0.0000 
     58 H          41.6867  -27.0507    5.3370 H         1 NU71900     0.0000 
     59 H          42.3463  -29.2315    4.5050 H         1 NU71900     0.0000 
     60 H          48.1606  -31.6980   -1.6360 H         1 NU71900     0.0000 
     61 H          47.7051  -33.2393   -1.5812 H         1 NU71900     0.0000 
     62 H          47.0644  -32.1748   -0.5602 H         1 NU71900     0.0000 
@<TRIPOS>BOND
     1    2    1 1    
     2   60    1 1    
     3   61    1 1    
     4   62    1 1    
     5   24    2 1    
     6   25    2 1    
     7   38    2 1    
     8    4    3 1    
     9    5    4 1    
    10    6    4 1    
    11    7    4 1    
    12    8    7 2    
    13   11    7 1    
    14    9    8 1    
    15   10    9 2    
    16   12    9 1    
    17   11   10 1    
    18   13   12 ar   
    19   17   12 ar   
    20   14   13 ar   
    21   39   13 1    
    22   15   14 ar   
    23   40   14 1    
    24   16   15 ar   
    25   41   15 1    
    26   17   16 ar   
    27   18   16 1    
    28   42   17 1    
    29   19   18 2    
    30   20   18 am   
    31   21   20 1    
    32   43   20 1    
    33   22   21 1    
    34   44   21 1    
    35   45   21 1    
    36   23   22 1    
    37   26   22 1    
    38   27   22 1    
    39   24   23 1    
    40   46   23 1    
    41   47   23 1    
    42   48   24 1    
    43   49   24 1    
    44   26   25 1    
    45   50   25 1    
    46   51   25 1    
    47   52   26 1    
    48   53   26 1    
    49   28   27 2    
    50   31   27 1    
    51   29   28 1    
    52   30   29 2    
    53   32   29 1    
    54   31   30 1    
    55   54   30 1    
    56   33   32 ar   
    57   37   32 ar   
    58   34   33 ar   
    59   55   33 1    
    60   35   34 ar   
    61   56   34 1    
    62   36   35 ar   
    63   57   35 1    
    64   37   36 ar   
    65   58   36 1    
    66   59   37 1    
@<TRIPOS>SUBSTRUCTURE
     1 NU71900     1 GROUP   
@<TRIPOS>SET

