#    Name: 2z3e_VAL_LEU_ACE_Z3E_KCQ_1_INTS_M
#    Modification time : Tue Mar 25 09:54:07 2014

@<TRIPOS>MOLECULE
2z3e_VAL_LEU_ACE_Z3E_KCQ_1_INTS_M
   75     0     9     0     0
SMALL
NO_CHARGES


@<TRIPOS>ATOM
      1 CA        -17.2525    2.7915  -17.9730 C.3       3 GLC5        0.0000 
      2 CA        -18.3880    3.5560  -19.2700 C.3       9 GLL5        0.0000 
      3 CA        -16.1170    2.0270  -16.6760 C.3       6 GLP5        0.0000 
      4 CA        -16.9995    4.6030  -16.8810 C.3       3 GLC5        0.0000 
      5 CA        -18.3010    5.7400  -18.0250 C.3       9 GLL5        0.0000 
      6 CA        -15.6980    3.4660  -15.7370 C.3       6 GLP5        0.0000 
      7 CA        -16.5220    6.2380  -17.4010 C.3       3 GLC5        0.0000 
      8 CA        -14.7430    6.7360  -16.7770 C.3       6 GLP5        0.0000 
      9 CA        -18.8605    6.0660  -16.0915 C.3       3 GLC5        0.0000 
     10 CA        -19.4200    6.3920  -14.1580 C.3       6 GLP5        0.0000 
     11 CA        -16.1780    0.4740  -20.5640 C.3       3 GLC5        0.0000 
     12 CA        -17.3230   -0.2110  -22.0890 C.3       9 GLL5        0.0000 
     13 CA        -15.0330    1.1590  -19.0390 C.3       6 GLP5        0.0000 
     14 CA        -21.9555    1.1175  -19.8600 C.3       3 GLC5        0.0000 
     15 CA        -20.1630    0.3790  -20.1070 C.3       9 GLL5        0.0000 
     16 CA        -23.7480    1.8560  -19.6130 C.3       6 GLP5        0.0000 
     17 CA        -19.9335   -1.6730  -18.4115 C.3       3 GLC5        0.0000 
     18 CA        -18.4160   -0.8560  -18.5470 C.3       9 GLL5        0.0000 
     19 CA        -21.4510   -2.4900  -18.2760 C.3       6 GLP5        0.0000 
     20 CA        -18.6355   -1.1385  -16.4930 C.3       3 GLC5        0.0000 
     21 CA        -18.8550   -1.4210  -14.4390 C.3       6 GLP5        0.0000 
     22 CA        -19.2050    9.8415  -19.7955 C.3       3 GLC5        0.0000 
     23 CA        -21.2090    8.8530  -19.8740 C.3       9 GLL5        0.0000 
     24 CA        -17.2010   10.8300  -19.7170 C.3       6 GLP5        0.0000 
     25 CA        -21.7900    8.9835  -17.9120 C.3       3 GLC5        0.0000 
     26 CA        -22.3710    9.1140  -15.9500 C.3       6 GLP5        0.0000 
     27 O         -16.6595    4.7150  -21.5035 O.2       1 ALC1        0.0000 
     28 O         -17.9210    4.3340  -21.9960 O.2       7 ALL1        0.0000 
     29 O         -15.3980    5.0960  -21.0110 O.2       4 ALP1        0.0000 
     30 N         -14.7475    2.3930  -21.7145 N.am      2 SEC2        0.0000 
     31 N         -15.8950    1.9810  -22.4000 N.am      8 SEL2        0.0000 
     32 N         -13.6000    2.8050  -21.0290 N.am      5 SEP2        0.0000 
     33 CA        -14.8480    5.3835  -23.5105 C.3       3 GLC5        0.0000 
     34 CA        -16.5200    6.4930  -24.0630 C.3       9 GLL5        0.0000 
     35 CA        -13.1760    4.2740  -22.9580 C.3       6 GLP5        0.0000 
     36 CA        -14.9990    4.2010  -23.6385 C.3       3 GLC5        0.0000 
     37 CA        -16.8220    4.1280  -24.3190 C.3       9 GLL5        0.0000 
     38 N         -10.9250    0.5035  -22.5780 N.am      2 SEC2        0.0000 
     39 N         -11.5780    1.3890  -23.2880 N.am      8 SEL2        0.0000 
     40 N         -10.2720   -0.3820  -21.8680 N.am      5 SEP2        0.0000 
     41 O         -10.7775    2.0720  -26.4850 O.2       1 ALC1        0.0000 
     42 O         -11.8830    2.0470  -25.5260 O.2       7 ALL1        0.0000 
     43 O          -9.6720    2.0970  -27.4440 O.2       4 ALP1        0.0000 
     44 CA        -11.6550    1.0935  -27.9150 C.3       3 GLC5        0.0000 
     45 CA        -12.8770    2.0490  -26.6120 C.3       9 GLL5        0.0000 
     46 CA        -10.4330    0.1380  -29.2180 C.3       6 GLP5        0.0000 
     47 CA        -13.0265    3.1615  -24.7850 C.3       3 GLC5        0.0000 
     48 CA        -13.6835   -0.4970  -27.4125 C.3       3 GLC5        0.0000 
     49 CA        -13.8170    0.9770  -26.0630 C.3       9 GLL5        0.0000 
     50 CA        -13.5500   -1.9710  -28.7620 C.3       6 GLP5        0.0000 
     51 CA        -13.3080    2.4555  -23.7755 C.3       3 GLC5        0.0000 
     52 CA        -13.4400    0.6370  -24.5930 C.3       9 GLL5        0.0000 
     53 CA        -11.5335   -1.2720  -23.0885 C.3       3 GLC5        0.0000 
     54 CA        -13.1600   -0.8480  -24.3930 C.3       9 GLL5        0.0000 
     55 CA         -9.9070   -1.6960  -21.7840 C.3       6 GLP5        0.0000 
     56 CA        -14.3405   -3.3170  -23.2415 C.3       3 GLC5        0.0000 
     57 CA        -14.4910   -1.5490  -24.3040 C.3       9 GLL5        0.0000 
     58 CA        -14.1900   -5.0850  -22.1790 C.3       6 GLP5        0.0000 
     59 N         -13.5940   -3.9660  -26.4540 N.am      2 SEC2        0.0000 
     60 N         -13.7250   -3.6640  -24.9830 N.am      8 SEL2        0.0000 
     61 N         -13.4630   -4.2680  -27.9250 N.am      5 SEP2        0.0000 
     62 N         -12.4665   -4.3490  -24.3755 N.am      2 SEC2        0.0000 
     63 N         -11.2080   -5.0340  -23.7680 N.am      5 SEP2        0.0000 
     64 CA        -16.4420   -4.7175  -21.5580 C.3       3 GLC5        0.0000 
     65 CA        -15.0350   -3.6900  -22.9550 C.3       9 GLL5        0.0000 
     66 CA        -17.8490   -5.7450  -20.1610 C.3       6 GLP5        0.0000 
     67 CA        -14.6125   -4.3875  -22.5670 C.3       3 GLC5        0.0000 
     68 CA        -20.4480   -1.2147  -19.1627 C.3       3 GLC5        0.0000 
     69 CA        -18.7270   -0.2580  -19.9920 C.3       9 GLL5        0.0000 
     70 CA        -16.8023    0.3010  -19.1543 C.3       3 GLC5        0.0000 
     71 CA        -16.5945    9.4637  -22.8390 C.3       3 GLC5        0.0000 
     72 CA        -17.0540    7.8620  -24.4910 C.3       9 GLL5        0.0000 
     73 CA        -15.7160   10.6930  -21.6130 C.3       6 GLP5        0.0000 
     74 CA        -16.9630   10.4165  -23.1440 C.3       3 GLC5        0.0000 
     75 CA        -18.3780    9.8650  -24.0470 C.3       9 GLL5        0.0000 
@<TRIPOS>BOND
@<TRIPOS>SUBSTRUCTURE
     1 ALC1       27 GROUP        1 X    ALC  0     ROOT ALC X 1
     2 SEC2       30 GROUP        1 X    SEC  0     **** SEC X 2
     3 GLC5        1 GROUP        1 X    GLC  0     **** GLC X 6
     4 ALP1       29 GROUP        1 Y    ALP  0     ROOT ALP Y 8
     5 SEP2       32 GROUP        1 Y    SEP  0     **** SEP Y 9
     6 GLP5        3 GROUP        1 Y    GLP  0     **** GLP Y 13
     7 ALL1       28 GROUP        1 Z    ALL  0     ROOT ALL Z 15
     8 SEL2       31 GROUP        1 Z    SEL  0     **** SEL Z 16
     9 GLL5        2 GROUP        1 Z    GLL  0     **** GLL Z 20
@<TRIPOS>SET

