#    Name: 2z3e_VAL_LEU_ACE_Z3E_KCQ_1_ligand
#    Modification time : Tue Mar 25 09:54:07 2014

@<TRIPOS>MOLECULE
2z3e_VAL_LEU_ACE_Z3E_KCQ_1_ligand
   91    92     5     0     0
SMALL
NO_CHARGES


@<TRIPOS>ATOM
      1 N         -20.1960    6.6860  -20.2630 N.am      1 VAL2        0.0000
      2 CA        -19.1020    5.7280  -20.3670 C.3       1 VAL2        0.0000
      3 C         -19.1300    4.8630  -21.6570 C.2       1 VAL2        0.0000
      4 O         -20.1770    4.7500  -22.3310 O.2       1 VAL2        0.0000
      5 CB        -19.0360    4.9220  -19.0690 C.3       1 VAL2        0.0000
      6 CG1       -18.3880    3.5560  -19.2700 C.3       1 VAL2        0.0000
      7 CG2       -18.3010    5.7400  -18.0250 C.3       1 VAL2        0.0000
      8 HNCA      -21.1563    6.2834  -20.3037 H         1 VAL2        0.0000
      9 HA        -18.1411    6.3163  -20.4038 H         1 VAL2        0.0000
     10 HB        -20.0600    4.7733  -18.7187 H         1 VAL2        0.0000
     11 H         -17.4499    3.6359  -19.6070 H         1 VAL2        0.0000
     12 H         -18.3498    3.0340  -18.4179 H         1 VAL2        0.0000
     13 H         -18.8909    3.0002  -19.9319 H         1 VAL2        0.0000
     14 HG21      -17.3696    5.9609  -18.3144 H         1 VAL2        0.0000
     15 HG22      -18.7635    6.6069  -17.8392 H         1 VAL2        0.0000
     16 HG23      -18.2298    5.2533  -17.1544 H         1 VAL2        0.0000
     17 N         -17.9380    1.0480  -22.5310 N.am      2 LEU4        0.0000
     18 CA        -17.3230   -0.2110  -22.0890 C.3       2 LEU4        0.0000
     19 C         -16.6350   -0.9190  -23.2830 C.2       2 LEU4        0.0000
     20 O         -17.3140   -1.2690  -24.2730 O.2       2 LEU4        0.0000
     21 CB        -18.2880   -1.0600  -21.2480 C.3       2 LEU4        0.0000
     22 CG        -18.7270   -0.2580  -19.9920 C.3       2 LEU4        0.0000
     23 CD1       -20.1630    0.3790  -20.1070 C.3       2 LEU4        0.0000
     24 CD2       -18.4160   -0.8560  -18.5470 C.3       2 LEU4        0.0000
     25 HNCA      -18.9131    1.0653  -22.7163 H         2 LEU4        0.0000
     26 HA        -16.4738    0.0816  -21.3890 H         2 LEU4        0.0000
     27 HB2       -17.7912   -1.9641  -20.9294 H         2 LEU4        0.0000
     28 HB3       -19.1632   -1.2999  -21.8331 H         2 LEU4        0.0000
     29 HG        -18.0327    0.7088  -20.0222 H         2 LEU4        0.0000
     30 HD11      -20.4109    0.8874  -19.2823 H         2 LEU4        0.0000
     31 HD12      -20.2260    1.0168  -20.8746 H         2 LEU4        0.0000
     32 HD13      -20.8679   -0.3167  -20.2454 H         2 LEU4        0.0000
     33 HD21      -17.4352   -0.9869  -18.4025 H         2 LEU4        0.0000
     34 HD22      -18.7420   -0.2541  -17.8180 H         2 LEU4        0.0000
     35 HD23      -18.8535   -1.7448  -18.4109 H         2 LEU4        0.0000
     36 C         -19.9770    7.9910  -20.1250 C.2       3 ACE1        0.0000
     37 O         -18.8550    8.4950  -20.2180 O.2       3 ACE1        0.0000
     38 CH3       -21.2090    8.8530  -19.8740 C.3       3 ACE1        0.0000
     39 H         -20.9731    9.8206  -19.7836 H         3 ACE1        0.0000
     40 H         -21.8709    8.7811  -20.6202 H         3 ACE1        0.0000
     41 H         -21.6834    8.5873  -19.0348 H         3 ACE1        0.0000
     42 C         -17.0980    2.0990  -22.6490 C.2       4 Z3E3        0.0000
     43 N         -17.9210    4.3340  -21.9960 N.am      4 Z3E3        0.0000
     44 O         -15.8950    1.9810  -22.4000 O.2       4 Z3E3        0.0000
     45 C1        -17.0540    7.8620  -24.4910 C.ar      4 Z3E3        0.0000
     46 C2        -17.8920    8.6070  -23.6390 C.ar      4 Z3E3        0.0000
     47 C3        -18.3780    9.8650  -24.0470 C.ar      4 Z3E3        0.0000
     48 C4        -18.0420   10.4150  -25.3030 C.ar      4 Z3E3        0.0000
     49 C5        -17.2030    9.6810  -26.1610 C.ar      4 Z3E3        0.0000
     50 C6        -16.7180    8.4080  -25.7570 C.ar      4 Z3E3        0.0000
     51 C7        -16.5200    6.4930  -24.0630 C.3       4 Z3E3        0.0000
     52 CA        -17.7150    3.4440  -23.1530 C.3       4 Z3E3        0.0000
     53 CB        -16.8220    4.1280  -24.3190 C.3       4 Z3E3        0.0000
     54 OG1       -17.2880    5.4530  -24.6770 O.3       4 Z3E3        0.0000
     55 CG2       -16.7520    3.2360  -25.5650 C.3       4 Z3E3        0.0000
     56 H         -17.0644    4.5436  -21.4331 H         4 Z3E3        0.0000
     57 H         -18.1488    8.2341  -22.7212 H         4 Z3E3        0.0000
     58 H         -18.9947   10.3983  -23.4130 H         4 Z3E3        0.0000
     59 H         -18.3998   11.3220  -25.5793 H         4 Z3E3        0.0000
     60 H         -16.9399   10.0560  -27.0717 H         4 Z3E3        0.0000
     61 H         -16.1137    7.8743  -26.3930 H         4 Z3E3        0.0000
     62 H         -16.5705    6.4424  -22.9686 H         4 Z3E3        0.0000
     63 H         -15.4634    6.4417  -24.3522 H         4 Z3E3        0.0000
     64 H         -18.6799    3.2005  -23.6082 H         4 Z3E3        0.0000
     65 H         -15.8013    4.1863  -23.9052 H         4 Z3E3        0.0000
     66 H         -16.2037    3.6530  -26.2899 H         4 Z3E3        0.0000
     67 H         -16.3423    2.3465  -25.3624 H         4 Z3E3        0.0000
     68 H         -17.6591    3.0606  -25.9476 H         4 Z3E3        0.0000
     69 OAD       -11.5780    1.3890  -23.2880 O.2       5 KCQ6        0.0000
     70 CD2       -12.1800    1.3970  -24.3740 C.2       5 KCQ6        0.0000
     71 NAH       -11.8830    2.0470  -25.5260 N.am      5 KCQ6        0.0000
     72 CAE       -12.8770    2.0490  -26.6120 C.3       5 KCQ6        0.0000
     73 CD1       -13.8170    0.9770  -26.0630 C.3       5 KCQ6        0.0000
     74 CG        -13.4400    0.6370  -24.5930 C.3       5 KCQ6        0.0000
     75 CB        -13.1600   -0.8480  -24.3930 C.3       5 KCQ6        0.0000
     76 CA        -14.4910   -1.5490  -24.3040 C.3       5 KCQ6        0.0000
     77 N         -15.2850   -0.9610  -23.2370 N.4       5 KCQ6        0.0000
     78 C         -14.3520   -3.0330  -24.1330 C.2       5 KCQ6        0.0000
     79 O         -13.7250   -3.6640  -24.9830 O.2       5 KCQ6        0.0000
     80 CMK       -15.0350   -3.6900  -22.9550 C.3       5 KCQ6        0.0000
     81 H         -11.0117    2.5362  -25.6883 H         5 KCQ6        0.0000
     82 H         -12.4615    1.7140  -27.5137 H         5 KCQ6        0.0000
     83 H         -13.3882    2.9621  -26.6632 H         5 KCQ6        0.0000
     84 H         -13.7340    0.0770  -26.6592 H         5 KCQ6        0.0000
     85 H         -14.8373    1.3388  -26.0844 H         5 KCQ6        0.0000
     86 H         -14.1912    0.9823  -23.9549 H         5 KCQ6        0.0000
     87 H         -12.6080   -0.9867  -23.4785 H         5 KCQ6        0.0000
     88 H         -12.6016   -1.2220  -25.2347 H         5 KCQ6        0.0000
     89 H         -15.0155   -1.3699  -25.2654 H         5 KCQ6        0.0000
     90 H         -15.1814   -3.0117  -22.1056 H         5 KCQ6        0.0000
     91 H         -16.0093   -4.1259  -23.2071 H         5 KCQ6        0.0000
@<TRIPOS>BOND
     1    2    1 1
     2    8    1 1
     3    3    2 1
     4    5    2 1
     5    9    2 1
     6    4    3 2
     7    6    5 1
     8    7    5 1
     9   10    5 1
    10   11    6 1
    11   12    6 1
    12   13    6 1
    13   14    7 1
    14   15    7 1
    15   16    7 1
    16   18   17 1
    17   25   17 1
    18   19   18 1
    19   21   18 1
    20   26   18 1
    21   20   19 2
    22   22   21 1
    23   27   21 1
    24   28   21 1
    25   23   22 1
    26   24   22 1
    27   29   22 1
    28   30   23 1
    29   31   23 1
    30   32   23 1
    31   33   24 1
    32   34   24 1
    33   35   24 1
    34   37   36 2
    35   38   36 1
    36   39   38 1
    37   40   38 1
    38   41   38 1
    39   44   42 2
    40   52   42 1
    41   52   43 1
    42   56   43 1
    43   46   45 ar
    44   50   45 ar
    45   51   45 1
    46   47   46 ar
    47   57   46 1
    48   48   47 ar
    49   58   47 1
    50   49   48 ar
    51   59   48 1
    52   50   49 ar
    53   60   49 1
    54   61   50 1
    55   54   51 1
    56   62   51 1
    57   63   51 1
    58   53   52 1
    59   64   52 1
    60   54   53 1
    61   55   53 1
    62   65   53 1
    63   66   55 1
    64   67   55 1
    65   68   55 1
    66   70   69 2
    67   71   70 am
    68   74   70 1
    69   72   71 1
    70   81   71 1
    71   73   72 1
    72   82   72 1
    73   83   72 1
    74   74   73 1
    75   84   73 1
    76   85   73 1
    77   75   74 1
    78   86   74 1
    79   76   75 1
    80   87   75 1
    81   88   75 1
    82   77   76 1
    83   78   76 1
    84   89   76 1
    85   79   78 2
    86   80   78 1
    87   90   80 1
    88   91   80 1
    89   36    1 1 
    90   43    3 1 
    91   42   17 am
    92   77   19 1 
@<TRIPOS>SUBSTRUCTURE
     1 VAL2        1 RESIDUE
     2 LEU4       17 RESIDUE
     3 ACE1       36 GROUP
     4 Z3E3       42 GROUP
     5 KCQ6       69 GROUP
@<TRIPOS>SET

