#    Name: 1foj_7NI_2_INTS_M
#    Modification time : Tue Mar 25 01:37:06 2014

@<TRIPOS>MOLECULE
1foj_7NI_2_INTS_M
   15     0     9     0     0
SMALL
NO_CHARGES


@<TRIPOS>ATOM
      1 O          -0.3255   12.3895   67.4745 O.2       1 ALC1        0.0000 
      2 O           0.2840   10.9020   67.5570 O.2       7 ALL1        0.0000 
      3 O          -0.9350   13.8770   67.3920 O.2       4 ALP1        0.0000 
      4 N           0.7140   10.9300   70.2585 N.am      2 SEC2        0.0000 
      5 N           0.9250   10.5390   68.7360 N.am      8 SEL2        0.0000 
      6 N           0.5030   11.3210   71.7810 N.am      5 SEP2        0.0000 
      7 CA         -1.3425   10.3550   67.7655 C.3       3 GLC5        0.0000 
      8 CA          0.3850    9.9770   66.6300 C.3       9 GLL5        0.0000 
      9 CA         -3.0700   10.7330   68.9010 C.3       6 GLP5        0.0000 
     10 N          -1.7630   13.1960   64.6975 N.am      2 SEC2        0.0000 
     11 N          -1.0300   11.9180   65.4830 N.am      8 SEL2        0.0000 
     12 N          -2.4960   14.4740   63.9120 N.am      5 SEP2        0.0000 
     13 CA          0.8389    6.4769   67.2529 C.3       3 GLC5        0.0000 
     14 CA          0.8510    7.7690   65.0210 C.3       9 GLL5        0.0000 
     15 CA          0.5760    4.6060   68.1060 C.3       6 GLP5        0.0000 
@<TRIPOS>BOND
@<TRIPOS>SUBSTRUCTURE
     1 ALC1        1 GROUP        1 X    ALC  0     ROOT ALC X 1
     2 SEC2        4 GROUP        1 X    SEC  0     **** SEC X 2
     3 GLC5        7 GROUP        1 X    GLC  0     **** GLC X 6
     4 ALP1        3 GROUP        1 Y    ALP  0     ROOT ALP Y 8
     5 SEP2        6 GROUP        1 Y    SEP  0     **** SEP Y 9
     6 GLP5        9 GROUP        1 Y    GLP  0     **** GLP Y 13
     7 ALL1        2 GROUP        1 Z    ALL  0     ROOT ALL Z 15
     8 SEL2        5 GROUP        1 Z    SEL  0     **** SEL Z 16
     9 GLL5        8 GROUP        1 Z    GLL  0     **** GLL Z 20
@<TRIPOS>SET

