#    Name: 1foj_7NI_2_ligand
#    Modification time : Tue Mar 25 01:37:06 2014

@<TRIPOS>MOLECULE
1foj_7NI_2_ligand
   17    18     1     0     0
SMALL
NO_CHARGES


@<TRIPOS>ATOM
      1 N1          0.2840   10.9020   67.5570 N.pl3     1 7NI2750     0.0000 
      2 N2          0.9250   10.5390   68.7360 N.2       1 7NI2750     0.0000 
      3 C3          1.4920    9.1720   68.4560 C.2       1 7NI2750     0.0000 
      4 C4          1.3400    7.7980   66.3140 C.ar      1 7NI2750     0.0000 
      5 C5          0.8510    7.7690   65.0210 C.ar      1 7NI2750     0.0000 
      6 C6          0.1290    8.8080   64.5100 C.ar      1 7NI2750     0.0000 
      7 C7         -0.1130    9.9240   65.2990 C.ar      1 7NI2750     0.0000 
      8 C8          0.3850    9.9770   66.6300 C.ar      1 7NI2750     0.0000 
      9 C9          1.1080    8.9120   67.1320 C.ar      1 7NI2750     0.0000 
     10 N10        -0.8060   10.9360   64.8100 N.pl3     1 7NI2750     0.0000 
     11 O11        -1.2180   10.8820   63.6820 O.2       1 7NI2750     0.0000 
     12 O12        -1.0300   11.9180   65.4830 O.2       1 7NI2750     0.0000 
     13 H          -0.1847   11.7698   67.4673 H         1 7NI2750     0.0000 
     14 H           1.9601    8.6857   69.0447 H         1 7NI2750     0.0000 
     15 H           1.8777    7.0021   66.6851 H         1 7NI2750     0.0000 
     16 H           1.0425    6.9307   64.4293 H         1 7NI2750     0.0000 
     17 H          -0.2377    8.7747   63.5488 H         1 7NI2750     0.0000 
@<TRIPOS>BOND
     1    2    1 1    
     2    8    1 1    
     3   13    1 1    
     4    3    2 2    
     5    9    3 1    
     6   14    3 1    
     7    5    4 ar   
     8    9    4 ar   
     9   15    4 1    
    10    6    5 ar   
    11   16    5 1    
    12    7    6 ar   
    13   17    6 1    
    14    8    7 ar   
    15   10    7 1    
    16    9    8 ar   
    17   11   10 2    
    18   12   10 2    
@<TRIPOS>SUBSTRUCTURE
     1 7NI2750     1 GROUP   
@<TRIPOS>SET

