#    Name: 3dv3_MEK_1_INTS_M
#    Modification time : Tue Mar 25 00:27:25 2014

@<TRIPOS>MOLECULE
3dv3_MEK_1_INTS_M
   84     0     9     0     0
SMALL
NO_CHARGES


@<TRIPOS>ATOM
      1 O          40.7820  -11.7240   -1.8890 O.2       1 ALC1        0.0000 
      2 O          40.5810  -11.4150   -0.5210 O.2       7 ALL1        0.0000 
      3 O          40.9830  -12.0330   -3.2570 O.2       4 ALP1        0.0000 
      4 CA         43.3565  -16.3525    4.6760 C.3       3 GLC5        0.0000 
      5 CA         41.9500  -16.7280    3.5940 C.3       9 GLL5        0.0000 
      6 CA         44.7630  -15.9770    5.7580 C.3       6 GLP5        0.0000 
      7 CA         35.4200  -14.1710   -4.4340 C.3       3 GLC5        0.0000 
      8 CA         37.2810  -13.7500   -4.0060 C.3       9 GLL5        0.0000 
      9 CA         33.5590  -14.5920   -4.8620 C.3       6 GLP5        0.0000 
     10 CA         34.0545  -16.0170   -0.0760 C.3       3 GLC5        0.0000 
     11 CA         35.8980  -15.4700   -0.6760 C.3       9 GLL5        0.0000 
     12 CA         32.2110  -16.5640    0.5240 C.3       6 GLP5        0.0000 
     13 CA         36.4150  -15.1550   -3.1070 C.3       3 GLC5        0.0000 
     14 CA         36.1120  -13.2480   -2.1610 C.3       9 GLL5        0.0000 
     15 CA         36.7180  -17.0620   -4.0530 C.3       6 GLP5        0.0000 
     16 CA         35.0755  -12.7150   -0.6060 C.3       3 GLC5        0.0000 
     17 CA         34.0390  -12.1820    0.9490 C.3       6 GLP5        0.0000 
     18 CA         34.8355  -13.9200   -3.5115 C.3       3 GLC5        0.0000 
     19 CA         35.6335  -11.1470   -1.7580 C.3       3 GLC5        0.0000 
     20 CA         35.1550   -9.0460   -1.3550 C.3       6 GLP5        0.0000 
     21 CA         38.3825  -14.2025   -6.6710 C.3       3 GLC5        0.0000 
     22 CA         38.1880  -13.1610   -5.0440 C.3       9 GLL5        0.0000 
     23 CA         38.5770  -15.2440   -8.2980 C.3       6 GLP5        0.0000 
     24 CA         40.2265  -13.0555   -5.6015 C.3       3 GLC5        0.0000 
     25 CA         42.2650  -12.9500   -6.1590 C.3       6 GLP5        0.0000 
     26 CA         37.8350  -17.7090    2.7595 C.3       3 GLC5        0.0000 
     27 CA         37.5690  -16.1350    1.3130 C.3       9 GLL5        0.0000 
     28 CA         38.1010  -19.2830    4.2060 C.3       6 GLP5        0.0000 
     29 CA         39.1535  -14.8075    3.6130 C.3       3 GLC5        0.0000 
     30 CA         40.3670  -15.6020    2.2060 C.3       9 GLL5        0.0000 
     31 CA         37.9400  -14.0130    5.0200 C.3       6 GLP5        0.0000 
     32 CA         39.7030  -14.2380    4.4470 C.3       3 GLC5        0.0000 
     33 CA         41.4660  -14.4630    3.8740 C.3       9 GLL5        0.0000 
     34 CA         38.3145  -17.8900    1.1195 C.3       3 GLC5        0.0000 
     35 CA         40.1650  -16.7800    1.5340 C.3       9 GLL5        0.0000 
     36 CA         36.4640  -19.0000    0.7050 C.3       6 GLP5        0.0000 
     37 CA         40.7265  -20.3960    3.0430 C.3       3 GLC5        0.0000 
     38 CA         42.7770  -19.6850    3.4550 C.3       9 GLL5        0.0000 
     39 CA         38.6760  -21.1070    2.6310 C.3       6 GLP5        0.0000 
     40 CA         44.7630  -19.8950    3.5725 C.3       3 GLC5        0.0000 
     41 CA         46.7490  -20.1050    3.6900 C.3       6 GLP5        0.0000 
     42 CA         43.9190  -18.7150    1.7895 C.3       3 GLC5        0.0000 
     43 CA         45.0610  -17.7450    0.1240 C.3       6 GLP5        0.0000 
     44 CA         42.5125  -20.1655    1.4680 C.3       3 GLC5        0.0000 
     45 CA         42.2480  -20.6460   -0.5190 C.3       6 GLP5        0.0000 
     46 N          41.7965  -11.4835    2.0970 N.am      2 SEC2        0.0000 
     47 N          40.4330  -11.9100    1.5670 N.am      8 SEL2        0.0000 
     48 N          43.1600  -11.0570    2.6270 N.am      5 SEP2        0.0000 
     49 N          42.3550  -10.7925    1.1885 N.am      2 SEC2        0.0000 
     50 N          41.5500  -10.5280   -0.2500 N.am      8 SEL2        0.0000 
     51 CA         43.7460  -17.1498    2.2920 C.3       3 GLC5        0.0000 
     52 CA         41.7600  -17.9330    2.9260 C.3       9 GLL5        0.0000 
     53 CA         45.6370  -16.9690    1.3240 C.3       6 GLP5        0.0000 
     54 CA         40.6050  -16.1090    5.1520 C.3       3 GLC5        0.0000 
     55 CA         39.6040  -16.0580    6.8890 C.3       6 GLP5        0.0000 
     56 CA         42.0085  -13.2082    3.7740 C.3       3 GLC5        0.0000 
     57 CA         41.2620  -15.5920    3.2360 C.3       9 GLL5        0.0000 
     58 CA         42.6530  -11.3890    3.9930 C.3       6 GLP5        0.0000 
     59 CA         42.6895  -14.7363    4.9635 C.3       3 GLC5        0.0000 
     60 CA         44.0150  -14.4450    6.3720 C.3       6 GLP5        0.0000 
     61 CA         41.6208  -15.3860    0.9620 C.3       3 GLC5        0.0000 
     62 CA         42.4270  -15.1750   -0.7970 C.3       6 GLP5        0.0000 
     63 CA         40.6725  -14.4080   -0.1160 C.3       3 GLC5        0.0000 
     64 CA         38.8410  -14.2150    0.9300 C.3       9 GLL5        0.0000 
     65 CA         36.5618  -16.0755   -2.2858 C.3       3 GLC5        0.0000 
     66 CA         36.9130  -14.7080   -0.3610 C.3       9 GLL5        0.0000 
     67 CA         36.4347  -17.0445    0.0932 C.3       3 GLC5        0.0000 
     68 CA         35.6677  -14.0835    0.6817 C.3       3 GLC5        0.0000 
     69 CA         34.9300  -13.0780    1.8820 C.3       6 GLP5        0.0000 
     70 CA         39.7027   -8.4385   -0.2647 C.3       3 GLC5        0.0000 
     71 CA         41.4740   -9.1590   -0.6240 C.3       9 GLL5        0.0000 
     72 CA         37.6590   -8.1380   -0.4710 C.3       6 GLP5        0.0000 
     73 CA         37.2263  -15.2587   -4.2890 C.3       3 GLC5        0.0000 
     74 CA         36.3759  -13.1610    0.5974 C.3       3 GLC5        0.0000 
     75 CA         37.0840  -13.5800   -1.0770 C.3       9 GLL5        0.0000 
     76 CA         36.3653  -16.0555    2.3520 C.3       3 GLC5        0.0000 
     77 CA         37.7760  -15.0290    0.6450 C.3       9 GLL5        0.0000 
     78 CA         35.0580  -16.5290    3.7250 C.3       6 GLP5        0.0000 
     79 CA         37.0683  -17.2910    0.8420 C.3       3 GLC5        0.0000 
     80 CA         38.0984  -14.4558    2.9872 C.3       3 GLC5        0.0000 
     81 CA         36.5934  -13.9883    1.4183 C.3       3 GLC5        0.0000 
     82 CA         39.4165  -18.3179    3.0879 C.3       3 GLC5        0.0000 
     83 CA         41.4642  -16.2620    0.4563 C.3       3 GLC5        0.0000 
     84 CA         40.8380  -17.9180    1.8850 C.3       9 GLL5        0.0000 
@<TRIPOS>BOND
@<TRIPOS>SUBSTRUCTURE
     1 ALC1        1 GROUP        1 X    ALC  0     ROOT ALC X 1
     2 SEC2       46 GROUP        1 X    SEC  0     **** SEC X 2
     3 GLC5        4 GROUP        1 X    GLC  0     **** GLC X 6
     4 ALP1        3 GROUP        1 Y    ALP  0     ROOT ALP Y 8
     5 SEP2       48 GROUP        1 Y    SEP  0     **** SEP Y 9
     6 GLP5        6 GROUP        1 Y    GLP  0     **** GLP Y 13
     7 ALL1        2 GROUP        1 Z    ALL  0     ROOT ALL Z 15
     8 SEL2       47 GROUP        1 Z    SEL  0     **** SEL Z 16
     9 GLL5        5 GROUP        1 Z    GLL  0     **** GLL Z 20
@<TRIPOS>SET

