#    Name: 3dv3_MEK_1_ligand
#    Modification time : Tue Mar 25 00:27:25 2014

@<TRIPOS>MOLECULE
3dv3_MEK_1_ligand
   47    48     1     0     0
SMALL
NO_CHARGES


@<TRIPOS>ATOM
      1 N1         40.5810  -11.4150   -0.5210 N.am      1 MEK9001     0.0000 
      2 C4         41.7600  -17.9330    2.9260 C.ar      1 MEK9001     0.0000 
      3 C5         41.9500  -16.7280    3.5940 C.ar      1 MEK9001     0.0000 
      4 C6         41.2620  -15.5920    3.2360 C.ar      1 MEK9001     0.0000 
      5 C7         38.9950  -13.0670    0.2000 C.ar      1 MEK9001     0.0000 
      6 C8         38.1240  -12.7490   -0.7950 C.ar      1 MEK9001     0.0000 
      7 C10        36.9130  -14.7080   -0.3610 C.ar      1 MEK9001     0.0000 
      8 C13        40.0780  -12.1010    0.4580 C.2       1 MEK9001     0.0000 
      9 C15        42.0190   -8.3190    0.5070 C.3       1 MEK9001     0.0000 
     10 C17        37.2810  -13.7500   -4.0060 C.3       1 MEK9001     0.0000 
     11 F3         35.8980  -15.4700   -0.6760 F         1 MEK9001     0.0000 
     12 C9         37.0840  -13.5800   -1.0770 C.ar      1 MEK9001     0.0000 
     13 C16        36.1120  -13.2480   -2.1610 C.3       1 MEK9001     0.0000 
     14 O4         36.7540  -12.6930   -3.2630 O.3       1 MEK9001     0.0000 
     15 C18        38.1880  -13.1610   -5.0440 C.3       1 MEK9001     0.0000 
     16 O5         37.3840  -12.4200   -5.9280 O.3       1 MEK9001     0.0000 
     17 C11        37.7760  -15.0290    0.6450 C.ar      1 MEK9001     0.0000 
     18 F2         37.5690  -16.1350    1.3130 F         1 MEK9001     0.0000 
     19 C12        38.8410  -14.2150    0.9300 C.ar      1 MEK9001     0.0000 
     20 N2         39.7290  -14.4570    1.9050 N.pl3     1 MEK9001     0.0000 
     21 C1         40.3670  -15.6020    2.2060 C.ar      1 MEK9001     0.0000 
     22 F1         41.4660  -14.4630    3.8740 F         1 MEK9001     0.0000 
     23 C2         40.1650  -16.7800    1.5340 C.ar      1 MEK9001     0.0000 
     24 C3         40.8380  -17.9180    1.8850 C.ar      1 MEK9001     0.0000 
     25 I1         42.7770  -19.6850    3.4550 I         1 MEK9001     0.0000 
     26 O1         40.4330  -11.9100    1.5670 O.2       1 MEK9001     0.0000 
     27 O2         41.5500  -10.5280   -0.2500 O.3       1 MEK9001     0.0000 
     28 C14        41.4740   -9.1590   -0.6240 C.3       1 MEK9001     0.0000 
     29 O3         41.1550   -8.3990    1.6250 O.3       1 MEK9001     0.0000 
     30 H          40.2540  -11.5348   -1.5036 H         1 MEK9001     0.0000 
     31 H          42.6297  -16.6918    4.3818 H         1 MEK9001     0.0000 
     32 H          38.2520  -11.8744   -1.3383 H         1 MEK9001     0.0000 
     33 H          42.1216   -7.2860    0.1432 H         1 MEK9001     0.0000 
     34 H          43.0290   -8.6843    0.7444 H         1 MEK9001     0.0000 
     35 H          36.5053  -14.3262   -4.5187 H         1 MEK9001     0.0000 
     36 H          37.8682  -14.4389   -3.3918 H         1 MEK9001     0.0000 
     37 H          35.3503  -12.5607   -1.7353 H         1 MEK9001     0.0000 
     38 H          35.5662  -14.1788   -2.4245 H         1 MEK9001     0.0000 
     39 H          38.7092  -13.9772   -5.5479 H         1 MEK9001     0.0000 
     40 H          38.9280  -12.5368   -4.5394 H         1 MEK9001     0.0000 
     41 H          39.9722  -13.5939    2.5543 H         1 MEK9001     0.0000 
     42 H          39.4867  -16.8074    0.7423 H         1 MEK9001     0.0000 
     43 H          40.6613  -18.8054    1.3626 H         1 MEK9001     0.0000 
     44 H          42.0652   -8.9493   -1.5204 H         1 MEK9001     0.0000 
     45 H          40.4429   -8.8466   -0.8150 H         1 MEK9001     0.0000 
     46 H          38.0282  -11.9506   -6.5319 H         1 MEK9001     0.0000 
     47 H          40.9335   -9.3703    1.7118 H         1 MEK9001     0.0000 
@<TRIPOS>BOND
     1    8    1 am   
     2   27    1 1    
     3   30    1 1    
     4    3    2 ar   
     5   24    2 ar   
     6   25    2 1    
     7    4    3 ar   
     8   31    3 1    
     9   21    4 ar   
    10   22    4 1    
    11    6    5 ar   
    12    8    5 1    
    13   19    5 ar   
    14   12    6 ar   
    15   32    6 1    
    16   11    7 1    
    17   12    7 ar   
    18   17    7 ar   
    19   26    8 2    
    20   28    9 1    
    21   29    9 1    
    22   33    9 1    
    23   34    9 1    
    24   14   10 1    
    25   15   10 1    
    26   35   10 1    
    27   36   10 1    
    28   13   12 1    
    29   14   13 1    
    30   37   13 1    
    31   38   13 1    
    32   16   15 1    
    33   39   15 1    
    34   40   15 1    
    35   46   16 1    
    36   18   17 1    
    37   19   17 ar   
    38   20   19 1    
    39   21   20 1    
    40   41   20 1    
    41   23   21 ar   
    42   24   23 ar   
    43   42   23 1    
    44   43   24 1    
    45   28   27 1    
    46   44   28 1    
    47   45   28 1    
    48   47   29 1    
@<TRIPOS>SUBSTRUCTURE
     1 MEK9001     1 GROUP   
@<TRIPOS>SET

