#    Name: 3nef_PYV_1_INTS_M
#    Modification time : Tue Mar 25 01:26:04 2014

@<TRIPOS>MOLECULE
3nef_PYV_1_INTS_M
   53     0     6     0     0
SMALL
NO_CHARGES


@<TRIPOS>ATOM
      1 CA        -60.9900   38.8620  -26.0000 C.3       2 GLC5        0.0000 
      2 CA        -60.9540   39.8970  -24.3040 C.3       6 GLL5        0.0000 
      3 CA        -61.0260   37.8270  -27.6960 C.3       4 GLP5        0.0000 
      4 CA        -62.2885   41.4005  -23.6175 C.3       2 GLC5        0.0000 
      5 CA        -63.6230   42.9040  -22.9310 C.3       4 GLP5        0.0000 
      6 O         -53.9620   41.7510  -20.6705 O.2       1 ALC1        0.0000 
      7 O         -54.9590   40.8390  -20.7420 O.2       5 ALL1        0.0000 
      8 O         -52.9650   42.6630  -20.5990 O.2       3 ALP1        0.0000 
      9 CA        -58.4850   37.3900  -24.6940 C.3       2 GLC5        0.0000 
     10 CA        -58.3670   39.0070  -23.5340 C.3       6 GLL5        0.0000 
     11 CA        -58.6030   35.7730  -25.8540 C.3       4 GLP5        0.0000 
     12 CA        -59.0420   38.3065  -21.6335 C.3       2 GLC5        0.0000 
     13 CA        -59.7170   37.6060  -19.7330 C.3       4 GLP5        0.0000 
     14 CA        -57.6190   45.7625  -23.2650 C.3       2 GLC5        0.0000 
     15 CA        -57.5360   43.9480  -22.7050 C.3       6 GLL5        0.0000 
     16 CA        -57.7020   47.5770  -23.8250 C.3       4 GLP5        0.0000 
     17 CA        -58.7690   45.4485  -23.9720 C.3       2 GLC5        0.0000 
     18 CA        -58.8540   43.8530  -23.1300 C.3       6 GLL5        0.0000 
     19 CA        -58.6840   47.0440  -24.8140 C.3       4 GLP5        0.0000 
     20 CA        -54.5370   38.0040  -19.2140 C.3       2 GLC5        0.0000 
     21 CA        -55.3270   40.0160  -19.6050 C.3       6 GLL5        0.0000 
     22 CA        -53.7470   35.9920  -18.8230 C.3       4 GLP5        0.0000 
     23 CA        -54.4505   40.7260  -17.9100 C.3       2 GLC5        0.0000 
     24 CA        -53.5740   41.4360  -16.2150 C.3       4 GLP5        0.0000 
     25 CA        -59.2590   39.0620  -16.1150 C.3       2 GLC5        0.0000 
     26 CA        -58.5280   40.0500  -17.6340 C.3       6 GLL5        0.0000 
     27 CA        -59.9900   38.0740  -14.5960 C.3       4 GLP5        0.0000 
     28 CA        -61.1785   41.7150  -17.2585 C.3       2 GLC5        0.0000 
     29 CA        -59.2690   41.0630  -18.2240 C.3       6 GLL5        0.0000 
     30 CA        -63.0880   42.3670  -16.2930 C.3       4 GLP5        0.0000 
     31 CA        -56.4680   43.2075  -19.4665 C.3       2 GLC5        0.0000 
     32 CA        -57.4290   41.4150  -19.7280 C.3       6 GLL5        0.0000 
     33 CA        -55.5070   45.0000  -19.2050 C.3       4 GLP5        0.0000 
     34 CA        -60.9525   39.2310  -22.3940 C.3       2 GLC5        0.0000 
     35 CA        -59.1820   40.1190  -23.6700 C.3       6 GLL5        0.0000 
     36 CA        -61.8370   38.4540  -20.8010 C.3       4 GLP5        0.0000 
     37 CA        -57.6700   41.0087  -25.2673 C.3       2 GLC5        0.0000 
     38 CA        -56.4260   41.2260  -27.0320 C.3       4 GLP5        0.0000 
     39 CA        -59.2212   42.9800  -24.9405 C.3       2 GLC5        0.0000 
     40 CA        -58.6460   41.4640  -23.3350 C.3       6 GLL5        0.0000 
     41 CA        -59.4150   43.9200  -26.4850 C.3       4 GLP5        0.0000 
     42 CA        -56.6415   41.0823  -24.9265 C.3       2 GLC5        0.0000 
     43 CA        -57.2490   41.5630  -22.8760 C.3       6 GLL5        0.0000 
     44 CA        -55.2938   43.8025  -23.0260 C.3       2 GLC5        0.0000 
     45 CA        -56.7330   42.8100  -22.5750 C.3       6 GLL5        0.0000 
     46 CA        -53.4530   44.2260  -23.4120 C.3       4 GLP5        0.0000 
     47 CA        -56.3208   44.1895  -20.9225 C.3       2 GLC5        0.0000 
     48 CA        -58.8050   43.9102  -24.7012 C.3       2 GLC5        0.0000 
     49 CA        -59.6985   43.7846  -21.3896 C.3       2 GLC5        0.0000 
     50 CA        -60.5950   44.3110  -19.5920 C.3       4 GLP5        0.0000 
     51 CA        -59.4010   42.8600  -19.4160 C.3       2 GLC5        0.0000 
     52 CA        -59.0554   39.2729  -19.1869 C.3       2 GLC5        0.0000 
     53 CA        -58.7010   41.7430  -19.2800 C.3       6 GLL5        0.0000 
@<TRIPOS>BOND
@<TRIPOS>SUBSTRUCTURE
     1 ALC1        6 GROUP        1 X    ALC  0     ROOT ALC X 1
     2 GLC5        1 GROUP        1 X    GLC  0     **** GLC X 6
     3 ALP1        8 GROUP        1 Y    ALP  0     ROOT ALP Y 8
     4 GLP5        3 GROUP        1 Y    GLP  0     **** GLP Y 13
     5 ALL1        7 GROUP        1 Z    ALL  0     ROOT ALL Z 15
     6 GLL5        2 GROUP        1 Z    GLL  0     **** GLL Z 20
@<TRIPOS>SET

