#    Name: 3nef_PYV_1_ligand
#    Modification time : Tue Mar 25 01:26:04 2014

@<TRIPOS>MOLECULE
3nef_PYV_1_ligand
   35    37     1     0     0
SMALL
NO_CHARGES


@<TRIPOS>ATOM
      1 S         -54.9610   40.2900  -22.2550 S.o2      1 PYV201      0.0000 
      2 BR        -60.9540   39.8970  -24.3040 Br        1 PYV201      0.0000 
      3 C1        -59.1820   40.1190  -23.6700 C.ar      1 PYV201      0.0000 
      4 N1        -54.9590   40.8390  -20.7420 N.pl3     1 PYV201      0.0000 
      5 O1        -54.1590   41.1450  -23.0720 O.2       1 PYV201      0.0000 
      6 C2        -58.6460   41.4640  -23.3350 C.ar      1 PYV201      0.0000 
      7 N2        -57.3020   39.7430  -18.0860 N.ar      1 PYV201      0.0000 
      8 O2        -54.4580   38.9460  -22.2920 O.2       1 PYV201      0.0000 
      9 C3        -57.2490   41.5630  -22.8760 C.ar      1 PYV201      0.0000 
     10 C4        -56.4650   40.3140  -22.7660 C.ar      1 PYV201      0.0000 
     11 C5        -57.0540   39.1090  -23.1020 C.ar      1 PYV201      0.0000 
     12 C6        -58.3670   39.0070  -23.5340 C.ar      1 PYV201      0.0000 
     13 C7        -56.7330   42.8100  -22.5750 C.ar      1 PYV201      0.0000 
     14 C8        -57.5360   43.9480  -22.7050 C.ar      1 PYV201      0.0000 
     15 C9        -58.8540   43.8530  -23.1300 C.ar      1 PYV201      0.0000 
     16 C10       -59.4090   42.6160  -23.4570 C.ar      1 PYV201      0.0000 
     17 C11       -55.3270   40.0160  -19.6050 C.3       1 PYV201      0.0000 
     18 C12       -56.7260   40.3910  -19.1230 C.ar      1 PYV201      0.0000 
     19 C13       -58.5280   40.0500  -17.6340 C.ar      1 PYV201      0.0000 
     20 C14       -59.2690   41.0630  -18.2240 C.ar      1 PYV201      0.0000 
     21 C15       -58.7010   41.7430  -19.2800 C.ar      1 PYV201      0.0000 
     22 C16       -57.4290   41.4150  -19.7280 C.ar      1 PYV201      0.0000 
     23 H         -54.6812   41.8016  -20.6474 H         1 PYV201      0.0000 
     24 H         -56.4819   38.2307  -23.0270 H         1 PYV201      0.0000 
     25 H         -58.7526   38.0650  -23.7634 H         1 PYV201      0.0000 
     26 H         -55.7610   42.9083  -22.2554 H         1 PYV201      0.0000 
     27 H         -57.1356   44.8760  -22.4789 H         1 PYV201      0.0000 
     28 H         -59.4321   44.7055  -23.2058 H         1 PYV201      0.0000 
     29 H         -60.3799   42.5618  -23.7868 H         1 PYV201      0.0000 
     30 H         -54.6308   40.1571  -18.7730 H         1 PYV201      0.0000 
     31 H         -55.3311   38.9546  -19.8701 H         1 PYV201      0.0000 
     32 H         -58.9456   39.5324  -16.8311 H         1 PYV201      0.0000 
     33 H         -60.1987   41.2932  -17.8864 H         1 PYV201      0.0000 
     34 H         -59.2239   42.5049  -19.7453 H         1 PYV201      0.0000 
     35 H         -57.0114   41.9369  -20.5120 H         1 PYV201      0.0000 
@<TRIPOS>BOND
     1    4    1 1    
     2    5    1 2    
     3    8    1 2    
     4   10    1 1    
     5    3    2 1    
     6    6    3 ar   
     7   12    3 ar   
     8   17    4 1    
     9   23    4 1    
    10    9    6 ar   
    11   16    6 ar   
    12   18    7 ar   
    13   19    7 ar   
    14   10    9 ar   
    15   13    9 ar   
    16   11   10 ar   
    17   12   11 ar   
    18   24   11 1    
    19   25   12 1    
    20   14   13 ar   
    21   26   13 1    
    22   15   14 ar   
    23   27   14 1    
    24   16   15 ar   
    25   28   15 1    
    26   29   16 1    
    27   18   17 1    
    28   30   17 1    
    29   31   17 1    
    30   22   18 ar   
    31   20   19 ar   
    32   32   19 1    
    33   21   20 ar   
    34   33   20 1    
    35   22   21 ar   
    36   34   21 1    
    37   35   22 1    
@<TRIPOS>SUBSTRUCTURE
     1 PYV201      1 GROUP   
@<TRIPOS>SET

