#    Name: 4b6c_B5U_1_INTS_M
#    Modification time : Tue Mar 25 06:47:28 2014

@<TRIPOS>MOLECULE
4b6c_B5U_1_INTS_M
   79     0     6     0     0
SMALL
NO_CHARGES


@<TRIPOS>ATOM
      1 CA         26.6450   38.8500   79.4080 C.3       2 GLC5        0.0000 
      2 CA         27.6240   37.1060   78.4500 C.3       6 GLL5        0.0000 
      3 CA         25.6660   40.5940   80.3660 C.3       4 GLP5        0.0000 
      4 CA         29.3925   36.7260   77.9505 C.3       2 GLC5        0.0000 
      5 CA         31.1610   36.3460   77.4510 C.3       4 GLP5        0.0000 
      6 CA         28.4675   38.8515   78.5925 C.3       2 GLC5        0.0000 
      7 CA         29.3110   40.5970   78.7350 C.3       4 GLP5        0.0000 
      8 CA         24.7005   38.2185   78.7260 C.3       2 GLC5        0.0000 
      9 CA         25.3820   36.1080   79.0190 C.3       6 GLL5        0.0000 
     10 CA         24.0190   40.3290   78.4330 C.3       4 GLP5        0.0000 
     11 CA         28.1315   32.9555   75.7550 C.3       2 GLC5        0.0000 
     12 CA         27.6970   35.1160   76.1360 C.3       6 GLL5        0.0000 
     13 CA         28.5660   30.7950   75.3740 C.3       4 GLP5        0.0000 
     14 CA         28.5260   34.0035   77.8400 C.3       2 GLC5        0.0000 
     15 CA         29.3550   32.8910   79.5440 C.3       4 GLP5        0.0000 
     16 CA         29.4290   35.7310   76.7935 C.3       2 GLC5        0.0000 
     17 CA         22.7325   31.6340   78.5775 C.3       2 GLC5        0.0000 
     18 CA         23.3350   32.1500   76.8340 C.3       6 GLL5        0.0000 
     19 CA         22.1300   31.1180   80.3210 C.3       4 GLP5        0.0000 
     20 CA         23.8130   30.1545   76.7920 C.3       2 GLC5        0.0000 
     21 CA         24.2910   28.1590   76.7500 C.3       4 GLP5        0.0000 
     22 CA         21.5355   34.8200   76.8775 C.3       2 GLC5        0.0000 
     23 CA         20.9370   33.0150   77.7810 C.3       6 GLL5        0.0000 
     24 CA         22.1340   36.6250   75.9740 C.3       4 GLP5        0.0000 
     25 O          18.5205   35.2830   79.7685 O.2       1 ALC1        0.0000 
     26 O          19.6550   34.6520   79.0390 O.2       5 ALL1        0.0000 
     27 O          17.3860   35.9140   80.4980 O.2       3 ALP1        0.0000 
     28 CA         16.3885   27.5645   76.2390 C.3       2 GLC5        0.0000 
     29 CA         18.3950   27.6530   76.5630 C.3       6 GLL5        0.0000 
     30 CA         14.3820   27.4760   75.9150 C.3       4 GLP5        0.0000 
     31 CA         16.6805   28.4820   77.6515 C.3       2 GLC5        0.0000 
     32 CA         18.6310   28.9690   76.9560 C.3       6 GLL5        0.0000 
     33 CA         14.7300   27.9950   78.3470 C.3       4 GLP5        0.0000 
     34 CA         20.3510   25.1610   76.0800 C.3       2 GLC5        0.0000 
     35 CA         19.6360   25.1590   74.1220 C.3       6 GLL5        0.0000 
     36 CA         21.0660   25.1630   78.0380 C.3       4 GLP5        0.0000 
     37 CA         18.7375   23.7245   71.5720 C.3       2 GLC5        0.0000 
     38 CA         19.0370   23.8220   73.7660 C.3       6 GLL5        0.0000 
     39 CA         18.4380   23.6270   69.3780 C.3       4 GLP5        0.0000 
     40 CA         17.9945   21.3375   74.6650 C.3       2 GLC5        0.0000 
     41 CA         19.2590   22.6550   74.7280 C.3       6 GLL5        0.0000 
     42 CA         16.7300   20.0200   74.6020 C.3       4 GLP5        0.0000 
     43 CA         20.9145   23.4225   77.2050 C.3       2 GLC5        0.0000 
     44 CA         20.7630   21.6820   76.3720 C.3       6 GLL5        0.0000 
     45 CA         19.5285   20.3305   76.2520 C.3       2 GLC5        0.0000 
     46 CA         18.2940   18.9790   76.1320 C.3       4 GLP5        0.0000 
     47 CA         22.0545   22.8455   77.8405 C.3       2 GLC5        0.0000 
     48 CA         22.2040   21.3390   76.7200 C.3       6 GLL5        0.0000 
     49 CA         21.9050   24.3520   78.9610 C.3       4 GLP5        0.0000 
     50 CA         19.5640   20.3475   74.4330 C.3       2 GLC5        0.0000 
     51 CA         21.2940   21.4880   74.0350 C.3       6 GLL5        0.0000 
     52 CA         17.8340   19.2070   74.8310 C.3       4 GLP5        0.0000 
     53 CA         26.4228   34.4130   79.4020 C.3       2 GLC5        0.0000 
     54 CA         26.8990   32.7190   80.1990 C.3       4 GLP5        0.0000 
     55 CA         23.4965   36.1465   77.4447 C.3       2 GLC5        0.0000 
     56 CA         24.2205   36.0760   80.7757 C.3       2 GLC5        0.0000 
     57 CA         24.3360   35.2280   78.8120 C.3       6 GLL5        0.0000 
     58 CA         23.5820   36.4840   82.6360 C.3       4 GLP5        0.0000 
     59 CA         25.6273   33.7370   79.2475 C.3       2 GLC5        0.0000 
     60 CA         26.4540   33.7302   78.6043 C.3       2 GLC5        0.0000 
     61 CA         25.4790   34.2910   76.9250 C.3       6 GLL5        0.0000 
     62 CA         23.1050   35.2264   76.7086 C.3       2 GLC5        0.0000 
     63 CA         24.3750   34.2820   77.7800 C.3       6 GLL5        0.0000 
     64 CA         23.5176   33.0585   79.3815 C.3       2 GLC5        0.0000 
     65 CA         23.2250   33.3690   77.5340 C.3       6 GLL5        0.0000 
     66 CA         23.2450   32.0550   80.8480 C.3       4 GLP5        0.0000 
     67 CA         21.5703   31.7527   78.8815 C.3       2 GLC5        0.0000 
     68 CA         20.0815   29.0613   78.6208 C.3       2 GLC5        0.0000 
     69 CA         19.7590   29.6520   76.4950 C.3       6 GLL5        0.0000 
     70 CA         20.9680   28.8120   80.5160 C.3       4 GLP5        0.0000 
     71 CA         20.7312   27.9518   77.2650 C.3       2 GLC5        0.0000 
     72 CA         21.2750   26.5660   78.4920 C.3       4 GLP5        0.0000 
     73 CA         22.3955   28.2630   76.0668 C.3       2 GLC5        0.0000 
     74 CA         20.6160   29.0230   75.5810 C.3       6 GLL5        0.0000 
     75 CA         20.5517   26.9662   76.9610 C.3       2 GLC5        0.0000 
     76 CA         20.3840   27.7110   75.1860 C.3       6 GLL5        0.0000 
     77 CA         19.8940   27.4385   77.6258 C.3       2 GLC5        0.0000 
     78 CA         21.0572   20.0530   72.9877 C.3       2 GLC5        0.0000 
     79 CA         20.1010   18.7770   71.7590 C.3       4 GLP5        0.0000 
@<TRIPOS>BOND
@<TRIPOS>SUBSTRUCTURE
     1 ALC1       25 GROUP        1 X    ALC  0     ROOT ALC X 1
     2 GLC5        1 GROUP        1 X    GLC  0     **** GLC X 6
     3 ALP1       27 GROUP        1 Y    ALP  0     ROOT ALP Y 8
     4 GLP5        3 GROUP        1 Y    GLP  0     **** GLP Y 13
     5 ALL1       26 GROUP        1 Z    ALL  0     ROOT ALL Z 15
     6 GLL5        2 GROUP        1 Z    GLL  0     **** GLL Z 20
@<TRIPOS>SET

