#    Name: 4b6c_B5U_1_ligand
#    Modification time : Tue Mar 25 06:47:28 2014

@<TRIPOS>MOLECULE
4b6c_B5U_1_ligand
   70    73     1     0     0
SMALL
NO_CHARGES


@<TRIPOS>ATOM
      1 C1         27.6240   37.1060   78.4500 C.3       1 B5U1256     0.0000 
      2 C2         26.5110   36.1060   78.1910 C.ar      1 B5U1256     0.0000 
      3 C3         25.3820   36.1080   79.0190 C.ar      1 B5U1256     0.0000 
      4 C4         24.3360   35.2280   78.8120 C.ar      1 B5U1256     0.0000 
      5 C5         24.3750   34.2820   77.7800 C.ar      1 B5U1256     0.0000 
      6 C6         25.4790   34.2910   76.9250 C.ar      1 B5U1256     0.0000 
      7 C7         26.5390   35.1920   77.0940 C.ar      1 B5U1256     0.0000 
      8 C8         27.6970   35.1160   76.1360 C.3       1 B5U1256     0.0000 
      9 C9         23.2250   33.3690   77.5340 C.ar      1 B5U1256     0.0000 
     10 C10        23.3350   32.1500   76.8340 C.ar      1 B5U1256     0.0000 
     11 N11        22.2790   31.3340   76.6280 N.ar      1 B5U1256     0.0000 
     12 C12        21.0840   31.7600   77.1030 C.ar      1 B5U1256     0.0000 
     13 C13        20.9370   33.0150   77.7810 C.ar      1 B5U1256     0.0000 
     14 N14        22.0220   33.7900   77.9930 N.ar      1 B5U1256     0.0000 
     15 C15        19.6180   33.4950   78.3890 C.2       1 B5U1256     0.0000 
     16 O16        18.5940   32.8090   78.2930 O.2       1 B5U1256     0.0000 
     17 N17        19.6550   34.6520   79.0390 N.am      1 B5U1256     0.0000 
     18 N18        19.9460   30.9980   76.9060 N.pl3     1 B5U1256     0.0000 
     19 C19        19.7590   29.6520   76.4950 C.ar      1 B5U1256     0.0000 
     20 C20        20.6160   29.0230   75.5810 C.ar      1 B5U1256     0.0000 
     21 C21        20.3840   27.7110   75.1860 C.ar      1 B5U1256     0.0000 
     22 C22        19.2730   27.0220   75.6740 C.ar      1 B5U1256     0.0000 
     23 C23        18.3950   27.6530   76.5630 C.ar      1 B5U1256     0.0000 
     24 C24        18.6310   28.9690   76.9560 C.ar      1 B5U1256     0.0000 
     25 O25        18.9920   25.7230   75.2820 O.3       1 B5U1256     0.0000 
     26 C26        19.6360   25.1590   74.1220 C.3       1 B5U1256     0.0000 
     27 C27        19.0370   23.8220   73.7660 C.3       1 B5U1256     0.0000 
     28 C28        19.2590   22.6550   74.7280 C.3       1 B5U1256     0.0000 
     29 N29        20.6740   22.3480   75.0580 N.4       1 B5U1256     0.0000 
     30 C30        20.7630   21.6820   76.3720 C.3       1 B5U1256     0.0000 
     31 C31        22.2040   21.3390   76.7200 C.3       1 B5U1256     0.0000 
     32 N32        22.8020   20.4920   75.6920 N.3       1 B5U1256     0.0000 
     33 C33        22.7330   21.1700   74.3980 C.3       1 B5U1256     0.0000 
     34 C34        21.2940   21.4880   74.0350 C.3       1 B5U1256     0.0000 
     35 C35        24.1860   20.1630   76.0320 C.3       1 B5U1256     0.0000 
     36 H          25.3366   36.7871   79.8024 H         1 B5U1256     0.0000 
     37 H          23.5029   35.2628   79.4286 H         1 B5U1256     0.0000 
     38 H          25.5177   33.6111   76.1404 H         1 B5U1256     0.0000 
     39 H          24.2840   31.8895   76.4693 H         1 B5U1256     0.0000 
     40 H          20.5505   35.0924   79.1028 H         1 B5U1256     0.0000 
     41 H          18.7840   34.9785   79.4060 H         1 B5U1256     0.0000 
     42 H          18.9891   31.5312   77.1045 H         1 B5U1256     0.0000 
     43 H          21.4214   29.5413   75.2029 H         1 B5U1256     0.0000 
     44 H          21.0288   27.2462   74.5349 H         1 B5U1256     0.0000 
     45 H          17.5800   27.1452   76.9231 H         1 B5U1256     0.0000 
     46 H          17.9715   29.4416   77.5893 H         1 B5U1256     0.0000 
     47 H          20.7147   25.0193   74.2986 H         1 B5U1256     0.0000 
     48 H          19.5351   25.8267   73.2512 H         1 B5U1256     0.0000 
     49 H          19.4132   23.5141   72.7535 H         1 B5U1256     0.0000 
     50 H          17.9303   23.9474   73.6213 H         1 B5U1256     0.0000 
     51 H          18.7708   21.7519   74.2918 H         1 B5U1256     0.0000 
     52 H          18.6929   22.8691   75.6650 H         1 B5U1256     0.0000 
     53 H          21.2321   23.2876   75.1108 H         1 B5U1256     0.0000 
     54 H          20.1746   20.7560   76.3712 H         1 B5U1256     0.0000 
     55 H          20.3600   22.3329   77.1579 H         1 B5U1256     0.0000 
     56 H          22.2124   20.8334   77.6944 H         1 B5U1256     0.0000 
     57 H          22.7653   22.2763   76.8271 H         1 B5U1256     0.0000 
     58 H          23.1596   20.5405   73.6076 H         1 B5U1256     0.0000 
     59 H          23.3007   22.1082   74.4215 H         1 B5U1256     0.0000 
     60 H          21.2811   21.9855   73.0585 H         1 B5U1256     0.0000 
     61 H          20.7407   20.5467   73.9405 H         1 B5U1256     0.0000 
     62 H          28.0155   36.9976   79.3638 H         1 B5U1256     0.0000 
     63 H          28.3737   37.0049   77.7960 H         1 B5U1256     0.0000 
     64 H          27.2994   38.0493   78.3803 H         1 B5U1256     0.0000 
     65 H          28.5511   34.8874   76.6032 H         1 B5U1256     0.0000 
     66 H          27.5522   34.4199   75.4328 H         1 B5U1256     0.0000 
     67 H          27.8451   35.9844   75.6627 H         1 B5U1256     0.0000 
     68 H          24.6117   19.5841   75.3366 H         1 B5U1256     0.0000 
     69 H          24.7523   20.9827   76.1178 H         1 B5U1256     0.0000 
     70 H          24.2483   19.6715   76.9007 H         1 B5U1256     0.0000 
@<TRIPOS>BOND
     1    2    1 1    
     2   62    1 1    
     3   63    1 1    
     4   64    1 1    
     5    3    2 ar   
     6    7    2 ar   
     7    4    3 ar   
     8   36    3 1    
     9    5    4 ar   
    10   37    4 1    
    11    6    5 ar   
    12    9    5 1    
    13    7    6 ar   
    14   38    6 1    
    15    8    7 1    
    16   65    8 1    
    17   66    8 1    
    18   67    8 1    
    19   10    9 ar   
    20   14    9 ar   
    21   11   10 ar   
    22   39   10 1    
    23   12   11 ar   
    24   13   12 ar   
    25   18   12 1    
    26   14   13 ar   
    27   15   13 1    
    28   16   15 2    
    29   17   15 am   
    30   40   17 1    
    31   41   17 1    
    32   19   18 1    
    33   42   18 1    
    34   20   19 ar   
    35   24   19 ar   
    36   21   20 ar   
    37   43   20 1    
    38   22   21 ar   
    39   44   21 1    
    40   23   22 ar   
    41   25   22 1    
    42   24   23 ar   
    43   45   23 1    
    44   46   24 1    
    45   26   25 1    
    46   27   26 1    
    47   47   26 1    
    48   48   26 1    
    49   28   27 1    
    50   49   27 1    
    51   50   27 1    
    52   29   28 1    
    53   51   28 1    
    54   52   28 1    
    55   30   29 1    
    56   34   29 1    
    57   53   29 1    
    58   31   30 1    
    59   54   30 1    
    60   55   30 1    
    61   32   31 1    
    62   56   31 1    
    63   57   31 1    
    64   33   32 1    
    65   35   32 1    
    66   34   33 1    
    67   58   33 1    
    68   59   33 1    
    69   60   34 1    
    70   61   34 1    
    71   68   35 1    
    72   69   35 1    
    73   70   35 1    
@<TRIPOS>SUBSTRUCTURE
     1 B5U1256     1 GROUP   
@<TRIPOS>SET

