#    Name: 4h1m_0YJ_1_INTS_M
#    Modification time : Tue Mar 25 00:06:53 2014

@<TRIPOS>MOLECULE
4h1m_0YJ_1_INTS_M
   93     0     9     0     0
SMALL
NO_CHARGES


@<TRIPOS>ATOM
      1 CA          2.4780   -9.3205   18.5335 C.3       3 GLC5        0.0000 
      2 CA          1.5140   -8.0420   17.6230 C.3       9 GLL5        0.0000 
      3 CA          3.4420  -10.5990   19.4440 C.3       6 GLP5        0.0000 
      4 CA         -0.0040   -9.1920   17.8475 C.3       3 GLC5        0.0000 
      5 CA         -1.5220  -10.3420   18.0720 C.3       6 GLP5        0.0000 
      6 CA         -7.9190    0.8495    9.7000 C.3       3 GLC5        0.0000 
      7 CA         -7.0130    2.6060    9.0150 C.3       9 GLL5        0.0000 
      8 CA         -8.8250   -0.9070   10.3850 C.3       6 GLP5        0.0000 
      9 CA         -8.6475    2.1020    8.5660 C.3       3 GLC5        0.0000 
     10 CA        -10.2820    1.5980    8.1170 C.3       6 GLP5        0.0000 
     11 CA         -7.4930    4.1985    7.8135 C.3       3 GLC5        0.0000 
     12 CA         -7.9730    5.7910    6.6120 C.3       6 GLP5        0.0000 
     13 CA         -5.9265    0.7130    6.8380 C.3       3 GLC5        0.0000 
     14 CA         -4.9140    1.6070    8.2010 C.3       9 GLL5        0.0000 
     15 CA         -6.9390   -0.1810    5.4750 C.3       6 GLP5        0.0000 
     16 CA         -3.3220    3.0360    8.7180 C.3       3 GLC5        0.0000 
     17 CA         -1.7300    4.4650    9.2350 C.3       6 GLP5        0.0000 
     18 CA         -3.1530    2.0000    7.0350 C.3       3 GLC5        0.0000 
     19 CA         -1.3920    2.3930    5.8690 C.3       6 GLP5        0.0000 
     20 CA         -3.5255    0.2535    8.3305 C.3       3 GLC5        0.0000 
     21 CA         -2.1370   -1.1000    8.4600 C.3       6 GLP5        0.0000 
     22 CA         -5.1835    4.6935    8.3840 C.3       3 GLC5        0.0000 
     23 CA         -4.8720    3.4050    9.9310 C.3       9 GLL5        0.0000 
     24 CA         -5.4950    5.9820    6.8370 C.3       6 GLP5        0.0000 
     25 CA         -3.3010    3.9350    9.5830 C.3       3 GLC5        0.0000 
     26 CA         -3.5925    2.2795   11.2005 C.3       3 GLC5        0.0000 
     27 CA         -2.3130    1.1540   12.4700 C.3       6 GLP5        0.0000 
     28 CA         -1.8815   -7.0825    8.7305 C.3       3 GLC5        0.0000 
     29 CA         -3.2640   -6.9730   10.4550 C.3       9 GLL5        0.0000 
     30 CA         -0.4990   -7.1920    7.0060 C.3       6 GLP5        0.0000 
     31 CA         -1.3175   -9.0535   10.2295 C.3       3 GLC5        0.0000 
     32 CA         -2.3840   -7.4880   11.3770 C.3       9 GLL5        0.0000 
     33 CA         -0.2510  -10.6190    9.0820 C.3       6 GLP5        0.0000 
     34 CA         -4.5085   -4.6490    9.3165 C.3       3 GLC5        0.0000 
     35 CA         -4.0580   -5.8630   10.7630 C.3       9 GLL5        0.0000 
     36 CA         -4.9590   -3.4350    7.8700 C.3       6 GLP5        0.0000 
     37 CA         -9.3870   -0.4530   15.7400 C.3       3 GLC5        0.0000 
     38 CA         -8.1360    0.8760   15.6480 C.3       9 GLL5        0.0000 
     39 CA        -10.6380   -1.7820   15.8320 C.3       6 GLP5        0.0000 
     40 CA         -9.9805    2.0385   15.2105 C.3       3 GLC5        0.0000 
     41 CA        -11.8250    3.2010   14.7730 C.3       6 GLP5        0.0000 
     42 CA         -3.9720    0.4940   13.7055 C.3       3 GLC5        0.0000 
     43 CA         -5.6310   -0.1660   14.9410 C.3       9 GLL5        0.0000 
     44 CA         -1.7645   -8.8600   15.2245 C.3       3 GLC5        0.0000 
     45 CA         -1.5180   -7.1850   13.8080 C.3       9 GLL5        0.0000 
     46 CA         -2.0110  -10.5350   16.6410 C.3       6 GLP5        0.0000 
     47 CA         -5.1745   -1.8140    9.2345 C.3       3 GLC5        0.0000 
     48 CA         -5.3900   -0.1930   10.5990 C.3       9 GLL5        0.0000 
     49 CA         -3.7635   -0.6465    9.5295 C.3       3 GLC5        0.0000 
     50 CA         -5.5200   -6.5080   11.9975 C.3       3 GLC5        0.0000 
     51 CA         -3.9630   -5.2630   12.0160 C.3       9 GLL5        0.0000 
     52 CA         -7.0770   -7.7530   11.9790 C.3       6 GLP5        0.0000 
     53 CA         -3.6180   -6.5855   15.6395 C.3       3 GLC5        0.0000 
     54 CA         -1.8360   -6.2690   14.7570 C.3       9 GLL5        0.0000 
     55 CA         -5.4000   -6.9020   16.5220 C.3       6 GLP5        0.0000 
     56 CA         -4.2425   -6.3450   14.7470 C.3       3 GLC5        0.0000 
     57 CA         -3.0850   -5.7880   12.9720 C.3       9 GLL5        0.0000 
     58 CA         -0.7370   -7.9285   18.1350 C.3       3 GLC5        0.0000 
     59 CA          0.6380   -6.7910   17.5970 C.3       9 GLL5        0.0000 
     60 CA         -2.1120   -9.0660   18.6730 C.3       6 GLP5        0.0000 
     61 O          -5.5035   -3.8365   13.4565 O.2       1 ALC1        0.0000 
     62 O          -4.7250   -4.1530   12.3950 O.2       7 ALL1        0.0000 
     63 O          -6.2820   -3.5200   14.5180 O.2       4 ALP1        0.0000 
     64 O          -5.8810   -2.7570   13.4195 O.2       1 ALC1        0.0000 
     65 O          -5.4800   -1.9940   12.3210 O.2       7 ALL1        0.0000 
     66 N          -3.2380   -5.1620   17.1875 N.am      2 SEC2        0.0000 
     67 N          -1.8650   -5.5980   16.9800 N.am      8 SEL2        0.0000 
     68 N          -4.6110   -4.7260   17.3950 N.am      5 SEP2        0.0000 
     69 N          -2.9710   -1.6930   10.7865 N.am      2 SEC2        0.0000 
     70 N          -4.0460   -2.7260   10.7650 N.am      8 SEL2        0.0000 
     71 N          -1.8960   -0.6600   10.8080 N.am      5 SEP2        0.0000 
     72 CA         -8.4202   -1.0640   16.7935 C.3       3 GLC5        0.0000 
     73 CA         -7.2640    0.3940   16.6210 C.3       9 GLL5        0.0000 
     74 CA         -9.3760   -2.5360   16.2380 C.3       6 GLP5        0.0000 
     75 CA          0.0713   -6.2092   19.5785 C.3       3 GLC5        0.0000 
     76 CA         -0.9090   -6.2540   21.4150 C.3       6 GLP5        0.0000 
     77 CA         -2.9575   -9.0762   11.7225 C.3       3 GLC5        0.0000 
     78 CA         -3.0910  -10.9220   12.5290 C.3       6 GLP5        0.0000 
     79 CA         -4.9625   -7.5479   10.8377 C.3       3 GLC5        0.0000 
     80 CA         -6.4840   -8.5490   10.8360 C.3       6 GLP5        0.0000 
     81 CA         -7.1740   -1.5473   15.3270 C.3       3 GLC5        0.0000 
     82 CA         -8.5240   -2.9510   15.0470 C.3       6 GLP5        0.0000 
     83 CA         -7.8267   -1.1953   14.5922 C.3       3 GLC5        0.0000 
     84 CA         -6.5010    0.3030   13.9580 C.3       9 GLL5        0.0000 
     85 CA         -7.9772   -0.1733   12.2613 C.3       3 GLC5        0.0000 
     86 CA         -7.7580    0.8180   14.3170 C.3       9 GLL5        0.0000 
     87 CA         -2.4968   -8.9830   12.8803 C.3       3 GLC5        0.0000 
     88 CA         -2.2870   -6.9030   12.6550 C.3       9 GLL5        0.0000 
     89 CA         -0.3450   -5.2620   13.8813 C.3       3 GLC5        0.0000 
     90 CA          0.9870   -3.7970   13.4800 C.3       6 GLP5        0.0000 
     91 CA         -7.1650   -0.6733   10.8055 C.3       3 GLC5        0.0000 
     92 CA         -5.6200   -0.6860   11.8530 C.3       9 GLL5        0.0000 
     93 CA         -3.9090    0.3572   11.8480 C.3       3 GLC5        0.0000 
@<TRIPOS>BOND
@<TRIPOS>SUBSTRUCTURE
     1 ALC1       61 GROUP        1 X    ALC  0     ROOT ALC X 1
     2 SEC2       66 GROUP        1 X    SEC  0     **** SEC X 2
     3 GLC5        1 GROUP        1 X    GLC  0     **** GLC X 6
     4 ALP1       63 GROUP        1 Y    ALP  0     ROOT ALP Y 8
     5 SEP2       68 GROUP        1 Y    SEP  0     **** SEP Y 9
     6 GLP5        3 GROUP        1 Y    GLP  0     **** GLP Y 13
     7 ALL1       62 GROUP        1 Z    ALL  0     ROOT ALL Z 15
     8 SEL2       67 GROUP        1 Z    SEL  0     **** SEL Z 16
     9 GLL5        2 GROUP        1 Z    GLL  0     **** GLL Z 20
@<TRIPOS>SET

