#    Name: 4h1m_0YJ_1_ligand
#    Modification time : Tue Mar 25 00:06:53 2014

@<TRIPOS>MOLECULE
4h1m_0YJ_1_ligand
   67    70     1     0     0
SMALL
NO_CHARGES


@<TRIPOS>ATOM
      1 C1         -7.6650    0.4220   18.0770 C.3       1 0YJ701      0.0000 
      2 C2          1.4650   -5.5380   17.8870 C.3       1 0YJ701      0.0000 
      3 C3          1.5140   -8.0420   17.6230 C.3       1 0YJ701      0.0000 
      4 C4         -7.0130    2.6060    9.0150 C.3       1 0YJ701      0.0000 
      5 C5         -4.9140    1.6070    8.2010 C.3       1 0YJ701      0.0000 
      6 C6         -4.8720    3.4050    9.9310 C.3       1 0YJ701      0.0000 
      7 C7         -3.2640   -6.9730   10.4550 C.ar      1 0YJ701      0.0000 
      8 C8         -2.3840   -7.4880   11.3770 C.ar      1 0YJ701      0.0000 
      9 C9         -4.0580   -5.8630   10.7630 C.ar      1 0YJ701      0.0000 
     10 C10        -6.0170   -0.1210   16.2730 C.ar      1 0YJ701      0.0000 
     11 C11        -8.1360    0.8760   15.6480 C.ar      1 0YJ701      0.0000 
     12 C12        -5.6310   -0.1660   14.9410 C.ar      1 0YJ701      0.0000 
     13 C13        -7.7580    0.8180   14.3170 C.ar      1 0YJ701      0.0000 
     14 C14        -1.5180   -7.1850   13.8080 C.2       1 0YJ701      0.0000 
     15 C15        -5.3900   -0.1930   10.5990 C.2       1 0YJ701      0.0000 
     16 C16        -7.2640    0.3940   16.6210 C.ar      1 0YJ701      0.0000 
     17 C17        -6.5010    0.3030   13.9580 C.ar      1 0YJ701      0.0000 
     18 C18        -2.2870   -6.9030   12.6550 C.ar      1 0YJ701      0.0000 
     19 C19        -3.9630   -5.2630   12.0160 C.ar      1 0YJ701      0.0000 
     20 C20        -1.8360   -6.2690   14.7570 C.2       1 0YJ701      0.0000 
     21 C21        -5.7190    1.1650   10.5890 C.2       1 0YJ701      0.0000 
     22 C22        -5.6200   -0.6860   11.8530 C.2       1 0YJ701      0.0000 
     23 C23        -3.0850   -5.7880   12.9720 C.ar      1 0YJ701      0.0000 
     24 C24         0.6380   -6.7910   17.5970 C.3       1 0YJ701      0.0000 
     25 C25        -1.2620   -6.1940   16.0970 C.2       1 0YJ701      0.0000 
     26 C26        -4.7090   -2.9470   11.7730 C.2       1 0YJ701      0.0000 
     27 C27        -5.6180    2.1610    9.4430 C.3       1 0YJ701      0.0000 
     28 N28        -2.7990   -5.4200   14.2620 N.pl3     1 0YJ701      0.0000 
     29 N29        -6.1220    1.4620   11.7920 N.2       1 0YJ701      0.0000 
     30 N30        -4.7250   -4.1530   12.3950 N.am      1 0YJ701      0.0000 
     31 N31        -5.4800   -1.9940   12.3210 N.am      1 0YJ701      0.0000 
     32 N32        -0.0410   -6.7470   16.2990 N.am      1 0YJ701      0.0000 
     33 N33        -6.1050    0.3320   12.6040 N.pl3     1 0YJ701      0.0000 
     34 O34        -1.8650   -5.5980   16.9800 O.2       1 0YJ701      0.0000 
     35 O35        -4.0460   -2.7260   10.7650 O.2       1 0YJ701      0.0000 
     36 H          -3.3482   -7.4046    9.5174 H         1 0YJ701      0.0000 
     37 H          -1.7927   -8.2959   11.1499 H         1 0YJ701      0.0000 
     38 H          -4.7109   -5.4924   10.0620 H         1 0YJ701      0.0000 
     39 H          -5.3839   -0.4675   17.0060 H         1 0YJ701      0.0000 
     40 H          -9.0420    1.2667   15.9163 H         1 0YJ701      0.0000 
     41 H          -4.7139   -0.5406   14.6789 H         1 0YJ701      0.0000 
     42 H          -8.3947    1.1516   13.5803 H         1 0YJ701      0.0000 
     43 H          -0.8963   -7.8990   13.8732 H         1 0YJ701      0.0000 
     44 H          -5.0612   -0.6788    9.8471 H         1 0YJ701      0.0000 
     45 H          -0.1035   -6.9047   18.3914 H         1 0YJ701      0.0000 
     46 H          -3.2007   -4.6944   14.7401 H         1 0YJ701      0.0000 
     47 H          -5.3639   -4.2812   13.2416 H         1 0YJ701      0.0000 
     48 H          -6.0495   -2.2400   13.2008 H         1 0YJ701      0.0000 
     49 H           0.4889   -7.1838   15.5012 H         1 0YJ701      0.0000 
     50 H          -7.6831   -0.4952   18.4749 H         1 0YJ701      0.0000 
     51 H          -7.0317    0.9673   18.6262 H         1 0YJ701      0.0000 
     52 H          -8.5759    0.8146   18.2039 H         1 0YJ701      0.0000 
     53 H           1.9041   -5.5823   18.7843 H         1 0YJ701      0.0000 
     54 H           2.1908   -5.4075   17.2116 H         1 0YJ701      0.0000 
     55 H           0.9027   -4.7112   17.8763 H         1 0YJ701      0.0000 
     56 H           2.2455   -7.9974   16.9426 H         1 0YJ701      0.0000 
     57 H           1.9497   -8.1718   18.5137 H         1 0YJ701      0.0000 
     58 H           0.9858   -8.8693   17.4317 H         1 0YJ701      0.0000 
     59 H          -6.9769    3.3138    8.3095 H         1 0YJ701      0.0000 
     60 H          -7.5467    1.8471    8.6418 H         1 0YJ701      0.0000 
     61 H          -7.5342    2.9821    9.7811 H         1 0YJ701      0.0000 
     62 H          -3.9868    1.2948    8.4079 H         1 0YJ701      0.0000 
     63 H          -5.4056    0.8279    7.8119 H         1 0YJ701      0.0000 
     64 H          -4.8374    2.2952    7.4795 H         1 0YJ701      0.0000 
     65 H          -3.9414    3.1882   10.2259 H         1 0YJ701      0.0000 
     66 H          -4.7983    4.0988    9.2146 H         1 0YJ701      0.0000 
     67 H          -5.3332    3.8337   10.7078 H         1 0YJ701      0.0000 
@<TRIPOS>BOND
     1   16    1 1    
     2   50    1 1    
     3   51    1 1    
     4   52    1 1    
     5   24    2 1    
     6   53    2 1    
     7   54    2 1    
     8   55    2 1    
     9   24    3 1    
    10   56    3 1    
    11   57    3 1    
    12   58    3 1    
    13   27    4 1    
    14   59    4 1    
    15   60    4 1    
    16   61    4 1    
    17   27    5 1    
    18   62    5 1    
    19   63    5 1    
    20   64    5 1    
    21   27    6 1    
    22   65    6 1    
    23   66    6 1    
    24   67    6 1    
    25    8    7 ar   
    26    9    7 ar   
    27   36    7 1    
    28   18    8 ar   
    29   37    8 1    
    30   19    9 ar   
    31   38    9 1    
    32   12   10 ar   
    33   16   10 ar   
    34   39   10 1    
    35   13   11 ar   
    36   16   11 ar   
    37   40   11 1    
    38   17   12 ar   
    39   41   12 1    
    40   17   13 ar   
    41   42   13 1    
    42   18   14 1    
    43   20   14 2    
    44   43   14 1    
    45   21   15 1    
    46   22   15 2    
    47   44   15 1    
    48   33   17 1    
    49   23   18 ar   
    50   23   19 ar   
    51   30   19 1    
    52   25   20 1    
    53   28   20 1    
    54   27   21 1    
    55   29   21 2    
    56   31   22 1    
    57   33   22 1    
    58   28   23 1    
    59   32   24 1    
    60   45   24 1    
    61   32   25 am   
    62   34   25 2    
    63   30   26 am   
    64   31   26 am   
    65   35   26 2    
    66   46   28 1    
    67   33   29 1    
    68   47   30 1    
    69   48   31 1    
    70   49   32 1    
@<TRIPOS>SUBSTRUCTURE
     1 0YJ701      1 GROUP   
@<TRIPOS>SET

