#    Name: 4G56_1_CAVITY_N1_6.mol2
#    Modification time : Mon Mar 10 22:34:48 2014

@<TRIPOS>MOLECULE
4G56_1_CAVITY_N1_6.mol2
   44     0     5     0     0
SMALL
NO_CHARGES


@<TRIPOS>ATOM
      1 CA        108.1841  -23.1743  125.5532 C.3       4 GLY6        0.0000 
      2 NZ        105.0149  -19.0248  126.9631 N.2       2 LYS4        0.0000 
      3 NZ        105.6058  -20.3404  127.3756 N.2       2 LYS4        0.0000 
      4 NZ        106.1968  -21.6559  127.7881 N.2       2 LYS4        0.0000 
      5 CZ        102.0394  -22.4809  125.6585 C.ar      3 PHE5        0.0000 
      6 CA        102.6303  -23.7964  126.0710 C.3       4 GLY6        0.0000 
      7 N         101.8387  -18.2200  128.6257 N.2       1 ALA2        0.0000 
      8 N         102.4296  -19.5355  129.0382 N.2       1 ALA2        0.0000 
      9 N         103.0206  -20.8510  129.4507 N.2       1 ALA2        0.0000 
     10 CA        103.6115  -22.1666  129.8632 C.3       4 GLY6        0.0000 
     11 NZ        100.6499  -18.9335  128.0533 N.2       2 LYS4        0.0000 
     12 CA        101.2408  -20.2490  128.4658 C.3       4 GLY6        0.0000 
     13 CA        101.8318  -21.5645  128.8783 C.3       4 GLY6        0.0000 
     14 N         102.4227  -22.8801  129.2908 N.2       1 ALA2        0.0000 
     15 NZ        104.5243  -19.8397  125.0670 N.2       2 LYS4        0.0000 
     16 CA        105.1152  -21.1553  125.4795 C.3       4 GLY6        0.0000 
     17 N         105.7062  -22.4708  125.8920 N.2       1 ALA2        0.0000 
     18 N         106.2971  -23.7863  126.3045 N.2       1 ALA2        0.0000 
     19 CA        104.5174  -23.1843  125.3196 C.3       4 GLY6        0.0000 
     20 N         103.2351  -18.4228  125.9783 N.2       1 ALA2        0.0000 
     21 NZ        103.8261  -19.7383  126.3908 N.2       2 LYS4        0.0000 
     22 NZ        104.4170  -21.0539  126.8032 N.2       2 LYS4        0.0000 
     23 DU        105.0080  -22.3694  127.2157 H         5 CUB7        0.0000 
     24 CZ        102.6373  -20.4518  125.8184 C.ar      3 PHE5        0.0000 
     25 CA        103.2282  -21.7674  126.2309 C.3       4 GLY6        0.0000 
     26 CA        103.8191  -23.0829  126.6433 C.3       4 GLY6        0.0000 
     27 CA        108.6747  -22.3593  127.4493 C.3       4 GLY6        0.0000 
     28 NZ        106.8950  -21.7573  126.4644 N.2       2 LYS4        0.0000 
     29 N         107.4859  -23.0728  126.8769 N.2       1 ALA2        0.0000 
     30 CZ        101.3412  -22.3794  126.9822 C.ar      3 PHE5        0.0000 
     31 NZ        101.9321  -23.6950  127.3947 N.2       2 LYS4        0.0000 
     32 N         102.5369  -18.3214  127.3020 N.2       1 ALA2        0.0000 
     33 N         103.1279  -19.6369  127.7145 N.2       1 ALA2        0.0000 
     34 DU        103.7188  -20.9524  128.1270 H         5 CUB7        0.0000 
     35 CA        104.3097  -22.2680  128.5395 C.3       4 GLY6        0.0000 
     36 CZ        101.9390  -20.3504  127.1421 C.ar      3 PHE5        0.0000 
     37 DU        102.5300  -21.6659  127.5546 H         5 CUB7        0.0000 
     38 NZ        103.1209  -22.9815  127.9671 N.2       2 LYS4        0.0000 
     39 N         103.0275  -17.5065  129.1981 N.2       1 ALA2        0.0000 
     40 N         103.6185  -18.8220  129.6106 N.2       1 ALA2        0.0000 
     41 CA        104.2094  -20.1375  130.0231 C.3       4 GLY6        0.0000 
     42 N         104.3167  -18.9234  128.2869 N.2       1 ALA2        0.0000 
     43 CA        104.9076  -20.2389  128.6994 C.3       4 GLY6        0.0000 
     44 CA        105.4986  -21.5545  129.1118 C.3       4 GLY6        0.0000 
@<TRIPOS>BOND
@<TRIPOS>SUBSTRUCTURE
     1 ALA2        7 GROUP   
     2 LYS4        2 GROUP   
     3 PHE5        5 GROUP   
     4 GLY6        1 GROUP   
     5 CUB7       23 GROUP   
@<TRIPOS>SET

