#    Name: 4g56_SAH_1_INTS_M
#    Modification time : Mon Mar 24 21:23:39 2014

@<TRIPOS>MOLECULE
4g56_SAH_1_INTS_M
   86     0    15     0     0
SMALL
NO_CHARGES


@<TRIPOS>ATOM
      1 OD1       104.9625  -14.9370  123.7035 O.co2     3 ASC3        0.0000 
      2 OD1       105.6890  -16.0430  123.6340 O.co2    13 ASL3        0.0000 
      3 OD1       104.2360  -13.8310  123.7730 O.co2     8 ASP3        0.0000 
      4 OD1       105.1300  -15.1200  122.6330 O.co2     3 ASC3        0.0000 
      5 OD1       104.5710  -14.1970  121.6320 O.co2     8 ASP3        0.0000 
      6 O         106.6835  -15.3455  123.7335 O.2       1 ALC1        0.0000 
      7 O         105.6890  -16.0430  123.6340 O.2      11 ALL1        0.0000 
      8 O         107.6780  -14.6480  123.8330 O.2       6 ALP1        0.0000 
      9 O         104.9625  -14.9370  123.7035 O.2       1 ALC1        0.0000 
     10 O         104.2360  -13.8310  123.7730 O.2       6 ALP1        0.0000 
     11 O         105.1300  -15.1200  122.6330 O.2       1 ALC1        0.0000 
     12 O         104.5710  -14.1970  121.6320 O.2       6 ALP1        0.0000 
     13 CA        102.2365  -15.9040  124.1050 C.3       5 GLC5        0.0000 
     14 CA        103.5770  -17.0590  125.2470 C.3      15 GLL5        0.0000 
     15 CA        100.8960  -14.7490  122.9630 C.3      10 GLP5        0.0000 
     16 CA        100.7745  -18.2290  124.2930 C.3       5 GLC5        0.0000 
     17 CA        102.2120  -17.8990  125.9790 C.3      15 GLL5        0.0000 
     18 CA         99.3370  -18.5590  122.6070 C.3      10 GLP5        0.0000 
     19 N         107.9770  -17.4015  121.8885 N.am      2 SEC2        0.0000 
     20 N         106.4200  -17.9410  121.8490 N.am     12 SEL2        0.0000 
     21 N         109.5340  -16.8620  121.9280 N.am      7 SEP2        0.0000 
     22 NZ        107.9455  -20.4345  123.2465 N.4       4 LYC4        0.0000 
     23 NZ        107.0500  -19.3120  123.3270 N.4      14 LYL4        0.0000 
     24 NZ        108.8410  -21.5570  123.1660 N.4       9 LYP4        0.0000 
     25 N         107.9455  -20.4345  123.2465 N.am      2 SEC2        0.0000 
     26 N         107.0500  -19.3120  123.3270 N.am     12 SEL2        0.0000 
     27 N         108.8410  -21.5570  123.1660 N.am      7 SEP2        0.0000 
     28 N         107.2740  -19.2340  124.7760 N.am      2 SEC2        0.0000 
     29 N         107.4980  -19.1560  126.2250 N.am      7 SEP2        0.0000 
     30 CA        100.4330  -17.2030  130.1560 C.3       5 GLC5        0.0000 
     31 CA        100.5790  -17.1640  128.0140 C.3      15 GLL5        0.0000 
     32 CA        100.2870  -17.2420  132.2980 C.3      10 GLP5        0.0000 
     33 CA         99.0080  -19.2075  126.4580 C.3       5 GLC5        0.0000 
     34 CA         99.2970  -17.2280  127.1980 C.3      15 GLL5        0.0000 
     35 CA         98.7190  -21.1870  125.7180 C.3      10 GLP5        0.0000 
     36 N          97.7640  -19.1610  126.6860 N.am      2 SEC2        0.0000 
     37 N          98.7170  -18.5280  127.3240 N.am     12 SEL2        0.0000 
     38 N          96.8110  -19.7940  126.0480 N.am      7 SEP2        0.0000 
     39 O          98.1935  -18.6840  128.4855 O.2       1 ALC1        0.0000 
     40 O          98.7170  -18.5280  127.3240 O.2      11 ALL1        0.0000 
     41 O          97.6700  -18.8400  129.6470 O.2       6 ALP1        0.0000 
     42 O          97.3630  -17.7900  128.8090 O.2       1 ALC1        0.0000 
     43 O          97.0560  -16.7400  127.9710 O.2      11 ALL1        0.0000 
     44 O          96.3440  -17.4285  128.9985 O.2       1 ALC1        0.0000 
     45 O          95.6320  -18.1170  130.0260 O.2       6 ALP1        0.0000 
     46 CA         99.6320  -16.5595  130.7290 C.3       5 GLC5        0.0000 
     47 CA         98.9770  -15.8770  129.1600 C.3      15 GLL5        0.0000 
     48 CA        100.8775  -15.0110  129.4045 C.3       5 GLC5        0.0000 
     49 CA        102.7780  -14.1450  129.6490 C.3      10 GLP5        0.0000 
     50 CA         95.8700  -11.4660  132.7025 C.3       5 GLC5        0.0000 
     51 CA         97.6550  -11.6290  131.4310 C.3      15 GLL5        0.0000 
     52 CA         94.0850  -11.3030  133.9740 C.3      10 GLP5        0.0000 
     53 O          96.8655   -9.8665  132.2180 O.2       1 ALC1        0.0000 
     54 O          97.7280  -10.2760  131.4020 O.2      11 ALL1        0.0000 
     55 O          96.0030   -9.4570  133.0340 O.2       6 ALP1        0.0000 
     56 N          96.6130  -11.7185  133.7465 N.am      2 SEC2        0.0000 
     57 N          96.9860  -12.2730  132.4130 N.am     12 SEL2        0.0000 
     58 N          96.2400  -11.1640  135.0800 N.am      7 SEP2        0.0000 
     59 CA         97.0745  -14.5690  134.3995 C.3       5 GLC5        0.0000 
     60 CA         96.9060  -13.6170  132.4520 C.3      15 GLL5        0.0000 
     61 CA         97.2430  -15.5210  136.3470 C.3      10 GLP5        0.0000 
     62 CA         96.2085  -15.6485  132.8140 C.3       5 GLC5        0.0000 
     63 CA         95.5110  -17.6800  133.1760 C.3      10 GLP5        0.0000 
     64 CA         95.2495  -13.8280  131.5760 C.3       5 GLC5        0.0000 
     65 CA         93.5930  -14.0390  130.7000 C.3      10 GLP5        0.0000 
     66 CA         95.4955  -12.4600  133.2130 C.3       5 GLC5        0.0000 
     67 CA         98.6315  -13.2570  132.8595 C.3       5 GLC5        0.0000 
     68 CA        100.3570  -12.8970  133.2670 C.3      10 GLP5        0.0000 
     69 CA         99.2310  -15.5775  131.3980 C.3       5 GLC5        0.0000 
     70 CA         98.1750  -13.9130  130.4980 C.3      15 GLL5        0.0000 
     71 CA        104.0902  -19.1015  123.1300 C.3       5 GLC5        0.0000 
     72 CA        104.3470  -17.9910  124.3190 C.3      15 GLL5        0.0000 
     73 CA        103.1280  -20.4770  122.0580 C.3      10 GLP5        0.0000 
     74 CA        100.8868  -16.0470  125.2675 C.3       5 GLC5        0.0000 
     75 CA         99.7850  -14.7990  123.9540 C.3      10 GLP5        0.0000 
     76 CA        101.9750  -15.5362  128.6238 C.3       5 GLC5        0.0000 
     77 CA        101.7650  -16.6910  127.1830 C.3      15 GLL5        0.0000 
     78 CA         99.3088  -15.7555  125.7283 C.3       5 GLC5        0.0000 
     79 CA         97.5387  -10.8310  129.4047 C.3       5 GLC5        0.0000 
     80 CA         98.3080  -12.4530  130.3860 C.3      15 GLL5        0.0000 
     81 CA         97.0960   -9.6210  127.9010 C.3      10 GLP5        0.0000 
     82 CA         96.3432  -13.6610  129.9480 C.3       5 GLC5        0.0000 
     83 CA         94.4450  -14.1390  129.4540 C.3      10 GLP5        0.0000 
     84 CA         99.2138  -10.5080  130.3632 C.3       5 GLC5        0.0000 
     85 CA        100.4460   -8.9750  129.8180 C.3      10 GLP5        0.0000 
     86 CA         99.2176  -12.9370  131.9851 C.3       5 GLC5        0.0000 
@<TRIPOS>BOND
@<TRIPOS>SUBSTRUCTURE
     1 ALC1        6 GROUP        1 X    ALC  0     ROOT ALC X 1
     2 SEC2       19 GROUP        1 X    SEC  0     **** SEC X 2
     3 ASC3        1 GROUP        1 X    ASC  0     **** ASC X 3
     4 LYC4       22 GROUP        1 X    LYC  0     **** LYC X 4
     5 GLC5       13 GROUP        1 X    GLC  0     **** GLC X 6
     6 ALP1        8 GROUP        1 Y    ALP  0     ROOT ALP Y 8
     7 SEP2       21 GROUP        1 Y    SEP  0     **** SEP Y 9
     8 ASP3        3 GROUP        1 Y    ASP  0     **** ASP Y 10
     9 LYP4       24 GROUP        1 Y    LYP  0     **** LYP Y 11
    10 GLP5       15 GROUP        1 Y    GLP  0     **** GLP Y 13
    11 ALL1        7 GROUP        1 Z    ALL  0     ROOT ALL Z 15
    12 SEL2       20 GROUP        1 Z    SEL  0     **** SEL Z 16
    13 ASL3        2 GROUP        1 Z    ASL  0     **** ASL Z 17
    14 LYL4       23 GROUP        1 Z    LYL  0     **** LYL Z 18
    15 GLL5       14 GROUP        1 Z    GLL  0     **** GLL Z 20
@<TRIPOS>SET

