#    Name: 4g56_SAH_1_ligand
#    Modification time : Mon Mar 24 21:23:39 2014

@<TRIPOS>MOLECULE
4g56_SAH_1_ligand
   46    48     1     0     0
SMALL
NO_CHARGES


@<TRIPOS>ATOM
      1 N         105.6890  -16.0430  123.6340 N.4       1 SAH701      0.0000 
      2 CA        105.7580  -17.4610  124.0850 C.3       1 SAH701      0.0000 
      3 CB        104.3470  -17.9910  124.3190 C.3       1 SAH701      0.0000 
      4 CG        103.5770  -17.0590  125.2470 C.3       1 SAH701      0.0000 
      5 SD        102.2120  -17.8990  125.9790 S.3       1 SAH701      0.0000 
      6 C         106.4450  -18.2810  123.0330 C.2       1 SAH701      0.0000 
      7 O         106.4200  -17.9410  121.8490 O.co2     1 SAH701      0.0000 
      8 OXT       107.0500  -19.3120  123.3270 O.co2     1 SAH701      0.0000 
      9 C5'       101.7650  -16.6910  127.1830 C.3       1 SAH701      0.0000 
     10 C4'       100.5790  -17.1640  128.0140 C.3       1 SAH701      0.0000 
     11 O4'       100.3560  -16.2460  129.0870 O.3       1 SAH701      0.0000 
     12 C3'        99.2970  -17.2280  127.1980 C.3       1 SAH701      0.0000 
     13 O3'        98.7170  -18.5280  127.3240 O.3       1 SAH701      0.0000 
     14 C2'        98.3680  -16.1960  127.8070 C.3       1 SAH701      0.0000 
     15 O2'        97.0560  -16.7400  127.9710 O.3       1 SAH701      0.0000 
     16 C1'        98.9770  -15.8770  129.1600 C.3       1 SAH701      0.0000 
     17 N9         98.8390  -14.4300  129.4620 N.pl3     1 SAH701      0.0000 
     18 C8         99.3520  -13.4200  128.7360 C.2       1 SAH701      0.0000 
     19 N7         99.0410  -12.2180  129.2830 N.2       1 SAH701      0.0000 
     20 C5         98.3080  -12.4530  130.3860 C.ar      1 SAH701      0.0000 
     21 C6         97.6550  -11.6290  131.4310 C.ar      1 SAH701      0.0000 
     22 N6         97.7280  -10.2760  131.4020 N.pl3     1 SAH701      0.0000 
     23 N1         96.9860  -12.2730  132.4130 N.ar      1 SAH701      0.0000 
     24 C2         96.9060  -13.6170  132.4520 C.ar      1 SAH701      0.0000 
     25 N3         97.4740  -14.4250  131.5380 N.ar      1 SAH701      0.0000 
     26 C4         98.1750  -13.9130  130.4980 C.ar      1 SAH701      0.0000 
     27 H         106.3075  -17.5230  125.0034 H         1 SAH701      0.0000 
     28 H         104.4042  -18.9800  124.7677 H         1 SAH701      0.0000 
     29 H         103.8269  -18.0617  123.3665 H         1 SAH701      0.0000 
     30 H         103.1221  -16.2410  124.7331 H         1 SAH701      0.0000 
     31 H         104.1529  -16.7369  126.0864 H         1 SAH701      0.0000 
     32 H         101.5459  -15.8236  126.5981 H         1 SAH701      0.0000 
     33 H         102.6571  -16.5698  127.7593 H         1 SAH701      0.0000 
     34 H         100.7902  -18.1485  128.3949 H         1 SAH701      0.0000 
     35 H          99.5093  -16.9598  126.2009 H         1 SAH701      0.0000 
     36 H          98.3894  -15.3221  127.2098 H         1 SAH701      0.0000 
     37 H          98.4633  -16.4595  129.9010 H         1 SAH701      0.0000 
     38 H          99.8826  -13.5317  127.9169 H         1 SAH701      0.0000 
     39 H          96.9709   -9.7852  131.8331 H         1 SAH701      0.0000 
     40 H          98.5326   -9.8883  130.9520 H         1 SAH701      0.0000 
     41 H          96.3611  -14.0661  133.2535 H         1 SAH701      0.0000 
     42 H         105.2398  -15.4595  124.3106 H         1 SAH701      0.0000 
     43 H         106.5985  -15.6595  123.4738 H         1 SAH701      0.0000 
     44 H         105.1770  -15.9493  122.7802 H         1 SAH701      0.0000 
     45 H          97.9304  -18.4029  127.9287 H         1 SAH701      0.0000 
     46 H          97.1819  -17.5514  128.5418 H         1 SAH701      0.0000 
@<TRIPOS>BOND
     1    2    1 1    
     2   42    1 1    
     3   43    1 1    
     4   44    1 1    
     5    3    2 1    
     6    6    2 1    
     7   27    2 1    
     8    4    3 1    
     9   28    3 1    
    10   29    3 1    
    11    5    4 1    
    12   30    4 1    
    13   31    4 1    
    14    9    5 1    
    15    7    6 ar   
    16    8    6 ar   
    17   10    9 1    
    18   32    9 1    
    19   33    9 1    
    20   11   10 1    
    21   12   10 1    
    22   34   10 1    
    23   16   11 1    
    24   13   12 1    
    25   14   12 1    
    26   35   12 1    
    27   45   13 1    
    28   15   14 1    
    29   16   14 1    
    30   36   14 1    
    31   46   15 1    
    32   17   16 1    
    33   37   16 1    
    34   18   17 1    
    35   26   17 1    
    36   19   18 2    
    37   38   18 1    
    38   20   19 1    
    39   21   20 ar   
    40   26   20 ar   
    41   22   21 1    
    42   23   21 ar   
    43   39   22 1    
    44   40   22 1    
    45   24   23 ar   
    46   25   24 ar   
    47   41   24 1    
    48   26   25 ar   
@<TRIPOS>SUBSTRUCTURE
     1 SAH701      1 GROUP   
@<TRIPOS>SET

