#    Name: 3it3_3AM_1_INTS_M
#    Modification time : Tue Mar 25 17:25:50 2014

@<TRIPOS>MOLECULE
3it3_3AM_1_INTS_M
   60     0     9     0     0
SMALL
NO_CHARGES


@<TRIPOS>ATOM
      1 NZ          9.3150   16.0370   -7.2515 N.4       2 LYC4        0.0000 
      2 NZ          9.5620   17.3790   -7.3140 N.4       8 LYL4        0.0000 
      3 NZ          9.1610   13.9770   -8.2970 N.4       5 LYP4        0.0000 
      4 N           9.3150   16.0370   -7.2515 N.am      1 SEC2        0.0000 
      5 N           9.5620   17.3790   -7.3140 N.am      7 SEL2        0.0000 
      6 N           9.0680   14.6950   -7.1890 N.am      4 SEP2        0.0000 
      7 N          10.3135   17.1765   -6.2270 N.am      1 SEC2        0.0000 
      8 N          11.0650   16.9740   -5.1400 N.am      4 SEP2        0.0000 
      9 NZ          7.3295   20.0035   -8.9805 N.4       2 LYC4        0.0000 
     10 NZ          8.8290   19.6530   -8.6000 N.4       8 LYL4        0.0000 
     11 NZ          6.2710   21.5540   -9.7310 N.4       5 LYP4        0.0000 
     12 N           7.6990   18.6260   -8.3640 N.am      1 SEC2        0.0000 
     13 N           8.8290   19.6530   -8.6000 N.am      7 SEL2        0.0000 
     14 N           6.5690   17.5990   -8.1280 N.am      4 SEP2        0.0000 
     15 N           7.3295   20.0035   -8.9805 N.am      1 SEC2        0.0000 
     16 N           5.8300   20.3540   -9.3610 N.am      4 SEP2        0.0000 
     17 N           8.1945   20.7595   -9.1015 N.am      1 SEC2        0.0000 
     18 N           7.5600   21.8660   -9.6030 N.am      4 SEP2        0.0000 
     19 N           8.6035   20.3610   -7.4910 N.am      1 SEC2        0.0000 
     20 N           8.3780   21.0690   -6.3820 N.am      4 SEP2        0.0000 
     21 NZ          9.1470   16.0310   -9.6670 N.4       2 LYC4        0.0000 
     22 NZ          9.2300   17.4750   -9.8680 N.4       8 LYL4        0.0000 
     23 NZ          9.1910   17.0100  -11.1840 N.4       2 LYC4        0.0000 
     24 NZ          7.8680   16.7170  -12.7950 N.4       5 LYP4        0.0000 
     25 N           9.1470   16.0310   -9.6670 N.am      1 SEC2        0.0000 
     26 N           9.2300   17.4750   -9.8680 N.am      7 SEL2        0.0000 
     27 N           9.0640   14.5870   -9.4660 N.am      4 SEP2        0.0000 
     28 N           7.8995   17.5370   -8.9980 N.am      1 SEC2        0.0000 
     29 N           8.1360   17.3300  -10.8655 N.am      1 SEC2        0.0000 
     30 N           7.0420   17.1850  -11.8630 N.am      4 SEP2        0.0000 
     31 N           9.1910   17.0100  -11.1840 N.am      1 SEC2        0.0000 
     32 N           9.1520   16.5450  -12.5000 N.am      4 SEP2        0.0000 
     33 N           9.2110   21.6475   -9.3470 N.am      1 SEC2        0.0000 
     34 N          10.8620   21.4290   -9.0910 N.am      7 SEL2        0.0000 
     35 N          10.6290   22.6570   -8.0350 N.am      1 SEC2        0.0000 
     36 N          10.3960   23.8850   -6.9790 N.am      4 SEP2        0.0000 
     37 CA         10.3195   19.5140  -11.6650 C.3       3 GLC5        0.0000 
     38 CA         11.7050   19.2720   -9.9500 C.3       9 GLL5        0.0000 
     39 CA          8.9340   19.7560  -13.3800 C.3       6 GLP5        0.0000 
     40 CA         13.4060   22.6215  -11.7035 C.3       3 GLC5        0.0000 
     41 CA         12.3270   21.3030  -10.9650 C.3       9 GLL5        0.0000 
     42 CA         14.4850   23.9400  -12.4420 C.3       6 GLP5        0.0000 
     43 CA         14.1810   19.7305   -8.2060 C.3       3 GLC5        0.0000 
     44 CA         13.2610   19.4520   -9.8390 C.3       9 GLL5        0.0000 
     45 CA         15.1010   20.0090   -6.5730 C.3       6 GLP5        0.0000 
     46 CA         15.6560   17.0685  -10.2285 C.3       3 GLC5        0.0000 
     47 CA         14.0720   18.1940  -10.1340 C.3       9 GLL5        0.0000 
     48 CA         17.2400   15.9430  -10.3230 C.3       6 GLP5        0.0000 
     49 CA         15.1535   18.6185   -8.5075 C.3       3 GLC5        0.0000 
     50 CA         16.2350   19.0430   -6.8810 C.3       6 GLP5        0.0000 
     51 CA         12.5855   24.4110  -12.6635 C.3       3 GLC5        0.0000 
     52 CA         11.5760   22.5300  -13.1010 C.3       9 GLL5        0.0000 
     53 CA         13.5950   26.2920  -12.2260 C.3       6 GLP5        0.0000 
     54 CA         12.0520   25.4860  -12.8890 C.3       3 GLC5        0.0000 
     55 CA         10.5090   24.6800  -13.5520 C.3       9 GLL5        0.0000 
     56 CA         10.0235   20.8833  -11.6557 C.3       3 GLC5        0.0000 
     57 CA          8.2840   20.7760  -12.7190 C.3       6 GLP5        0.0000 
     58 CA         10.1275   21.8718  -15.9290 C.3       3 GLC5        0.0000 
     59 CA         11.7100   22.2950  -14.4480 C.3       9 GLL5        0.0000 
     60 CA          8.7820   20.9650  -16.9520 C.3       6 GLP5        0.0000 
@<TRIPOS>BOND
@<TRIPOS>SUBSTRUCTURE
     1 SEC2        4 GROUP        1 X    SEC  0     ROOT SEC X 2
     2 LYC4        1 GROUP        1 X    LYC  0     **** LYC X 4
     3 GLC5       37 GROUP        1 X    GLC  0     **** GLC X 6
     4 SEP2        6 GROUP        1 Y    SEP  0     ROOT SEP Y 9
     5 LYP4        3 GROUP        1 Y    LYP  0     **** LYP Y 11
     6 GLP5       39 GROUP        1 Y    GLP  0     **** GLP Y 13
     7 SEL2        5 GROUP        1 Z    SEL  0     ROOT SEL Z 16
     8 LYL4        2 GROUP        1 Z    LYL  0     **** LYL Z 18
     9 GLL5       38 GROUP        1 Z    GLL  0     **** GLL Z 20
@<TRIPOS>SET

