#    Name: 3it3_3AM_1_ligand
#    Modification time : Tue Mar 25 17:25:50 2014

@<TRIPOS>MOLECULE
3it3_3AM_1_ligand
   35    37     1     0     0
SMALL
NO_CHARGES


@<TRIPOS>ATOM
      1 O1P         9.5620   17.3790   -7.3140 O.co2     1 3AM343      0.0000 
      2 P           9.6200   18.2550   -8.6830 P.3       1 3AM343      0.0000 
      3 O2P         8.8290   19.6530   -8.6000 O.co2     1 3AM343      0.0000 
      4 O3P         9.2300   17.4750   -9.8680 O.co2     1 3AM343      0.0000 
      5 O2'        10.8620   21.4290   -9.0910 O.3       1 3AM343      0.0000 
      6 C2'        11.1990   20.6780  -10.2200 C.3       1 3AM343      0.0000 
      7 C3'        11.7050   19.2720   -9.9500 C.3       1 3AM343      0.0000 
      8 O3'        11.2030   18.6590   -8.7930 O.3       1 3AM343      0.0000 
      9 C1'        12.3270   21.3030  -10.9650 C.3       1 3AM343      0.0000 
     10 O4'        13.5280   20.5760  -10.7370 O.3       1 3AM343      0.0000 
     11 C4'        13.2610   19.4520   -9.8390 C.3       1 3AM343      0.0000 
     12 C5'        14.0720   18.1940  -10.1340 C.3       1 3AM343      0.0000 
     13 O5'        13.8050   17.5510  -11.3520 O.3       1 3AM343      0.0000 
     14 N9         12.1340   21.3790  -12.4130 N.pl3     1 3AM343      0.0000 
     15 C8         12.6000   20.4950  -13.3200 C.2       1 3AM343      0.0000 
     16 N7         12.3320   21.0480  -14.6290 N.2       1 3AM343      0.0000 
     17 C5         11.7100   22.2950  -14.4480 C.ar      1 3AM343      0.0000 
     18 C6         11.2360   23.2620  -15.3640 C.ar      1 3AM343      0.0000 
     19 N6         11.4000   23.0430  -16.7870 N.pl3     1 3AM343      0.0000 
     20 C4         11.5760   22.5300  -13.1010 C.ar      1 3AM343      0.0000 
     21 N3         10.9860   23.7080  -12.6240 N.ar      1 3AM343      0.0000 
     22 C2         10.5090   24.6800  -13.5520 C.ar      1 3AM343      0.0000 
     23 N1         10.6360   24.4490  -14.8980 N.ar      1 3AM343      0.0000 
     24 H          10.3739   20.5833  -10.9303 H         1 3AM343      0.0000 
     25 H          11.5546   18.6878  -10.8514 H         1 3AM343      0.0000 
     26 H          12.4653   22.3297  -10.5810 H         1 3AM343      0.0000 
     27 H          13.4431   19.7796   -8.8099 H         1 3AM343      0.0000 
     28 H          13.9180   17.4987   -9.2591 H         1 3AM343      0.0000 
     29 H          15.1590   18.4845  -10.0516 H         1 3AM343      0.0000 
     30 H          13.0238   19.6677  -13.1856 H         1 3AM343      0.0000 
     31 H          10.9963   23.7330  -17.3878 H         1 3AM343      0.0000 
     32 H          11.9033   22.2200  -17.0504 H         1 3AM343      0.0000 
     33 H          10.0791   25.5351  -13.1921 H         1 3AM343      0.0000 
     34 H          10.0752   20.9579   -8.6923 H         1 3AM343      0.0000 
     35 H          13.1755   16.8093  -11.1204 H         1 3AM343      0.0000 
@<TRIPOS>BOND
     1    2    1 ar   
     2    3    2 ar   
     3    4    2 ar   
     4    8    2 1    
     5    6    5 1    
     6   34    5 1    
     7    7    6 1    
     8    9    6 1    
     9   24    6 1    
    10    8    7 1    
    11   11    7 1    
    12   25    7 1    
    13   10    9 1    
    14   14    9 1    
    15   26    9 1    
    16   11   10 1    
    17   12   11 1    
    18   27   11 1    
    19   13   12 1    
    20   28   12 1    
    21   29   12 1    
    22   35   13 1    
    23   15   14 1    
    24   20   14 1    
    25   16   15 2    
    26   30   15 1    
    27   17   16 1    
    28   18   17 ar   
    29   20   17 ar   
    30   19   18 1    
    31   23   18 ar   
    32   31   19 1    
    33   32   19 1    
    34   21   20 ar   
    35   22   21 ar   
    36   23   22 ar   
    37   33   22 1    
@<TRIPOS>SUBSTRUCTURE
     1 3AM343      1 GROUP   
@<TRIPOS>SET

