#    Name: 1m9h_NAD_1_INTS_M
#    Modification time : Mon Apr  7 14:33:37 2014

@<TRIPOS>MOLECULE
1m9h_NAD_1_INTS_M
   84     0     9     0     0
SMALL
NO_CHARGES


@<TRIPOS>ATOM
      1 N          38.0215   18.2375    6.5495 N.am      2 SEC2        0.0000 
      2 N          37.1480   17.6070    5.7340 N.am      8 SEL2        0.0000 
      3 N          38.8950   18.8680    7.3650 N.am      5 SEP2        0.0000 
      4 N          36.6665   18.6090    4.7085 N.am      2 SEC2        0.0000 
      5 N          36.1850   19.6110    3.6830 N.am      5 SEP2        0.0000 
      6 N          37.5985   13.4140    5.6830 N.am      2 SEC2        0.0000 
      7 N          37.4470   15.0950    5.6710 N.am      8 SEL2        0.0000 
      8 N          37.7500   11.7330    5.6950 N.am      5 SEP2        0.0000 
      9 CA         39.3845   11.5960    1.1760 C.3       3 GLC5        0.0000 
     10 CA         39.3300   13.6490    0.5790 C.3       9 GLL5        0.0000 
     11 CA         39.4390    9.5430    1.7730 C.3       6 GLP5        0.0000 
     12 N          43.1380   12.4345    4.3255 N.am      2 SEC2        0.0000 
     13 N          42.6630   13.3340    3.3740 N.am      8 SEL2        0.0000 
     14 N          43.6130   11.5350    5.2770 N.am      5 SEP2        0.0000 
     15 CA         45.4305   15.7040    3.4020 C.3       3 GLC5        0.0000 
     16 CA         44.6610   14.4710    2.2860 C.3       9 GLL5        0.0000 
     17 CA         46.2000   16.9370    4.5180 C.3       6 GLP5        0.0000 
     18 O          47.2125   14.1805    2.9590 O.2       1 ALC1        0.0000 
     19 O          45.6410   13.9660    3.0510 O.2       7 ALL1        0.0000 
     20 O          48.7840   14.3950    2.8670 O.2       4 ALP1        0.0000 
     21 O          45.4665   13.4710    4.4190 O.2       1 ALC1        0.0000 
     22 O          45.2920   12.9760    5.7870 O.2       4 ALP1        0.0000 
     23 CA         44.5290   13.7705    0.4015 C.3       3 GLC5        0.0000 
     24 CA         43.9830   15.8180    0.5260 C.3       9 GLL5        0.0000 
     25 CA         45.0750   11.7230    0.2770 C.3       6 GLP5        0.0000 
     26 N          32.1050   16.5915    5.0770 N.am      2 SEC2        0.0000 
     27 N          32.9300   15.2990    5.2170 N.am      8 SEL2        0.0000 
     28 N          31.2800   17.8840    4.9370 N.am      5 SEP2        0.0000 
     29 N          34.3970   15.9045    7.9200 N.am      2 SEC2        0.0000 
     30 N          34.5320   14.7240    6.9460 N.am      8 SEL2        0.0000 
     31 N          34.2620   17.0850    8.8940 N.am      5 SEP2        0.0000 
     32 CA         34.9545   15.7645    7.7215 C.3       3 GLC5        0.0000 
     33 CA         35.1770   13.5580    7.5930 C.3       9 GLL5        0.0000 
     34 CA         34.7320   17.9710    7.8500 C.3       6 GLP5        0.0000 
     35 CA         36.0775   14.9985    8.2710 C.3       3 GLC5        0.0000 
     36 CA         36.9780   16.4390    8.9490 C.3       6 GLP5        0.0000 
     37 CA         36.9910   12.9860    7.6530 C.3       3 GLC5        0.0000 
     38 CA         38.8050   12.4140    7.7130 C.3       6 GLP5        0.0000 
     39 CA         34.5210   12.0195   10.0245 C.3       3 GLC5        0.0000 
     40 CA         34.2100   12.5260    8.2380 C.3       9 GLL5        0.0000 
     41 CA         34.8320   11.5130   11.8110 C.3       6 GLP5        0.0000 
     42 N          32.8720    9.5715    6.1040 N.am      2 SEC2        0.0000 
     43 N          33.9870   10.6300    6.7320 N.am      8 SEL2        0.0000 
     44 N          31.7570    8.5130    5.4760 N.am      5 SEP2        0.0000 
     45 CA         30.1255   10.6170    8.0460 C.3       3 GLC5        0.0000 
     46 CA         32.1360   11.3040    8.2060 C.3       9 GLL5        0.0000 
     47 CA         28.1150    9.9300    7.8860 C.3       6 GLP5        0.0000 
     48 O          31.8860    9.6100   10.0915 O.2       1 ALC1        0.0000 
     49 O          32.3140   10.0040    8.7900 O.2       7 ALL1        0.0000 
     50 O          31.4580    9.2160   11.3930 O.2       4 ALP1        0.0000 
     51 CA         32.1200   14.1415   10.1450 C.3       3 GLC5        0.0000 
     52 CA         32.0750   12.4190    9.2690 C.3       9 GLL5        0.0000 
     53 CA         32.1650   15.8640   11.0210 C.3       6 GLP5        0.0000 
     54 CA         33.0440   12.3890   10.9155 C.3       3 GLC5        0.0000 
     55 CA         34.0130   12.3590   12.5620 C.3       6 GLP5        0.0000 
     56 N          25.9490   13.9790   10.3900 N.am      2 SEC2        0.0000 
     57 N          26.7780   15.4520   10.3170 N.am      8 SEL2        0.0000 
     58 N          25.1200   12.5060   10.4630 N.am      5 SEP2        0.0000 
     59 N          25.9905   16.3165   11.3740 N.am      2 SEC2        0.0000 
     60 N          25.2030   17.1810   12.4310 N.am      5 SEP2        0.0000 
     61 O          27.3150   14.8595   13.2495 O.2       1 ALC1        0.0000 
     62 O          28.0020   14.6110   12.0400 O.2       7 ALL1        0.0000 
     63 O          26.6280   15.1080   14.4590 O.2       4 ALP1        0.0000 
     64 O          29.1680   13.7360   12.3580 O.2       1 ALC1        0.0000 
     65 O          30.3340   12.8610   12.6760 O.2       4 ALP1        0.0000 
     66 CA         30.8485   12.3575    6.7915 C.3       3 GLC5        0.0000 
     67 CA         30.9380   14.0740    7.9500 C.3       9 GLL5        0.0000 
     68 CA         30.7590   10.6410    5.6330 C.3       6 GLP5        0.0000 
     69 CA         36.5085   17.0983    2.4118 C.3       3 GLC5        0.0000 
     70 CA         37.1320   15.2430    2.8490 C.3       9 GLL5        0.0000 
     71 CA         35.4910   18.8910    2.6170 C.3       6 GLP5        0.0000 
     72 CA         42.2433   15.3413    3.6860 C.3       3 GLC5        0.0000 
     73 CA         42.4090   14.7430    1.6060 C.3       9 GLL5        0.0000 
     74 CA         41.6270   16.2320    5.3330 C.3       6 GLP5        0.0000 
     75 CA         44.1361   13.1259    1.1347 C.3       3 GLC5        0.0000 
     76 CA         43.3100   14.1580    2.4720 C.3       9 GLL5        0.0000 
     77 CA         33.9476    9.9447    8.2155 C.3       3 GLC5        0.0000 
     78 CA         34.9500    8.1700    8.4450 C.3       6 GLP5        0.0000 
     79 CA         31.5776   11.3063    7.0713 C.3       3 GLC5        0.0000 
     80 CA         33.2990   11.7440    7.2940 C.3       9 GLL5        0.0000 
     81 CA         30.7945   14.9887   10.4510 C.3       3 GLC5        0.0000 
     82 CA         29.9240   13.6370   10.0100 C.3       9 GLL5        0.0000 
     83 CA         31.1817   15.2449    9.5190 C.3       3 GLC5        0.0000 
     84 CA         28.9440   15.3090    8.5460 C.3       9 GLL5        0.0000 
@<TRIPOS>BOND
@<TRIPOS>SUBSTRUCTURE
     1 ALC1       18 GROUP        1 X    ALC  0     ROOT ALC X 1
     2 SEC2        1 GROUP        1 X    SEC  0     **** SEC X 2
     3 GLC5        9 GROUP        1 X    GLC  0     **** GLC X 6
     4 ALP1       20 GROUP        1 Y    ALP  0     ROOT ALP Y 8
     5 SEP2        3 GROUP        1 Y    SEP  0     **** SEP Y 9
     6 GLP5       11 GROUP        1 Y    GLP  0     **** GLP Y 13
     7 ALL1       19 GROUP        1 Z    ALL  0     ROOT ALL Z 15
     8 SEL2        2 GROUP        1 Z    SEL  0     **** SEL Z 16
     9 GLL5       10 GROUP        1 Z    GLL  0     **** GLL Z 20
@<TRIPOS>SET

