#    Name: 1m9h_NAD_1_ligand
#    Modification time : Mon Apr  7 14:33:37 2014

@<TRIPOS>MOLECULE
1m9h_NAD_1_ligand
   70    74     1     0     0
SMALL
NO_CHARGES


@<TRIPOS>ATOM
      1 PA         36.8300   16.3210    5.0790 P.3       1 NAD300      0.0000 
      2 O1A        37.1480   17.6070    5.7340 O.co2     1 NAD300      0.0000 
      3 O2A        37.4470   15.0950    5.6710 O.co2     1 NAD300      0.0000 
      4 O5B        37.2260   16.4140    3.6390 O.3       1 NAD300      0.0000 
      5 C5B        37.1320   15.2430    2.8490 C.3       1 NAD300      0.0000 
      6 C4B        37.9200   15.3680    1.5640 C.3       1 NAD300      0.0000 
      7 O4B        39.3030   15.6420    1.8800 O.3       1 NAD300      0.0000 
      8 C3B        37.8820   14.1140    0.6940 C.3       1 NAD300      0.0000 
      9 O3B        37.3160   14.4100   -0.5800 O.3       1 NAD300      0.0000 
     10 C2B        39.3300   13.6490    0.5790 C.3       1 NAD300      0.0000 
     11 O2B        39.7180   13.3610   -0.7480 O.3       1 NAD300      0.0000 
     12 C1B        40.1540   14.8040    1.1300 C.3       1 NAD300      0.0000 
     13 N9A        41.1860   14.2990    2.0070 N.pl3     1 NAD300      0.0000 
     14 C8A        41.4040   13.4460    3.0470 C.2       1 NAD300      0.0000 
     15 N7A        42.6630   13.3340    3.3740 N.2       1 NAD300      0.0000 
     16 C5A        43.3100   14.1580    2.4720 C.ar      1 NAD300      0.0000 
     17 C6A        44.6610   14.4710    2.2860 C.ar      1 NAD300      0.0000 
     18 N6A        45.6410   13.9660    3.0510 N.pl3     1 NAD300      0.0000 
     19 N1A        44.9710   15.3260    1.2890 N.ar      1 NAD300      0.0000 
     20 C2A        43.9830   15.8180    0.5260 C.ar      1 NAD300      0.0000 
     21 N3A        42.6760   15.5890    0.6030 N.ar      1 NAD300      0.0000 
     22 C4A        42.4090   14.7430    1.6060 C.ar      1 NAD300      0.0000 
     23 O3         35.3230   16.1520    4.9960 O.3       1 NAD300      0.0000 
     24 PN         34.3410   14.8770    5.4430 P.3       1 NAD300      0.0000 
     25 O1N        32.9300   15.2990    5.2170 O.co2     1 NAD300      0.0000 
     26 O2N        34.7660   13.6240    4.7460 O.co2     1 NAD300      0.0000 
     27 O5D        34.5320   14.7240    6.9460 O.3       1 NAD300      0.0000 
     28 C5D        35.1770   13.5580    7.5930 C.3       1 NAD300      0.0000 
     29 C4D        34.2100   12.5260    8.2380 C.3       1 NAD300      0.0000 
     30 O4D        33.3120   13.1410    9.2050 O.3       1 NAD300      0.0000 
     31 C3D        33.2990   11.7440    7.2940 C.3       1 NAD300      0.0000 
     32 O3D        33.9870   10.6300    6.7320 O.3       1 NAD300      0.0000 
     33 C2D        32.1360   11.3040    8.2060 C.3       1 NAD300      0.0000 
     34 O2D        32.3140   10.0040    8.7900 O.3       1 NAD300      0.0000 
     35 C1D        32.0750   12.4190    9.2690 C.3       1 NAD300      0.0000 
     36 N1N        30.9380   13.3690    9.1090 N.pl3     1 NAD300      0.0000 
     37 C2N        29.9240   13.6370   10.0100 C.ar      1 NAD300      0.0000 
     38 C3N        28.9240   14.5900    9.7520 C.ar      1 NAD300      0.0000 
     39 C7N        27.7940   14.9090   10.7420 C.2       1 NAD300      0.0000 
     40 O7N        26.7780   15.4520   10.3170 O.2       1 NAD300      0.0000 
     41 N7N        28.0020   14.6110   12.0400 N.am      1 NAD300      0.0000 
     42 C4N        28.9440   15.3090    8.5460 C.ar      1 NAD300      0.0000 
     43 C5N        29.9740   15.0460    7.6220 C.ar      1 NAD300      0.0000 
     44 C6N        30.9380   14.0740    7.9500 C.ar      1 NAD300      0.0000 
     45 H          36.0817   15.0168    2.5793 H         1 NAD300      0.0000 
     46 H          37.5107   14.3544    3.3912 H         1 NAD300      0.0000 
     47 H          37.5145   16.1924    0.9826 H         1 NAD300      0.0000 
     48 H          37.3328   13.3637    1.2286 H         1 NAD300      0.0000 
     49 H          39.4624   12.8166    1.2488 H         1 NAD300      0.0000 
     50 H          40.5874   15.3290    0.3011 H         1 NAD300      0.0000 
     51 H          40.6477   12.9634    3.4992 H         1 NAD300      0.0000 
     52 H          46.5398   13.8875    2.6197 H         1 NAD300      0.0000 
     53 H          45.3849   13.7133    3.9841 H         1 NAD300      0.0000 
     54 H          44.3056   16.5096   -0.2771 H         1 NAD300      0.0000 
     55 H          35.8770   13.8983    8.3879 H         1 NAD300      0.0000 
     56 H          35.8050   13.0089    6.8569 H         1 NAD300      0.0000 
     57 H          34.8233   11.7796    8.7802 H         1 NAD300      0.0000 
     58 H          32.9109   12.4218    6.5751 H         1 NAD300      0.0000 
     59 H          31.2300   11.3848    7.6225 H         1 NAD300      0.0000 
     60 H          31.9996   11.9288   10.2444 H         1 NAD300      0.0000 
     61 H          29.8918   13.1191   10.9149 H         1 NAD300      0.0000 
     62 H          27.2758   14.8764   12.6742 H         1 NAD300      0.0000 
     63 H          28.8640   14.1510   12.2532 H         1 NAD300      0.0000 
     64 H          28.2339   16.0023    8.3431 H         1 NAD300      0.0000 
     65 H          30.0197   15.5444    6.7428 H         1 NAD300      0.0000 
     66 H          31.6998   13.8979    7.2360 H         1 NAD300      0.0000 
     67 H          36.5921   13.7316   -0.7053 H         1 NAD300      0.0000 
     68 H          39.0104   13.7755   -1.3202 H         1 NAD300      0.0000 
     69 H          33.6849    9.8420    7.2684 H         1 NAD300      0.0000 
     70 H          31.9219   10.0765    9.7071 H         1 NAD300      0.0000 
@<TRIPOS>BOND
     1    2    1 ar   
     2    3    1 ar   
     3    4    1 1    
     4   23    1 1    
     5    5    4 1    
     6    6    5 1    
     7   45    5 1    
     8   46    5 1    
     9    7    6 1    
    10    8    6 1    
    11   47    6 1    
    12   12    7 1    
    13    9    8 1    
    14   10    8 1    
    15   48    8 1    
    16   67    9 1    
    17   11   10 1    
    18   12   10 1    
    19   49   10 1    
    20   68   11 1    
    21   13   12 1    
    22   50   12 1    
    23   14   13 1    
    24   22   13 1    
    25   15   14 2    
    26   51   14 1    
    27   16   15 1    
    28   17   16 ar   
    29   22   16 ar   
    30   18   17 1    
    31   19   17 ar   
    32   52   18 1    
    33   53   18 1    
    34   20   19 ar   
    35   21   20 ar   
    36   54   20 1    
    37   22   21 ar   
    38   24   23 1    
    39   25   24 ar   
    40   26   24 ar   
    41   27   24 1    
    42   28   27 1    
    43   29   28 1    
    44   55   28 1    
    45   56   28 1    
    46   30   29 1    
    47   31   29 1    
    48   57   29 1    
    49   35   30 1    
    50   32   31 1    
    51   33   31 1    
    52   58   31 1    
    53   69   32 1    
    54   34   33 1    
    55   35   33 1    
    56   59   33 1    
    57   70   34 1    
    58   36   35 1    
    59   60   35 1    
    60   37   36 ar   
    61   44   36 ar   
    62   38   37 ar   
    63   61   37 1    
    64   39   38 1    
    65   42   38 ar   
    66   40   39 2    
    67   41   39 am   
    68   62   41 1    
    69   63   41 1    
    70   43   42 ar   
    71   64   42 1    
    72   44   43 ar   
    73   65   43 1    
    74   66   44 1    
@<TRIPOS>SUBSTRUCTURE
     1 NAD300      1 GROUP   
@<TRIPOS>SET

