#    Name: 4GTF_2_CAVITY_N1_6.mol2
#    Modification time : Tue Mar 11 00:34:55 2014

@<TRIPOS>MOLECULE
4GTF_2_CAVITY_N1_6.mol2
   81     0     6     0     0
SMALL
NO_CHARGES


@<TRIPOS>ATOM
      1 CA        -47.5331  -21.5921   29.9142 C.3       5 GLY6        0.0000 
      2 CZ        -50.4673  -20.0536   29.3914 C.ar      4 PHE5        0.0000 
      3 CA        -49.3397  -20.9613   28.9985 C.3       5 GLY6        0.0000 
      4 CA        -50.0186  -21.2384   27.6900 C.3       5 GLY6        0.0000 
      5 DU        -47.9413  -19.5228   29.6879 H         6 CUB7        0.0000 
      6 O         -46.8137  -20.4306   29.2950 O.2       2 ALA2        0.0000 
      7 CZ        -50.8756  -17.9842   29.1652 C.ar      4 PHE5        0.0000 
      8 CZ        -49.7479  -18.8920   28.7723 C.ar      4 PHE5        0.0000 
      9 CA        -48.6203  -19.7998   28.3794 C.3       5 GLY6        0.0000 
     10 CA        -47.4927  -20.7076   27.9865 C.3       5 GLY6        0.0000 
     11 CA        -46.3650  -21.6154   27.5936 C.3       5 GLY6        0.0000 
     12 N         -50.4269  -19.1690   27.4638 N.2       2 ALA2        0.0000 
     13 N         -49.2993  -20.0768   27.0708 N.2       2 ALA2        0.0000 
     14 OG        -48.1716  -20.9846   26.6779 O.2       1 SER1        0.0000 
     15 O         -41.3536  -21.4383   30.1142 O.2       2 ALA2        0.0000 
     16 CA        -40.2259  -22.3461   29.7213 C.3       5 GLY6        0.0000 
     17 N         -39.7773  -23.5309   28.0198 N.2       2 ALA2        0.0000 
     18 DU        -46.0944  -19.2690   28.6759 H         6 CUB7        0.0000 
     19 O         -44.9667  -20.1768   28.2830 O.2       2 ALA2        0.0000 
     20 N         -49.0286  -17.7305   28.1532 N.2       2 ALA2        0.0000 
     21 DU        -47.9010  -18.6383   27.7602 H         6 CUB7        0.0000 
     22 DU        -46.7733  -19.5460   27.3673 H         6 CUB7        0.0000 
     23 O         -45.6457  -20.4538   26.9744 O.2       2 ALA2        0.0000 
     24 O         -44.5181  -21.3616   26.5815 O.2       2 ALA2        0.0000 
     25 O         -48.5799  -18.9153   26.4517 O.2       2 ALA2        0.0000 
     26 OG        -47.4523  -19.8230   26.0588 O.2       1 SER1        0.0000 
     27 CA        -46.3246  -20.7308   25.6659 C.3       5 GLY6        0.0000 
     28 O         -41.7618  -19.3690   29.8880 O.2       2 ALA2        0.0000 
     29 O         -40.6342  -20.2768   29.4951 O.2       2 ALA2        0.0000 
     30 O         -39.5066  -21.1846   29.1022 O.2       2 ALA2        0.0000 
     31 O         -43.5684  -18.7382   28.9724 O.2       2 ALA2        0.0000 
     32 O         -42.4408  -19.6460   28.5794 O.2       2 ALA2        0.0000 
     33 O         -41.3132  -20.5538   28.1865 O.2       2 ALA2        0.0000 
     34 O         -40.1855  -21.4616   27.7936 O.2       2 ALA2        0.0000 
     35 N         -39.0579  -22.3694   27.4007 N.2       2 ALA2        0.0000 
     36 DU        -46.5026  -17.1997   28.4497 H         6 CUB7        0.0000 
     37 DU        -45.3750  -18.1075   28.0567 H         6 CUB7        0.0000 
     38 O         -44.2474  -19.0153   27.6638 O.2       2 ALA2        0.0000 
     39 O         -43.1198  -19.9230   27.2709 O.2       2 ALA2        0.0000 
     40 O         -41.9921  -20.8308   26.8780 O.2       2 ALA2        0.0000 
     41 O         -40.8645  -21.7386   26.4851 O.2       2 ALA2        0.0000 
     42 CA        -39.7369  -22.6464   26.0922 C.3       5 GLY6        0.0000 
     43 N         -48.3092  -16.5689   27.5340 N.2       2 ALA2        0.0000 
     44 DU        -47.1816  -17.4767   27.1411 H         6 CUB7        0.0000 
     45 DU        -46.0540  -18.3845   26.7482 H         6 CUB7        0.0000 
     46 N         -44.9263  -19.2923   26.3553 N.2       2 ALA2        0.0000 
     47 O         -43.7987  -20.2000   25.9624 O.2       2 ALA2        0.0000 
     48 O         -42.6711  -21.1078   25.5694 O.2       2 ALA2        0.0000 
     49 CA        -41.5434  -22.0156   25.1765 C.3       5 GLY6        0.0000 
     50 O         -47.8606  -17.7537   25.8326 O.2       2 ALA2        0.0000 
     51 N         -46.7329  -18.6615   25.4397 N.2       2 ALA2        0.0000 
     52 N         -45.6053  -19.5693   25.0467 N.2       2 ALA2        0.0000 
     53 CA        -41.0425  -18.2075   29.2689 C.3       5 GLY6        0.0000 
     54 CA        -39.9149  -19.1152   28.8759 C.3       5 GLY6        0.0000 
     55 O         -51.1866  -21.2151   30.0106 O.2       2 ALA2        0.0000 
     56 DU        -42.8491  -17.5767   28.3532 H         6 CUB7        0.0000 
     57 CA        -41.7214  -18.4845   27.9603 C.3       5 GLY6        0.0000 
     58 CA        -40.5938  -19.3923   27.5674 C.3       5 GLY6        0.0000 
     59 NZ        -45.7833  -16.0381   27.8305 N.2       3 LYS4        0.0000 
     60 NZ        -44.6557  -16.9459   27.4376 N.2       3 LYS4        0.0000 
     61 NZ        -43.5280  -17.8537   27.0447 N.2       3 LYS4        0.0000 
     62 NZ        -42.4004  -18.7615   26.6518 N.2       3 LYS4        0.0000 
     63 CA        -41.2728  -19.6693   26.2589 C.3       5 GLY6        0.0000 
     64 CA        -40.1451  -20.5770   25.8659 C.3       5 GLY6        0.0000 
     65 N         -47.5899  -15.4074   26.9149 N.2       2 ALA2        0.0000 
     66 NZ        -46.4622  -16.3152   26.5220 N.2       3 LYS4        0.0000 
     67 NZ        -45.3346  -17.2229   26.1291 N.2       3 LYS4        0.0000 
     68 NZ        -44.2070  -18.1307   25.7361 N.2       3 LYS4        0.0000 
     69 N         -43.0794  -19.0385   25.3432 N.2       2 ALA2        0.0000 
     70 N         -41.9517  -19.9463   24.9503 N.2       2 ALA2        0.0000 
     71 CA        -40.8241  -20.8541   24.5574 C.3       5 GLY6        0.0000 
     72 CA        -47.1412  -16.5922   25.2134 C.3       5 GLY6        0.0000 
     73 N         -46.0136  -17.4999   24.8205 N.2       2 ALA2        0.0000 
     74 N         -42.6307  -20.2233   23.6418 N.2       2 ALA2        0.0000 
     75 CA        -41.5030  -21.1311   23.2489 C.3       5 GLY6        0.0000 
     76 NZ        -42.1297  -16.4151   27.7341 N.2       3 LYS4        0.0000 
     77 CA        -41.0021  -17.3229   27.3412 C.3       5 GLY6        0.0000 
     78 NZ        -41.6810  -17.5999   26.0326 N.2       3 LYS4        0.0000 
     79 OG        -41.2324  -18.7847   24.3312 O.2       1 SER1        0.0000 
     80 CA        -40.1047  -19.6925   23.9383 C.3       5 GLY6        0.0000 
     81 OG        -40.7837  -19.9695   22.6297 O.2       1 SER1        0.0000 
@<TRIPOS>BOND
@<TRIPOS>SUBSTRUCTURE
     1 SER1       14 GROUP   
     2 ALA2        6 GROUP   
     3 LYS4       59 GROUP   
     4 PHE5        2 GROUP   
     5 GLY6        1 GROUP   
     6 CUB7        5 GROUP   
@<TRIPOS>SET

