#    Name: 4gtf_UMP_2_INTS_M
#    Modification time : Mon Mar 24 23:38:24 2014

@<TRIPOS>MOLECULE
4gtf_UMP_2_INTS_M
   43     0    12     0     0
SMALL
NO_CHARGES


@<TRIPOS>ATOM
      1 CA        -49.5320  -21.9905   28.4380 C.3       4 GLC5        0.0000 
      2 CA        -49.8520  -20.2970   27.8970 C.3      12 GLL5        0.0000 
      3 CA        -49.2120  -23.6840   28.9790 C.3       8 GLP5        0.0000 
      4 CA        -51.3640  -19.7940   27.3255 C.3       4 GLC5        0.0000 
      5 CA        -52.8760  -19.2910   26.7540 C.3       8 GLP5        0.0000 
      6 CA        -50.3625  -18.1160   26.5770 C.3       4 GLC5        0.0000 
      7 CA        -49.1940  -19.1820   27.3820 C.3      12 GLL5        0.0000 
      8 CA        -51.5310  -17.0500   25.7720 C.3       8 GLP5        0.0000 
      9 N         -51.6180  -22.3905   29.5450 N.am      2 SEC2        0.0000 
     10 N         -51.1800  -21.0330   29.6340 N.am     10 SEL2        0.0000 
     11 N         -52.0560  -23.7480   29.4560 N.am      6 SEP2        0.0000 
     12 CA        -49.9900  -16.9390   26.6245 C.3       4 GLC5        0.0000 
     13 CA        -48.4490  -16.8280   27.4770 C.3      12 GLL5        0.0000 
     14 CA        -46.2580  -16.0945   24.3995 C.3       4 GLC5        0.0000 
     15 CA        -46.5480  -17.0980   26.0460 C.3      12 GLL5        0.0000 
     16 CA        -45.9680  -15.0910   22.7530 C.3       8 GLP5        0.0000 
     17 O         -45.1565  -14.8160   25.9980 O.2       1 ALC1        0.0000 
     18 O         -45.9850  -14.9340   26.9710 O.2       9 ALL1        0.0000 
     19 O         -44.3280  -14.6980   25.0250 O.2       5 ALP1        0.0000 
     20 CA        -45.2630  -17.0810   24.3555 C.3       4 GLC5        0.0000 
     21 CA        -45.9600  -18.5110   25.8960 C.3      12 GLL5        0.0000 
     22 CA        -44.5660  -15.6510   22.8150 C.3       8 GLP5        0.0000 
     23 CA        -46.1960  -19.9320   24.5425 C.3       4 GLC5        0.0000 
     24 CA        -46.4320  -21.3530   23.1890 C.3       8 GLP5        0.0000 
     25 NZ        -45.4460  -22.1825   29.3245 N.4       3 LYC4        0.0000 
     26 NZ        -45.9510  -21.0270   28.8280 N.4      11 LYL4        0.0000 
     27 NZ        -43.7060  -23.5170   29.3910 N.4       7 LYP4        0.0000 
     28 N         -44.5500  -21.8420   28.6815 N.am      2 SEC2        0.0000 
     29 N         -45.9510  -21.0270   28.8280 N.am     10 SEL2        0.0000 
     30 N         -43.1490  -22.6570   28.5350 N.am      6 SEP2        0.0000 
     31 N         -45.4460  -22.1825   29.3245 N.am      2 SEC2        0.0000 
     32 N         -44.9410  -23.3380   29.8210 N.am      6 SEP2        0.0000 
     33 N         -47.5010  -21.9900   25.5610 N.am      2 SEC2        0.0000 
     34 N         -46.9440  -21.4700   26.5160 N.am     10 SEL2        0.0000 
     35 N         -48.0580  -22.5100   24.6060 N.am      6 SEP2        0.0000 
     36 N         -46.6015  -23.0705   26.1230 N.am      2 SEC2        0.0000 
     37 N         -46.2590  -24.6710   25.7300 N.am      6 SEP2        0.0000 
     38 NZ        -43.8455  -21.8375   27.6285 N.4       3 LYC4        0.0000 
     39 NZ        -44.5420  -21.0180   26.7220 N.4      11 LYL4        0.0000 
     40 N         -44.7035  -21.8860   25.5585 N.am      2 SEC2        0.0000 
     41 N         -44.5420  -21.0180   26.7220 N.am     10 SEL2        0.0000 
     42 N         -44.8650  -22.7540   24.3950 N.am      6 SEP2        0.0000 
     43 N         -43.8455  -21.8375   27.6285 N.am      2 SEC2        0.0000 
@<TRIPOS>BOND
@<TRIPOS>SUBSTRUCTURE
     1 ALC1       17 GROUP        1 X    ALC  0     ROOT ALC X 1
     2 SEC2        9 GROUP        1 X    SEC  0     **** SEC X 2
     3 LYC4       25 GROUP        1 X    LYC  0     **** LYC X 4
     4 GLC5        1 GROUP        1 X    GLC  0     **** GLC X 6
     5 ALP1       19 GROUP        1 Y    ALP  0     ROOT ALP Y 8
     6 SEP2       11 GROUP        1 Y    SEP  0     **** SEP Y 9
     7 LYP4       27 GROUP        1 Y    LYP  0     **** LYP Y 11
     8 GLP5        3 GROUP        1 Y    GLP  0     **** GLP Y 13
     9 ALL1       18 GROUP        1 Z    ALL  0     ROOT ALL Z 15
    10 SEL2       10 GROUP        1 Z    SEL  0     **** SEL Z 16
    11 LYL4       26 GROUP        1 Z    LYL  0     **** LYL Z 18
    12 GLL5        2 GROUP        1 Z    GLL  0     **** GLL Z 20
@<TRIPOS>SET

