#    Name: 4gtf_UMP_2_ligand
#    Modification time : Mon Mar 24 23:38:24 2014

@<TRIPOS>MOLECULE
4gtf_UMP_2_ligand
   31    32     1     0     0
SMALL
NO_CHARGES


@<TRIPOS>ATOM
      1 N1        -49.1840  -17.9850   28.0080 N.am      1 UMP302      0.0000 
      2 C2        -49.9150  -17.7980   29.1660 C.2       1 UMP302      0.0000 
      3 N3        -50.5440  -18.8740   29.6610 N.am      1 UMP302      0.0000 
      4 C4        -50.5550  -20.1000   29.0890 C.2       1 UMP302      0.0000 
      5 C5        -49.8520  -20.2970   27.8970 C.2       1 UMP302      0.0000 
      6 C6        -49.1940  -19.1820   27.3820 C.2       1 UMP302      0.0000 
      7 O2        -49.9360  -16.6740   29.7110 O.2       1 UMP302      0.0000 
      8 O4        -51.1800  -21.0330   29.6340 O.2       1 UMP302      0.0000 
      9 C1'       -48.4490  -16.8280   27.4770 C.3       1 UMP302      0.0000 
     10 C2'       -47.1840  -16.5720   28.2830 C.3       1 UMP302      0.0000 
     11 C3'       -46.0740  -16.3420   27.2740 C.3       1 UMP302      0.0000 
     12 C4'       -46.5480  -17.0980   26.0460 C.3       1 UMP302      0.0000 
     13 O3'       -45.9850  -14.9340   26.9710 O.3       1 UMP302      0.0000 
     14 O4'       -47.9800  -17.1200   26.1620 O.3       1 UMP302      0.0000 
     15 C5'       -45.9600  -18.5110   25.8960 C.3       1 UMP302      0.0000 
     16 O5'       -46.1430  -19.1650   27.1460 O.3       1 UMP302      0.0000 
     17 P         -45.8990  -20.7370   27.3360 P.3       1 UMP302      0.0000 
     18 OP1       -45.9510  -21.0270   28.8280 O.co2     1 UMP302      0.0000 
     19 OP2       -46.9440  -21.4700   26.5160 O.co2     1 UMP302      0.0000 
     20 OP3       -44.5420  -21.0180   26.7220 O.co2     1 UMP302      0.0000 
     21 H         -51.0842  -18.7579   30.5864 H         1 UMP302      0.0000 
     22 H         -49.8243  -21.1866   27.4423 H         1 UMP302      0.0000 
     23 H         -48.6880  -19.2955   26.4645 H         1 UMP302      0.0000 
     24 H         -49.0399  -15.9492   27.4893 H         1 UMP302      0.0000 
     25 H         -46.9580  -17.4320   28.8819 H         1 UMP302      0.0000 
     26 H         -47.3128  -15.6959   28.8874 H         1 UMP302      0.0000 
     27 H         -45.1882  -16.7601   27.6246 H         1 UMP302      0.0000 
     28 H         -46.2688  -16.5077   25.1714 H         1 UMP302      0.0000 
     29 H         -44.9137  -18.4063   25.6342 H         1 UMP302      0.0000 
     30 H         -46.4904  -19.0047   25.0903 H         1 UMP302      0.0000 
     31 H         -45.7605  -14.8926   25.9974 H         1 UMP302      0.0000 
@<TRIPOS>BOND
     1    2    1 1    
     2    6    1 1    
     3    9    1 1    
     4    3    2 1    
     5    7    2 2    
     6    4    3 1    
     7   21    3 1    
     8    5    4 1    
     9    8    4 2    
    10    6    5 2    
    11   22    5 1    
    12   23    6 1    
    13   10    9 1    
    14   14    9 1    
    15   24    9 1    
    16   11   10 1    
    17   25   10 1    
    18   26   10 1    
    19   12   11 1    
    20   13   11 1    
    21   27   11 1    
    22   14   12 1    
    23   15   12 1    
    24   28   12 1    
    25   31   13 1    
    26   16   15 1    
    27   29   15 1    
    28   30   15 1    
    29   17   16 1    
    30   18   17 ar   
    31   19   17 ar   
    32   20   17 ar   
@<TRIPOS>SUBSTRUCTURE
     1 UMP302      1 GROUP   
@<TRIPOS>SET

