#    Name: 3IEW_1_CAVITY_N1_ALL.mol2
#    Modification time : Tue Mar 11 02:21:29 2014

@<TRIPOS>MOLECULE
3IEW_1_CAVITY_N1_ALL.mol2
   85     0     6     0     0
SMALL
NO_CHARGES


@<TRIPOS>ATOM
      1 O          32.1016  -34.1599    3.7802 O.2       2 ALA2        0.0000 
      2 N          33.0510  -39.9318    5.7887 N.2       2 ALA2        0.0000 
      3 NZ         31.1176  -33.3531    2.0829 N.2       4 LYS4        0.0000 
      4 O          31.6861  -34.6941    2.4415 O.2       2 ALA2        0.0000 
      5 NZ         29.2247  -32.4201    2.2981 N.2       4 LYS4        0.0000 
      6 NZ         30.3616  -35.1020    3.0154 N.2       4 LYS4        0.0000 
      7 CA         30.9301  -36.4430    3.3741 C.3       5 GLY6        0.0000 
      8 CA         31.4986  -37.7840    3.7327 C.3       5 GLY6        0.0000 
      9 CA         32.0670  -39.1250    4.0914 C.3       5 GLY6        0.0000 
     10 CA         32.6355  -40.4660    4.4500 C.3       5 GLY6        0.0000 
     11 DU         29.0372  -35.5100    3.5893 H         6 CUB7        0.0000 
     12 DU         29.6056  -36.8510    3.9480 H         6 CUB7        0.0000 
     13 CA         30.1741  -38.1920    4.3066 C.3       5 GLY6        0.0000 
     14 DU         30.7426  -39.5329    4.6653 H         6 CUB7        0.0000 
     15 DU         31.3110  -40.8739    5.0239 H         6 CUB7        0.0000 
     16 CA         31.8795  -42.2149    5.3826 C.3       5 GLY6        0.0000 
     17 DU         28.8496  -38.5999    4.8805 H         6 CUB7        0.0000 
     18 NZ         31.2706  -35.2283    1.1029 N.2       4 LYS4        0.0000 
     19 O          31.8390  -36.5692    1.4615 O.2       2 ALA2        0.0000 
     20 OG         32.4075  -37.9102    1.8202 O.2       1 SER1        0.0000 
     21 NZ         29.9461  -35.6362    1.6768 N.2       4 LYS4        0.0000 
     22 DU         30.5146  -36.9772    2.0354 H         6 CUB7        0.0000 
     23 DU         31.0830  -38.3182    2.3941 H         6 CUB7        0.0000 
     24 OG         31.6515  -39.6592    2.7527 O.2       1 SER1        0.0000 
     25 CA         32.2199  -41.0001    3.1114 C.3       5 GLY6        0.0000 
     26 NZ         27.4847  -33.3622    1.5334 N.2       4 LYS4        0.0000 
     27 NZ         28.0532  -34.7032    1.8920 N.2       4 LYS4        0.0000 
     28 DU         28.6217  -36.0442    2.2507 H         6 CUB7        0.0000 
     29 DU         29.1901  -37.3852    2.6093 H         6 CUB7        0.0000 
     30 DU         29.7586  -38.7261    2.9680 H         6 CUB7        0.0000 
     31 DU         30.3270  -40.0671    3.3266 H         6 CUB7        0.0000 
     32 CA         30.8955  -41.4081    3.6853 C.3       5 GLY6        0.0000 
     33 OG         26.1603  -33.7702    2.1073 O.2       1 SER1        0.0000 
     34 DU         26.7287  -35.1112    2.4659 H         6 CUB7        0.0000 
     35 DU         27.8657  -37.7931    3.1832 H         6 CUB7        0.0000 
     36 DU         28.4341  -39.1341    3.5419 H         6 CUB7        0.0000 
     37 CA         29.0026  -40.4751    3.9005 C.3       5 GLY6        0.0000 
     38 CA         29.5710  -41.8161    4.2592 C.3       5 GLY6        0.0000 
     39 DU         25.9727  -36.8601    3.3985 H         6 CUB7        0.0000 
     40 CA         26.5412  -38.2011    3.7571 C.3       5 GLY6        0.0000 
     41 CA         27.1097  -39.5421    4.1158 C.3       5 GLY6        0.0000 
     42 NZ         29.5306  -36.1704    0.3381 N.2       4 LYS4        0.0000 
     43 OD1        30.0991  -37.5114    0.6968 O.3       3 ASP3        0.0000 
     44 OD1        30.6675  -38.8524    1.0554 O.3       3 ASP3        0.0000 
     45 N          31.2360  -40.1933    1.4141 N.2       2 ALA2        0.0000 
     46 N          31.8044  -41.5343    1.7727 N.2       2 ALA2        0.0000 
     47 NZ         27.0692  -33.8964    0.1947 N.2       4 LYS4        0.0000 
     48 NZ         27.6377  -35.2374    0.5534 N.2       4 LYS4        0.0000 
     49 NZ         28.2061  -36.5784    0.9120 N.2       4 LYS4        0.0000 
     50 OD1        28.7746  -37.9193    1.2707 O.3       3 ASP3        0.0000 
     51 DU         29.3431  -39.2603    1.6293 H         6 CUB7        0.0000 
     52 CA         29.9115  -40.6013    1.9880 C.3       5 GLY6        0.0000 
     53 CA         30.4800  -41.9423    2.3466 C.3       5 GLY6        0.0000 
     54 OG         25.7448  -34.3044    0.7686 O.2       1 SER1        0.0000 
     55 DU         26.3132  -35.6453    1.1273 H         6 CUB7        0.0000 
     56 DU         26.8817  -36.9863    1.4859 H         6 CUB7        0.0000 
     57 DU         27.4501  -38.3273    1.8446 H         6 CUB7        0.0000 
     58 CA         28.0186  -39.6683    2.2032 C.3       5 GLY6        0.0000 
     59 CA         28.5870  -41.0093    2.5619 C.3       5 GLY6        0.0000 
     60 CA         29.1555  -42.3502    2.9205 C.3       5 GLY6        0.0000 
     61 O          24.4203  -34.7123    1.3425 O.2       2 ALA2        0.0000 
     62 DU         24.9888  -36.0533    1.7012 H         6 CUB7        0.0000 
     63 CA         25.5572  -37.3943    2.0598 C.3       5 GLY6        0.0000 
     64 CA         26.1257  -38.7353    2.4185 C.3       5 GLY6        0.0000 
     65 CA         26.6941  -40.0762    2.7771 C.3       5 GLY6        0.0000 
     66 N          23.6643  -36.4613    2.2751 N.2       2 ALA2        0.0000 
     67 CA         24.2328  -37.8022    2.6337 C.3       5 GLY6        0.0000 
     68 OD1        27.7906  -37.1125   -0.4266 O.3       3 ASP3        0.0000 
     69 OD1        28.3591  -38.4535   -0.0680 O.3       3 ASP3        0.0000 
     70 OD1        28.9275  -39.7945    0.2907 O.3       3 ASP3        0.0000 
     71 CA         29.4960  -41.1355    0.6493 C.3       5 GLY6        0.0000 
     72 CA         30.0644  -42.4764    1.0080 C.3       5 GLY6        0.0000 
     73 CA         25.8977  -36.1795   -0.2114 C.3       5 GLY6        0.0000 
     74 OD1        26.4662  -37.5205    0.1473 O.3       3 ASP3        0.0000 
     75 CA         27.0346  -38.8615    0.5059 C.3       5 GLY6        0.0000 
     76 CA         24.0048  -35.2465    0.0039 C.3       5 GLY6        0.0000 
     77 CA         24.5732  -36.5875    0.3625 C.3       5 GLY6        0.0000 
     78 CA         25.1417  -37.9285    0.7212 C.3       5 GLY6        0.0000 
     79 O          25.7102  -39.2694    1.0798 O.2       2 ALA2        0.0000 
     80 N          23.2488  -36.9954    0.9364 N.2       2 ALA2        0.0000 
     81 O          23.8172  -38.3364    1.2951 O.2       2 ALA2        0.0000 
     82 OD1        27.9436  -38.9877   -1.4066 O.3       3 ASP3        0.0000 
     83 OD1        26.6191  -39.3956   -0.8327 O.3       3 ASP3        0.0000 
     84 CA         25.2946  -39.8036   -0.2588 C.3       5 GLY6        0.0000 
     85 N          23.4017  -38.8706   -0.0436 N.2       2 ALA2        0.0000 
@<TRIPOS>BOND
@<TRIPOS>SUBSTRUCTURE
     1 SER1       20 GROUP   
     2 ALA2        1 GROUP   
     3 ASP3       43 GROUP   
     4 LYS4        3 GROUP   
     5 GLY6        7 GROUP   
     6 CUB7       11 GROUP   
@<TRIPOS>SET

