#    Name: 3iew_CDP_1_INTS_M
#    Modification time : Tue Mar 25 16:23:43 2014

@<TRIPOS>MOLECULE
3iew_CDP_1_INTS_M
   49     0    12     0     0
SMALL
NO_CHARGES


@<TRIPOS>ATOM
      1 NZ         27.5185  -36.4975   -1.7910 N.4       3 LYC4        0.0000 
      2 NZ         28.6510  -35.8810   -0.8370 N.4      11 LYL4        0.0000 
      3 NZ         26.3860  -37.1140   -2.7450 N.4       7 LYP4        0.0000 
      4 N          27.5185  -36.4975   -1.7910 N.am      2 SEC2        0.0000 
      5 N          28.6510  -35.8810   -0.8370 N.am     10 SEL2        0.0000 
      6 N          26.3860  -37.1140   -2.7450 N.am      6 SEP2        0.0000 
      7 N          26.3655  -32.5160    0.6960 N.am      2 SEC2        0.0000 
      8 N          26.6620  -33.7750    1.7590 N.am     10 SEL2        0.0000 
      9 N          26.0690  -31.2570   -0.3670 N.am      6 SEP2        0.0000 
     10 NZ         25.9165  -35.8310   -1.5755 N.4       3 LYC4        0.0000 
     11 NZ         25.4470  -34.5480   -0.4060 N.4      11 LYL4        0.0000 
     12 N          24.4245  -33.5415   -0.8505 N.am      2 SEC2        0.0000 
     13 N          25.4470  -34.5480   -0.4060 N.am     10 SEL2        0.0000 
     14 N          23.4020  -32.5350   -1.2950 N.am      6 SEP2        0.0000 
     15 N          25.7580  -32.9025   -0.3865 N.am      2 SEC2        0.0000 
     16 CA         24.4575  -36.7940   -0.4015 C.3       4 GLC5        0.0000 
     17 CA         23.9970  -36.5710    1.7410 C.3      12 GLL5        0.0000 
     18 CA         24.9180  -37.0170   -2.5440 C.3       8 GLP5        0.0000 
     19 O          21.1045  -39.8400    2.6295 O.2       1 ALC1        0.0000 
     20 O          21.4300  -38.6920    3.3600 O.2       9 ALL1        0.0000 
     21 O          20.7790  -40.9880    1.8990 O.2       5 ALP1        0.0000 
     22 O          20.5250  -39.1620    1.9670 O.2       1 ALC1        0.0000 
     23 O          19.6200  -39.6320    0.5740 O.2       5 ALP1        0.0000 
     24 O          19.5105  -38.5125    1.5455 O.2       1 ALC1        0.0000 
     25 O          19.4010  -37.3930    2.5170 O.2       9 ALL1        0.0000 
     26 N          17.6555  -33.1250    4.0675 N.am      2 SEC2        0.0000 
     27 N          18.8430  -34.1040    4.2310 N.am     10 SEL2        0.0000 
     28 N          16.4680  -32.1460    3.9040 N.am      6 SEP2        0.0000 
     29 N          17.4225  -34.4095    4.4920 N.am      2 SEC2        0.0000 
     30 N          16.0020  -34.7150    4.7530 N.am      6 SEP2        0.0000 
     31 N          17.7575  -32.2925    3.3240 N.am      2 SEC2        0.0000 
     32 N          19.0470  -32.4390    2.7440 N.am     10 SEL2        0.0000 
     33 O          20.0285  -30.0220    0.2080 O.2       1 ALC1        0.0000 
     34 O          19.2600  -30.6870    1.2060 O.2       9 ALL1        0.0000 
     35 O          20.7970  -29.3570   -0.7900 O.2       5 ALP1        0.0000 
     36 O          18.2875  -29.9095    1.9970 O.2       1 ALC1        0.0000 
     37 O          17.3150  -29.1320    2.7880 O.2       5 ALP1        0.0000 
     38 CA         23.2626  -38.8260    3.1141 C.3       4 GLC5        0.0000 
     39 CA         21.8110  -37.6900    2.4070 C.3      12 GLL5        0.0000 
     40 CA         23.8720  -40.4530    3.8700 C.3       8 GLP5        0.0000 
     41 CA         19.5140  -35.8747    1.3233 C.3       4 GLC5        0.0000 
     42 CA         20.6560  -36.7290    2.2670 C.3      12 GLL5        0.0000 
     43 CA         18.2000  -35.5830   -0.1060 C.3       8 GLP5        0.0000 
     44 CA         19.5877  -34.3612    0.6440 C.3       4 GLC5        0.0000 
     45 CA         21.1870  -33.7520    1.6520 C.3      12 GLL5        0.0000 
     46 CA         21.6052  -33.8293   -0.3700 C.3       4 GLC5        0.0000 
     47 CA         22.2350  -34.5190   -2.1340 C.3       8 GLP5        0.0000 
     48 CA         22.5663  -32.0667    1.2420 C.3       4 GLC5        0.0000 
     49 CA         24.1570  -30.9940    1.0900 C.3       8 GLP5        0.0000 
@<TRIPOS>BOND
@<TRIPOS>SUBSTRUCTURE
     1 ALC1       19 GROUP        1 X    ALC  0     ROOT ALC X 1
     2 SEC2        4 GROUP        1 X    SEC  0     **** SEC X 2
     3 LYC4        1 GROUP        1 X    LYC  0     **** LYC X 4
     4 GLC5       16 GROUP        1 X    GLC  0     **** GLC X 6
     5 ALP1       21 GROUP        1 Y    ALP  0     ROOT ALP Y 8
     6 SEP2        6 GROUP        1 Y    SEP  0     **** SEP Y 9
     7 LYP4        3 GROUP        1 Y    LYP  0     **** LYP Y 11
     8 GLP5       18 GROUP        1 Y    GLP  0     **** GLP Y 13
     9 ALL1       20 GROUP        1 Z    ALL  0     ROOT ALL Z 15
    10 SEL2        5 GROUP        1 Z    SEL  0     **** SEL Z 16
    11 LYL4        2 GROUP        1 Z    LYL  0     **** LYL Z 18
    12 GLL5       17 GROUP        1 Z    GLL  0     **** GLL Z 20
@<TRIPOS>SET

