#    Name: 3iew_CDP_1_ligand
#    Modification time : Tue Mar 25 16:23:43 2014

@<TRIPOS>MOLECULE
3iew_CDP_1_ligand
   37    38     1     0     0
SMALL
NO_CHARGES


@<TRIPOS>ATOM
      1 O3B        28.9900  -37.5970    0.9580 O.co2     1 CDP901      0.0000 
      2 PB         28.5130  -36.1960    0.6340 P.3       1 CDP901      0.0000 
      3 O1B        29.0800  -35.1540    1.5710 O.co2     1 CDP901      0.0000 
      4 O2B        28.6510  -35.8810   -0.8370 O.co2     1 CDP901      0.0000 
      5 O3A        26.9060  -36.1850    0.9190 O.3       1 CDP901      0.0000 
      6 PA         25.9530  -34.8640    0.9810 P.3       1 CDP901      0.0000 
      7 O1A        26.6620  -33.7750    1.7590 O.co2     1 CDP901      0.0000 
      8 O2A        25.4470  -34.5480   -0.4060 O.co2     1 CDP901      0.0000 
      9 O5'        24.6860  -35.3210    1.8860 O.3       1 CDP901      0.0000 
     10 C5'        23.9970  -36.5710    1.7410 C.3       1 CDP901      0.0000 
     11 C4'        22.9940  -36.8450    2.8780 C.3       1 CDP901      0.0000 
     12 O4'        22.4260  -35.6440    3.4170 O.3       1 CDP901      0.0000 
     13 C3'        21.8110  -37.6900    2.4070 C.3       1 CDP901      0.0000 
     14 O3'        21.4300  -38.6920    3.3600 O.3       1 CDP901      0.0000 
     15 C2'        20.6560  -36.7290    2.2670 C.3       1 CDP901      0.0000 
     16 O2'        19.4010  -37.3930    2.5170 O.3       1 CDP901      0.0000 
     17 C1'        21.0000  -35.6040    3.2380 C.3       1 CDP901      0.0000 
     18 N1         20.5560  -34.3080    2.6960 N.am      1 CDP901      0.0000 
     19 C2         19.4570  -33.6280    3.2550 C.2       1 CDP901      0.0000 
     20 O2         18.8430  -34.1040    4.2310 O.2       1 CDP901      0.0000 
     21 N3         19.0470  -32.4390    2.7440 N.2       1 CDP901      0.0000 
     22 C4         19.6790  -31.8730    1.7010 C.2       1 CDP901      0.0000 
     23 N4         19.2600  -30.6870    1.2060 N.pl3     1 CDP901      0.0000 
     24 C5         20.7640  -32.5270    1.1360 C.2       1 CDP901      0.0000 
     25 C6         21.1870  -33.7520    1.6520 C.2       1 CDP901      0.0000 
     26 H          24.7056  -37.4230    1.7168 H         1 CDP901      0.0000 
     27 H          23.4319  -36.6132    0.7884 H         1 CDP901      0.0000 
     28 H          23.4990  -37.4061    3.6581 H         1 CDP901      0.0000 
     29 H          22.0301  -38.0916    1.4495 H         1 CDP901      0.0000 
     30 H          20.7092  -36.3187    1.2636 H         1 CDP901      0.0000 
     31 H          20.4969  -35.8156    4.1668 H         1 CDP901      0.0000 
     32 H          18.4593  -30.2835    1.6488 H         1 CDP901      0.0000 
     33 H          19.7879  -30.3183    0.4408 H         1 CDP901      0.0000 
     34 H          21.2591  -32.1114    0.3362 H         1 CDP901      0.0000 
     35 H          22.0023  -34.2195    1.2055 H         1 CDP901      0.0000 
     36 H          21.1916  -39.4934    2.8114 H         1 CDP901      0.0000 
     37 H          19.4037  -38.1881    1.9106 H         1 CDP901      0.0000 
@<TRIPOS>BOND
     1    2    1 ar   
     2    3    2 ar   
     3    4    2 ar   
     4    5    2 1    
     5    6    5 1    
     6    7    6 ar   
     7    8    6 ar   
     8    9    6 1    
     9   10    9 1    
    10   11   10 1    
    11   26   10 1    
    12   27   10 1    
    13   12   11 1    
    14   13   11 1    
    15   28   11 1    
    16   17   12 1    
    17   14   13 1    
    18   15   13 1    
    19   29   13 1    
    20   36   14 1    
    21   16   15 1    
    22   17   15 1    
    23   30   15 1    
    24   37   16 1    
    25   18   17 1    
    26   31   17 1    
    27   19   18 am   
    28   25   18 1    
    29   20   19 2    
    30   21   19 1    
    31   22   21 2    
    32   23   22 1    
    33   24   22 1    
    34   32   23 1    
    35   33   23 1    
    36   25   24 2    
    37   34   24 1    
    38   35   25 1    
@<TRIPOS>SUBSTRUCTURE
     1 CDP901      1 GROUP   
@<TRIPOS>SET

