#    Name: 1r6g_442_1_INTS_M
#    Modification time : Tue Mar 25 00:25:21 2014

@<TRIPOS>MOLECULE
1r6g_442_1_INTS_M
  106     0     6     0     0
SMALL
NO_CHARGES


@<TRIPOS>ATOM
      1 N          42.5385    2.7150   17.3340 N.am      1 SEC2        0.0000 
      2 N          44.1220    2.7280   17.5560 N.am      5 SEL2        0.0000 
      3 N          40.9550    2.7020   17.1120 N.am      3 SEP2        0.0000 
      4 N          43.1530    1.9940   16.6980 N.am      1 SEC2        0.0000 
      5 N          42.1840    1.2600   15.8400 N.am      3 SEP2        0.0000 
      6 N          44.3405    1.7795   18.8050 N.am      1 SEC2        0.0000 
      7 N          44.5590    0.8310   20.0540 N.am      3 SEP2        0.0000 
      8 CA         44.9575    4.0525   19.5845 C.3       2 GLC5        0.0000 
      9 CA         45.3060    3.1580   17.6040 C.3       6 GLL5        0.0000 
     10 CA         44.6090    4.9470   21.5650 C.3       4 GLP5        0.0000 
     11 CA         45.1015    1.4110   16.5780 C.3       2 GLC5        0.0000 
     12 CA         44.8970   -0.3360   15.5520 C.3       4 GLP5        0.0000 
     13 N          45.4135    1.6600   19.0545 N.am      1 SEC2        0.0000 
     14 N          46.2680    2.4890   18.0550 N.am      5 SEL2        0.0000 
     15 N          46.2410    1.1935   17.1155 N.am      1 SEC2        0.0000 
     16 N          46.2140   -0.1020   16.1760 N.am      3 SEP2        0.0000 
     17 CA         45.3635    6.3550   16.8020 C.3       2 GLC5        0.0000 
     18 CA         45.5010    4.5660   17.0710 C.3       6 GLL5        0.0000 
     19 CA         45.2260    8.1440   16.5330 C.3       4 GLP5        0.0000 
     20 CA         46.3140    5.9975   14.9585 C.3       2 GLC5        0.0000 
     21 CA         47.0470    4.0480   15.1910 C.3       6 GLL5        0.0000 
     22 CA         45.5810    7.9470   14.7260 C.3       4 GLP5        0.0000 
     23 CA         51.2650    7.4915   17.0015 C.3       2 GLC5        0.0000 
     24 CA         50.9260    5.4350   17.4480 C.3       6 GLL5        0.0000 
     25 CA         51.6040    9.5480   16.5550 C.3       4 GLP5        0.0000 
     26 CA         50.1945    6.6415   19.1525 C.3       2 GLC5        0.0000 
     27 CA         49.4630    7.8480   20.8570 C.3       4 GLP5        0.0000 
     28 CA         50.1815    4.2940   19.0220 C.3       2 GLC5        0.0000 
     29 CA         49.4370    3.1530   20.5960 C.3       4 GLP5        0.0000 
     30 CA         52.3890    6.3510   18.1580 C.3       2 GLC5        0.0000 
     31 CA         53.8520    7.2670   18.8680 C.3       4 GLP5        0.0000 
     32 CA         48.2040    1.6230   11.6990 C.3       2 GLC5        0.0000 
     33 CA         48.4830    3.1900   12.8760 C.3       6 GLL5        0.0000 
     34 CA         47.9250    0.0560   10.5220 C.3       4 GLP5        0.0000 
     35 CA         47.8910    4.7445   11.8600 C.3       2 GLC5        0.0000 
     36 CA         47.2990    6.2990   10.8440 C.3       4 GLP5        0.0000 
     37 CA         50.0790    2.0335   13.9125 C.3       2 GLC5        0.0000 
     38 CA         51.6750    0.8770   14.9490 C.3       4 GLP5        0.0000 
     39 CA         52.3775    3.5095   11.3865 C.3       2 GLC5        0.0000 
     40 CA         52.0960    5.0160   12.8600 C.3       6 GLL5        0.0000 
     41 CA         52.6590    2.0030    9.9130 C.3       4 GLP5        0.0000 
     42 N          51.9060    9.9145   11.9715 N.am      1 SEC2        0.0000 
     43 N          52.1660    8.3590   11.2990 N.am      5 SEL2        0.0000 
     44 N          51.6460   11.4700   12.6440 N.am      3 SEP2        0.0000 
     45 CA         53.0750    3.8860   10.4000 C.3       2 GLC5        0.0000 
     46 CA         53.4910    5.7690   10.8870 C.3       6 GLL5        0.0000 
     47 CA         56.8735    7.0255    9.3765 C.3       2 GLC5        0.0000 
     48 CA         54.6850    6.9700    9.2530 C.3       6 GLL5        0.0000 
     49 CA         59.0620    7.0810    9.5000 C.3       4 GLP5        0.0000 
     50 CA         55.3065    7.0430   11.3800 C.3       2 GLC5        0.0000 
     51 CA         55.9280    7.1160   13.5070 C.3       4 GLP5        0.0000 
     52 CA         55.1785    7.5260    6.1090 C.3       2 GLC5        0.0000 
     53 CA         54.6220    7.9450    8.0690 C.3       6 GLL5        0.0000 
     54 CA         55.7350    7.1070    4.1490 C.3       4 GLP5        0.0000 
     55 CA         53.9050    9.0725    6.3855 C.3       2 GLC5        0.0000 
     56 CA         53.1880   10.2000    4.7020 C.3       4 GLP5        0.0000 
     57 CA         57.5495    8.3415    9.3635 C.3       2 GLC5        0.0000 
     58 CA         56.0370    9.6020    9.2270 C.3       6 GLL5        0.0000 
     59 CA         57.2180    9.4410   11.5455 C.3       2 GLC5        0.0000 
     60 CA         56.1990   10.7180   10.0290 C.3       6 GLL5        0.0000 
     61 CA         58.2370    8.1640   13.0620 C.3       4 GLP5        0.0000 
     62 CA         57.4610   11.4455   11.1155 C.3       2 GLC5        0.0000 
     63 CA         58.7230   12.1730   12.2020 C.3       4 GLP5        0.0000 
     64 CA         53.9250   12.9075    9.5985 C.3       2 GLC5        0.0000 
     65 CA         53.8180   11.0500   10.0450 C.3       6 GLL5        0.0000 
     66 CA         54.0320   14.7650    9.1520 C.3       4 GLP5        0.0000 
     67 CA         56.4945   12.3970   11.4505 C.3       2 GLC5        0.0000 
     68 CA         55.0950   11.4440   10.4430 C.3       6 GLL5        0.0000 
     69 CA         57.8940   13.3500   12.4580 C.3       4 GLP5        0.0000 
     70 CA         44.6953    4.0995   15.4917 C.3       2 GLC5        0.0000 
     71 CA         43.9870    4.3370   13.6460 C.3       4 GLP5        0.0000 
     72 CA         49.0570    4.0595   18.7490 C.3       2 GLC5        0.0000 
     73 CA         48.0360    5.0120   17.1770 C.3       6 GLL5        0.0000 
     74 CA         47.4075    6.5506   17.1176 C.3       2 GLC5        0.0000 
     75 CA         49.3180    4.9200   16.6270 C.3       6 GLL5        0.0000 
     76 CA         46.4220    8.2390   17.5120 C.3       4 GLP5        0.0000 
     77 CA         50.4305    3.2757   17.1253 C.3       2 GLC5        0.0000 
     78 CA         50.7390    1.3740   17.2130 C.3       4 GLP5        0.0000 
     79 CA         49.8192    2.7553   16.0770 C.3       2 GLC5        0.0000 
     80 CA         49.5040    4.3530   15.2940 C.3       6 GLL5        0.0000 
     81 CA         45.8106    4.2291   14.4266 C.3       2 GLC5        0.0000 
     82 CA         48.2950    3.9200   14.5880 C.3       6 GLL5        0.0000 
     83 CA         53.0520    4.0020   14.3535 C.3       2 GLC5        0.0000 
     84 CA         51.1400    5.2740   13.8500 C.3       6 GLL5        0.0000 
     85 CA         54.4860    2.8590   15.3520 C.3       4 GLP5        0.0000 
     86 CA         53.4525    5.5630   13.8025 C.3       2 GLC5        0.0000 
     87 CA         55.2870    5.9810   14.2500 C.3       4 GLP5        0.0000 
     88 CA         50.3475    6.8982   11.3353 C.3       2 GLC5        0.0000 
     89 CA         52.4820    6.0230   11.9810 C.3       6 GLL5        0.0000 
     90 CA         48.5260    7.1030   10.6220 C.3       4 GLP5        0.0000 
     91 CA         54.1367    5.9385   12.8420 C.3       2 GLC5        0.0000 
     92 CA         53.2702    7.9173   13.1848 C.3       2 GLC5        0.0000 
     93 CA         51.8560    7.3640   12.1160 C.3       6 GLL5        0.0000 
     94 CA         55.1560    8.3610   13.7610 C.3       4 GLP5        0.0000 
     95 CA         51.9612    9.4273   13.1453 C.3       2 GLC5        0.0000 
     96 CA         52.5380   11.3810   13.6820 C.3       4 GLP5        0.0000 
     97 CA         49.6302    7.0845   12.0753 C.3       2 GLC5        0.0000 
     98 CA         50.9130    7.5830   13.1010 C.3       6 GLL5        0.0000 
     99 CA         51.1692    8.3070   15.0418 C.3       2 GLC5        0.0000 
    100 CA         48.8652    7.9915   14.0162 C.3       2 GLC5        0.0000 
    101 CA         46.9960    8.9170   14.5040 C.3       4 GLP5        0.0000 
    102 CA         55.5930   12.8515    9.5530 C.3       2 GLC5        0.0000 
    103 CA         55.5390   14.6220    8.8700 C.3       4 GLP5        0.0000 
    104 CA         56.9734   10.6976    8.3301 C.3       2 GLC5        0.0000 
    105 CA         58.1450   11.3270    7.1360 C.3       4 GLP5        0.0000 
    106 CA         53.4972   11.3140   11.9630 C.3       2 GLC5        0.0000 
@<TRIPOS>BOND
@<TRIPOS>SUBSTRUCTURE
     1 SEC2        1 GROUP        1 X    SEC  0     ROOT SEC X 2
     2 GLC5        8 GROUP        1 X    GLC  0     **** GLC X 6
     3 SEP2        3 GROUP        1 Y    SEP  0     ROOT SEP Y 9
     4 GLP5       10 GROUP        1 Y    GLP  0     **** GLP Y 13
     5 SEL2        2 GROUP        1 Z    SEL  0     ROOT SEL Z 16
     6 GLL5        9 GROUP        1 Z    GLL  0     **** GLL Z 20
@<TRIPOS>SET

