#    Name: 1r6g_442_1_ligand
#    Modification time : Tue Mar 25 00:25:21 2014

@<TRIPOS>MOLECULE
1r6g_442_1_ligand
   53    55     1     0     0
SMALL
NO_CHARGES


@<TRIPOS>ATOM
      1 O3         44.1220    2.7280   17.5560 O.3       1 442500      0.0000 
      2 C8         45.3060    3.1580   17.6040 C.3       1 442500      0.0000 
      3 O2         46.2680    2.4890   18.0550 O.3       1 442500      0.0000 
      4 C7         45.5010    4.5660   17.0710 C.3       1 442500      0.0000 
      5 C5         46.9000    4.5970   16.4620 C.ar      1 442500      0.0000 
      6 C6         47.0470    4.0480   15.1910 C.ar      1 442500      0.0000 
      7 C4         48.0360    5.0120   17.1770 C.ar      1 442500      0.0000 
      8 C3         49.3180    4.9200   16.6270 C.ar      1 442500      0.0000 
      9 BR2        50.9260    5.4350   17.4480 Br        1 442500      0.0000 
     10 C2         49.5040    4.3530   15.2940 C.ar      1 442500      0.0000 
     11 C1         48.2950    3.9200   14.5880 C.ar      1 442500      0.0000 
     12 BR1        48.4830    3.1900   12.8760 Br        1 442500      0.0000 
     13 O4         50.7590    4.2800   14.7330 O.3       1 442500      0.0000 
     14 C11        51.1400    5.2740   13.8500 C.ar      1 442500      0.0000 
     15 C12        52.0960    5.0160   12.8600 C.ar      1 442500      0.0000 
     16 C13        52.4820    6.0230   11.9810 C.ar      1 442500      0.0000 
     17 C14        51.8560    7.3640   12.1160 C.ar      1 442500      0.0000 
     18 C15        50.9130    7.5830   13.1010 C.ar      1 442500      0.0000 
     19 C16        50.5560    6.5490   13.9560 C.ar      1 442500      0.0000 
     20 O          52.1660    8.3590   11.2990 O.3       1 442500      0.0000 
     21 C17        53.4910    5.7690   10.8870 C.3       1 442500      0.0000 
     22 O1         54.3530    4.8870   10.9630 O.3       1 442500      0.0000 
     23 N28        53.4300    6.5340    9.8090 N.4       1 442500      0.0000 
     24 C29        54.6850    6.9700    9.2530 C.3       1 442500      0.0000 
     25 C30        54.6220    7.9450    8.0690 C.3       1 442500      0.0000 
     26 C31        54.7720    9.2350    8.8120 C.ar      1 442500      0.0000 
     27 C36        56.0370    9.6020    9.2270 C.ar      1 442500      0.0000 
     28 C35        56.1990   10.7180   10.0290 C.ar      1 442500      0.0000 
     29 C32        53.6540    9.9360    9.2290 C.ar      1 442500      0.0000 
     30 C33        53.8180   11.0500   10.0450 C.ar      1 442500      0.0000 
     31 C34        55.0950   11.4440   10.4430 C.ar      1 442500      0.0000 
     32 H          45.5484    2.6842   16.2576 H         1 442500      0.0000 
     33 H          45.4444    5.2707   17.8748 H         1 442500      0.0000 
     34 H          44.7750    4.7717   16.3117 H         1 442500      0.0000 
     35 H          46.2015    3.7249   14.6784 H         1 442500      0.0000 
     36 H          47.9180    5.3938   18.1317 H         1 442500      0.0000 
     37 H          52.5114    4.0788   12.7857 H         1 442500      0.0000 
     38 H          50.4747    8.5080   13.2035 H         1 442500      0.0000 
     39 H          49.8441    6.7126   14.6912 H         1 442500      0.0000 
     40 H          54.3581    6.7367   11.5232 H         1 442500      0.0000 
     41 H          55.2980    6.0875    8.9183 H         1 442500      0.0000 
     42 H          55.3213    7.4559   10.0439 H         1 442500      0.0000 
     43 H          53.6806    7.8809    7.6169 H         1 442500      0.0000 
     44 H          55.4407    7.7787    7.4391 H         1 442500      0.0000 
     45 H          56.8565    9.0488    8.9418 H         1 442500      0.0000 
     46 H          57.1448   11.0102   10.3195 H         1 442500      0.0000 
     47 H          52.7169    9.6407    8.9421 H         1 442500      0.0000 
     48 H          52.9970   11.5854   10.3565 H         1 442500      0.0000 
     49 H          55.2117   12.2706   11.0413 H         1 442500      0.0000 
     50 H          43.9677    2.2953   18.4442 H         1 442500      0.0000 
     51 H          47.0643    2.7981   17.5350 H         1 442500      0.0000 
     52 H          52.7625    8.9555   11.8359 H         1 442500      0.0000 
     53 H          54.9304    5.4644   11.5404 H         1 442500      0.0000 
@<TRIPOS>BOND
     1    2    1 1    
     2   50    1 1    
     3    3    2 1    
     4    4    2 1    
     5   32    2 1    
     6   51    3 1    
     7    5    4 1    
     8   33    4 1    
     9   34    4 1    
    10    6    5 ar   
    11    7    5 ar   
    12   11    6 ar   
    13   35    6 1    
    14    8    7 ar   
    15   36    7 1    
    16    9    8 1    
    17   10    8 ar   
    18   11   10 ar   
    19   13   10 1    
    20   12   11 1    
    21   14   13 1    
    22   15   14 ar   
    23   19   14 ar   
    24   16   15 ar   
    25   37   15 1    
    26   17   16 ar   
    27   21   16 1    
    28   18   17 ar   
    29   20   17 1    
    30   19   18 ar   
    31   38   18 1    
    32   39   19 1    
    33   52   20 1    
    34   22   21 1    
    35   23   21 1    
    36   40   21 1    
    37   53   22 1    
    38   24   23 1    
    39   25   24 1    
    40   41   24 1    
    41   42   24 1    
    42   26   25 1    
    43   43   25 1    
    44   44   25 1    
    45   27   26 ar   
    46   29   26 ar   
    47   28   27 ar   
    48   45   27 1    
    49   31   28 ar   
    50   46   28 1    
    51   30   29 ar   
    52   47   29 1    
    53   31   30 ar   
    54   48   30 1    
    55   49   31 1    
@<TRIPOS>SUBSTRUCTURE
     1 442500      1 GROUP   
@<TRIPOS>SET

