#    Name: 3uha_NAD_2_INTS_M
#    Modification time : Mon Mar 24 22:21:32 2014

@<TRIPOS>MOLECULE
3uha_NAD_2_INTS_M
   95     0    12     0     0
SMALL
NO_CHARGES


@<TRIPOS>ATOM
      1 NZ         16.1475   29.1185   18.9455 N.4       3 LYC4        0.0000 
      2 NZ         17.4770   28.3800   19.9530 N.4      11 LYL4        0.0000 
      3 NZ         14.8180   29.8570   17.9380 N.4       7 LYP4        0.0000 
      4 N          18.4315   27.5355   19.0885 N.am      2 SEC2        0.0000 
      5 N          17.4770   28.3800   19.9530 N.am     10 SEL2        0.0000 
      6 N          19.3860   26.6910   18.2240 N.am      6 SEP2        0.0000 
      7 N          15.5205   28.7080   21.7240 N.am      2 SEC2        0.0000 
      8 N          16.9070   29.4390   22.1390 N.am     10 SEL2        0.0000 
      9 N          14.1340   27.9770   21.3090 N.am      6 SEP2        0.0000 
     10 CA         18.9405   30.8640   23.6305 C.3       4 GLC5        0.0000 
     11 CA         19.6190   29.2100   22.9650 C.3      12 GLL5        0.0000 
     12 CA         18.2620   32.5180   24.2960 C.3       8 GLP5        0.0000 
     13 CA         22.4170   27.9035   23.8725 C.3       4 GLC5        0.0000 
     14 CA         20.4600   28.1960   23.7370 C.3      12 GLL5        0.0000 
     15 CA         24.3740   27.6110   24.0080 C.3       8 GLP5        0.0000 
     16 CA         21.7815   29.9225   24.0945 C.3       4 GLC5        0.0000 
     17 CA         23.1030   31.6490   24.4520 C.3       8 GLP5        0.0000 
     18 N          20.9095   30.4925   24.7300 N.am      2 SEC2        0.0000 
     19 N          21.1000   28.8030   24.8330 N.am     10 SEL2        0.0000 
     20 N          20.7190   32.1820   24.6270 N.am      6 SEP2        0.0000 
     21 O          20.7490   25.1970   25.4745 O.2       1 ALC1        0.0000 
     22 O          20.0100   25.8460   24.0910 O.2       9 ALL1        0.0000 
     23 O          21.4880   24.5480   26.8580 O.2       5 ALP1        0.0000 
     24 O          21.2860   25.4195   24.5410 O.2       1 ALC1        0.0000 
     25 O          22.5620   24.9930   24.9910 O.2       5 ALP1        0.0000 
     26 O          20.4555   25.3935   26.7800 O.2       1 ALC1        0.0000 
     27 O          19.4230   26.2390   26.7020 O.2       9 ALL1        0.0000 
     28 CA         22.7015   27.7515   24.9790 C.3       4 GLC5        0.0000 
     29 CA         21.0290   27.8920   25.9500 C.3      12 GLL5        0.0000 
     30 N          25.0600   28.4385   31.0055 N.am      2 SEC2        0.0000 
     31 N          24.5210   28.9410   29.6770 N.am     10 SEL2        0.0000 
     32 N          25.5990   27.9360   32.3340 N.am      6 SEP2        0.0000 
     33 CA         25.8700   28.6300   27.7675 C.3       4 GLC5        0.0000 
     34 CA         24.5630   28.0140   28.7280 C.3      12 GLL5        0.0000 
     35 CA         27.1770   29.2460   26.8070 C.3       8 GLP5        0.0000 
     36 CA         24.6570   26.1930   28.0250 C.3       4 GLC5        0.0000 
     37 CA         24.7510   24.3720   27.3220 C.3       8 GLP5        0.0000 
     38 CA         23.6505   26.5470   29.6025 C.3       4 GLC5        0.0000 
     39 CA         22.7380   25.0800   30.4770 C.3       8 GLP5        0.0000 
     40 CA         25.9860   27.7520   29.7105 C.3       4 GLC5        0.0000 
     41 CA         27.4090   27.4900   30.6930 C.3       8 GLP5        0.0000 
     42 CA         23.4475   28.1165   25.9345 C.3       4 GLC5        0.0000 
     43 CA         22.5210   28.6220   27.8610 C.3      12 GLL5        0.0000 
     44 NZ         16.5055   30.9060   18.3975 N.4       3 LYC4        0.0000 
     45 NZ         18.0690   30.8390   18.1380 N.4      11 LYL4        0.0000 
     46 N          16.9290   30.1940   17.5985 N.am      2 SEC2        0.0000 
     47 N          18.0690   30.8390   18.1380 N.am     10 SEL2        0.0000 
     48 N          15.7890   29.5490   17.0590 N.am      6 SEP2        0.0000 
     49 N          16.5055   30.9060   18.3975 N.am      2 SEC2        0.0000 
     50 N          14.9420   30.9730   18.6570 N.am      6 SEP2        0.0000 
     51 N          20.8300   29.2005   17.9930 N.am      2 SEC2        0.0000 
     52 N          20.3030   29.9000   19.0680 N.am     10 SEL2        0.0000 
     53 N          21.3570   28.5010   16.9180 N.am      6 SEP2        0.0000 
     54 N          21.4950   30.3600   18.5955 N.am      2 SEC2        0.0000 
     55 N          22.6870   30.8200   18.1230 N.am      6 SEP2        0.0000 
     56 CA         19.9540   32.8920   22.5955 C.3       4 GLC5        0.0000 
     57 CA         20.3090   32.6470   20.4690 C.3      12 GLL5        0.0000 
     58 CA         19.5990   33.1370   24.7220 C.3       8 GLP5        0.0000 
     59 CA         22.3580   35.3550   20.5660 C.3       4 GLC5        0.0000 
     60 CA         20.7800   34.0880   20.3500 C.3      12 GLL5        0.0000 
     61 CA         23.9360   36.6220   20.7820 C.3       8 GLP5        0.0000 
     62 CA         19.6165   34.0805   22.7475 C.3       4 GLC5        0.0000 
     63 CA         19.6340   35.0240   20.7730 C.3      12 GLL5        0.0000 
     64 O          21.0305   34.6960   22.5430 O.2       1 ALC1        0.0000 
     65 O          20.0790   35.9350   21.7710 O.2       9 ALL1        0.0000 
     66 O          21.9820   33.4570   23.3150 O.2       5 ALP1        0.0000 
     67 CA         22.3015   36.1530   19.7570 C.3       4 GLC5        0.0000 
     68 CA         20.6670   35.6840   18.7320 C.3      12 GLL5        0.0000 
     69 CA         23.1010   35.1740   16.8845 C.3       4 GLC5        0.0000 
     70 CA         21.5240   36.4890   16.7220 C.3      12 GLL5        0.0000 
     71 CA         24.6780   33.8590   17.0470 C.3       8 GLP5        0.0000 
     72 N          23.3905   38.0660   12.3550 N.am      2 SEC2        0.0000 
     73 N          22.8540   37.8320   13.5970 N.am     10 SEL2        0.0000 
     74 N          23.9270   38.3000   11.1130 N.am      6 SEP2        0.0000 
     75 O          23.9630   37.3355   16.8220 O.2       1 ALC1        0.0000 
     76 O          23.7350   37.8830   15.5890 O.2       9 ALL1        0.0000 
     77 O          24.1910   36.7880   18.0550 O.2       5 ALP1        0.0000 
     78 O          24.9265   38.7785   15.0925 O.2       1 ALC1        0.0000 
     79 O          26.1180   39.6740   14.5960 O.2       5 ALP1        0.0000 
     80 CA         20.6060   35.8400   12.5990 C.3       4 GLC5        0.0000 
     81 CA         20.5240   36.1530   14.5620 C.3      12 GLL5        0.0000 
     82 CA         20.6880   35.5270   10.6360 C.3       8 GLP5        0.0000 
     83 CA         19.3995   33.2560   14.8505 C.3       4 GLC5        0.0000 
     84 CA         19.5350   35.4140   15.2140 C.3      12 GLL5        0.0000 
     85 CA         19.2640   31.0980   14.4870 C.3       8 GLP5        0.0000 
     86 CA         19.8949   26.8700   22.1133 C.3       4 GLC5        0.0000 
     87 CA         20.0130   25.8150   20.3640 C.3       8 GLP5        0.0000 
     88 CA         21.1082   28.1437   29.4115 C.3       4 GLC5        0.0000 
     89 CA         19.7430   27.1770   30.4730 C.3       8 GLP5        0.0000 
     90 CA         22.7497   30.7694   27.7252 C.3       4 GLC5        0.0000 
     91 CA         22.4260   29.5990   28.8390 C.3      12 GLL5        0.0000 
     92 CA         22.7660   32.3900   26.8680 C.3       8 GLP5        0.0000 
     93 CA         21.4337   34.7790   14.1969 C.3       4 GLC5        0.0000 
     94 CA         21.5760   36.7070   15.3370 C.3      12 GLL5        0.0000 
     95 CA         22.5750   33.6360   13.3120 C.3       8 GLP5        0.0000 
@<TRIPOS>BOND
@<TRIPOS>SUBSTRUCTURE
     1 ALC1       21 GROUP        1 X    ALC  0     ROOT ALC X 1
     2 SEC2        4 GROUP        1 X    SEC  0     **** SEC X 2
     3 LYC4        1 GROUP        1 X    LYC  0     **** LYC X 4
     4 GLC5       10 GROUP        1 X    GLC  0     **** GLC X 6
     5 ALP1       23 GROUP        1 Y    ALP  0     ROOT ALP Y 8
     6 SEP2        6 GROUP        1 Y    SEP  0     **** SEP Y 9
     7 LYP4        3 GROUP        1 Y    LYP  0     **** LYP Y 11
     8 GLP5       12 GROUP        1 Y    GLP  0     **** GLP Y 13
     9 ALL1       22 GROUP        1 Z    ALL  0     ROOT ALL Z 15
    10 SEL2        5 GROUP        1 Z    SEL  0     **** SEL Z 16
    11 LYL4        2 GROUP        1 Z    LYL  0     **** LYL Z 18
    12 GLL5       11 GROUP        1 Z    GLL  0     **** GLL Z 20
@<TRIPOS>SET

