#    Name: 3uha_NAD_2_ligand
#    Modification time : Mon Mar 24 22:21:32 2014

@<TRIPOS>MOLECULE
3uha_NAD_2_ligand
   70    74     1     0     0
SMALL
NO_CHARGES


@<TRIPOS>ATOM
      1 PA         17.9620   29.2150   21.0910 P.3       1 NAD374      0.0000 
      2 O1A        17.4770   28.3800   19.9530 O.co2     1 NAD374      0.0000 
      3 O2A        16.9070   29.4390   22.1390 O.co2     1 NAD374      0.0000 
      4 O5B        19.1640   28.4660   21.8390 O.3       1 NAD374      0.0000 
      5 C5B        19.6190   29.2100   22.9650 C.3       1 NAD374      0.0000 
      6 C4B        20.4600   28.1960   23.7370 C.3       1 NAD374      0.0000 
      7 O4B        21.1000   28.8030   24.8330 O.3       1 NAD374      0.0000 
      8 C3B        19.5140   27.1470   24.3740 C.3       1 NAD374      0.0000 
      9 O3B        20.0100   25.8460   24.0910 O.3       1 NAD374      0.0000 
     10 C2B        19.5670   27.4260   25.9050 C.3       1 NAD374      0.0000 
     11 O2B        19.4230   26.2390   26.7020 O.3       1 NAD374      0.0000 
     12 C1B        21.0290   27.8920   25.9500 C.3       1 NAD374      0.0000 
     13 N9A        21.3630   28.6900   27.1180 N.pl3     1 NAD374      0.0000 
     14 C8A        20.6070   29.6960   27.6170 C.2       1 NAD374      0.0000 
     15 N7A        21.2360   30.2150   28.6450 N.2       1 NAD374      0.0000 
     16 C5A        22.4260   29.5990   28.8390 C.ar      1 NAD374      0.0000 
     17 C6A        23.4660   29.7520   29.7690 C.ar      1 NAD374      0.0000 
     18 N6A        23.4180   30.7400   30.7540 N.pl3     1 NAD374      0.0000 
     19 N1A        24.5210   28.9410   29.6770 N.ar      1 NAD374      0.0000 
     20 C2A        24.5630   28.0140   28.7280 C.ar      1 NAD374      0.0000 
     21 N3A        23.5980   27.8430   27.8410 N.ar      1 NAD374      0.0000 
     22 C4A        22.5210   28.6220   27.8610 C.ar      1 NAD374      0.0000 
     23 O3         18.5070   30.6980   20.7560 O.3       1 NAD374      0.0000 
     24 PN         19.1130   30.8590   19.2760 P.3       1 NAD374      0.0000 
     25 O1N        18.0690   30.8390   18.1380 O.co2     1 NAD374      0.0000 
     26 O2N        20.3030   29.9000   19.0680 O.co2     1 NAD374      0.0000 
     27 O5D        19.6550   32.3630   19.2330 O.3       1 NAD374      0.0000 
     28 C5D        20.3090   32.6470   20.4690 C.3       1 NAD374      0.0000 
     29 C4D        20.7800   34.0880   20.3500 C.3       1 NAD374      0.0000 
     30 O4D        21.0200   34.3260   18.9530 O.3       1 NAD374      0.0000 
     31 C3D        19.6340   35.0240   20.7730 C.3       1 NAD374      0.0000 
     32 O3D        20.0790   35.9350   21.7710 O.3       1 NAD374      0.0000 
     33 C2D        19.3170   35.8190   19.4970 C.3       1 NAD374      0.0000 
     34 O2D        19.0010   37.1280   19.9960 O.3       1 NAD374      0.0000 
     35 C1D        20.6670   35.6840   18.7320 C.3       1 NAD374      0.0000 
     36 N1N        20.5870   35.7970   17.2890 N.pl3     1 NAD374      0.0000 
     37 C2N        21.5240   36.4890   16.7220 C.ar      1 NAD374      0.0000 
     38 C3N        21.5760   36.7070   15.3370 C.ar      1 NAD374      0.0000 
     39 C7N        22.7390   37.5060   14.7760 C.2       1 NAD374      0.0000 
     40 O7N        22.8540   37.8320   13.5970 O.2       1 NAD374      0.0000 
     41 N7N        23.7350   37.8830   15.5890 N.am      1 NAD374      0.0000 
     42 C4N        20.5240   36.1530   14.5620 C.ar      1 NAD374      0.0000 
     43 C5N        19.5350   35.4140   15.2140 C.ar      1 NAD374      0.0000 
     44 C6N        19.6060   35.2430   16.5900 C.ar      1 NAD374      0.0000 
     45 H          18.8153   29.5295   23.5967 H         1 NAD374      0.0000 
     46 H          20.2518   30.0281   22.6868 H         1 NAD374      0.0000 
     47 H          21.1177   27.6936   23.0920 H         1 NAD374      0.0000 
     48 H          18.5391   27.3263   24.0333 H         1 NAD374      0.0000 
     49 H          18.9616   28.2209   26.1213 H         1 NAD374      0.0000 
     50 H          21.6647   27.0803   25.8018 H         1 NAD374      0.0000 
     51 H          19.7465   29.9691   27.2570 H         1 NAD374      0.0000 
     52 H          22.5997   31.3147   30.7613 H         1 NAD374      0.0000 
     53 H          24.2061   30.7882   31.3677 H         1 NAD374      0.0000 
     54 H          25.4215   27.3745   28.6805 H         1 NAD374      0.0000 
     55 H          21.1729   32.0199   20.6258 H         1 NAD374      0.0000 
     56 H          19.6368   32.5785   21.3102 H         1 NAD374      0.0000 
     57 H          21.6152   34.2525   20.9409 H         1 NAD374      0.0000 
     58 H          18.8017   34.4568   21.0343 H         1 NAD374      0.0000 
     59 H          18.5656   35.3298   18.9979 H         1 NAD374      0.0000 
     60 H          21.3736   36.3247   19.1624 H         1 NAD374      0.0000 
     61 H          22.3066   36.9287   17.2902 H         1 NAD374      0.0000 
     62 H          23.6383   37.6276   16.5510 H         1 NAD374      0.0000 
     63 H          24.4859   38.3860   15.1610 H         1 NAD374      0.0000 
     64 H          20.5008   36.2963   13.5607 H         1 NAD374      0.0000 
     65 H          18.7651   35.0029   14.6786 H         1 NAD374      0.0000 
     66 H          18.8673   34.6684   17.0523 H         1 NAD374      0.0000 
     67 H          20.9234   25.8233   24.4974 H         1 NAD374      0.0000 
     68 H          20.2929   25.7553   26.6052 H         1 NAD374      0.0000 
     69 H          20.9872   35.6085   22.0329 H         1 NAD374      0.0000 
     70 H          19.1797   37.0803   20.9787 H         1 NAD374      0.0000 
@<TRIPOS>BOND
     1    2    1 ar   
     2    3    1 ar   
     3    4    1 1    
     4   23    1 1    
     5    5    4 1    
     6    6    5 1    
     7   45    5 1    
     8   46    5 1    
     9    7    6 1    
    10    8    6 1    
    11   47    6 1    
    12   12    7 1    
    13    9    8 1    
    14   10    8 1    
    15   48    8 1    
    16   67    9 1    
    17   11   10 1    
    18   12   10 1    
    19   49   10 1    
    20   68   11 1    
    21   13   12 1    
    22   50   12 1    
    23   14   13 1    
    24   22   13 1    
    25   15   14 2    
    26   51   14 1    
    27   16   15 1    
    28   17   16 ar   
    29   22   16 ar   
    30   18   17 1    
    31   19   17 ar   
    32   52   18 1    
    33   53   18 1    
    34   20   19 ar   
    35   21   20 ar   
    36   54   20 1    
    37   22   21 ar   
    38   24   23 1    
    39   25   24 ar   
    40   26   24 ar   
    41   27   24 1    
    42   28   27 1    
    43   29   28 1    
    44   55   28 1    
    45   56   28 1    
    46   30   29 1    
    47   31   29 1    
    48   57   29 1    
    49   35   30 1    
    50   32   31 1    
    51   33   31 1    
    52   58   31 1    
    53   69   32 1    
    54   34   33 1    
    55   35   33 1    
    56   59   33 1    
    57   70   34 1    
    58   36   35 1    
    59   60   35 1    
    60   37   36 ar   
    61   44   36 ar   
    62   38   37 ar   
    63   61   37 1    
    64   39   38 1    
    65   42   38 ar   
    66   40   39 2    
    67   41   39 am   
    68   62   41 1    
    69   63   41 1    
    70   43   42 ar   
    71   64   42 1    
    72   44   43 ar   
    73   65   43 1    
    74   66   44 1    
@<TRIPOS>SUBSTRUCTURE
     1 NAD374      1 GROUP   
@<TRIPOS>SET

