#    Name: 1sb3_FAD_1_INTS_M
#    Modification time : Tue Mar 25 02:11:25 2014

@<TRIPOS>MOLECULE
1sb3_FAD_1_INTS_M
  136     0     9     0     0
SMALL
NO_CHARGES


@<TRIPOS>ATOM
      1 N          23.1705   57.1090   29.1120 N.am      2 SEC2        0.0000 
      2 N          22.5490   57.4990   30.2300 N.am      8 SEL2        0.0000 
      3 N          23.7920   56.7190   27.9940 N.am      5 SEP2        0.0000 
      4 N          23.2575   56.7195   31.1650 N.am      2 SEC2        0.0000 
      5 N          23.9660   55.9400   32.1000 N.am      5 SEP2        0.0000 
      6 N          20.9155   58.2715   33.5440 N.am      2 SEC2        0.0000 
      7 N          21.1630   58.2630   32.1210 N.am      8 SEL2        0.0000 
      8 N          20.6680   58.2800   34.9670 N.am      5 SEP2        0.0000 
      9 N          19.9520   57.6815   32.7440 N.am      2 SEC2        0.0000 
     10 N          18.7410   57.1000   33.3670 N.am      5 SEP2        0.0000 
     11 CA         19.4295   60.0055   32.1995 C.3       3 GLC5        0.0000 
     12 CA         19.7150   59.9540   30.2870 C.3       9 GLL5        0.0000 
     13 CA         19.1440   60.0570   34.1120 C.3       6 GLP5        0.0000 
     14 CA         19.1180   57.8755   30.7925 C.3       3 GLC5        0.0000 
     15 CA         18.5210   55.7970   31.2980 C.3       6 GLP5        0.0000 
     16 CA         21.3255   61.2105   29.7075 C.3       3 GLC5        0.0000 
     17 CA         22.9360   62.4670   29.1280 C.3       6 GLP5        0.0000 
     18 CA         18.2965   57.4330   29.8755 C.3       3 GLC5        0.0000 
     19 CA         18.0720   59.0690   28.4530 C.3       9 GLL5        0.0000 
     20 CA         19.6795   58.1570   25.2345 C.3       3 GLC5        0.0000 
     21 CA         18.9450   58.7800   27.2250 C.3       9 GLL5        0.0000 
     22 CA         20.4140   57.5340   23.2440 C.3       6 GLP5        0.0000 
     23 CA         18.6820   56.7530   28.1480 C.3       3 GLC5        0.0000 
     24 CA         18.4190   54.7260   29.0710 C.3       6 GLP5        0.0000 
     25 O          19.0235   57.0170   26.0780 O.2       1 ALC1        0.0000 
     26 O          18.2830   58.0770   26.2090 O.2       7 ALL1        0.0000 
     27 O          19.7640   55.9570   25.9470 O.2       4 ALP1        0.0000 
     28 CA         19.2310   62.0830   26.6445 C.3       3 GLC5        0.0000 
     29 CA         19.3460   60.1550   26.7700 C.3       9 GLL5        0.0000 
     30 CA         19.1160   64.0110   26.5190 C.3       6 GLP5        0.0000 
     31 CA         23.7730   63.1155   25.0745 C.3       3 GLC5        0.0000 
     32 CA         22.8490   61.6900   23.6640 C.3       9 GLL5        0.0000 
     33 CA         24.6970   64.5410   26.4850 C.3       6 GLP5        0.0000 
     34 CA         22.4025   60.4380   22.0430 C.3       3 GLC5        0.0000 
     35 CA         21.9560   59.1860   20.4220 C.3       6 GLP5        0.0000 
     36 CA         22.8720   63.6355   22.8450 C.3       3 GLC5        0.0000 
     37 CA         22.8950   65.5810   22.0260 C.3       6 GLP5        0.0000 
     38 O          24.5665   62.7050   22.3415 O.2       1 ALC1        0.0000 
     39 O          24.1100   61.7960   23.4200 O.2       7 ALL1        0.0000 
     40 O          25.0230   63.6140   21.2630 O.2       4 ALP1        0.0000 
     41 N          22.2095   62.9970   21.6100 N.am      2 SEC2        0.0000 
     42 N          21.9160   62.2150   22.7980 N.am      8 SEL2        0.0000 
     43 N          22.5030   63.7790   20.4220 N.am      5 SEP2        0.0000 
     44 CA         20.1715   63.5370   24.0525 C.3       3 GLC5        0.0000 
     45 CA         20.5750   62.1410   23.0220 C.3       9 GLL5        0.0000 
     46 CA         19.7680   64.9330   25.0830 C.3       6 GLP5        0.0000 
     47 CA         19.4110   63.2360   22.1885 C.3       3 GLC5        0.0000 
     48 CA         18.2470   64.3310   21.3550 C.3       6 GLP5        0.0000 
     49 CA         21.0975   62.0700   21.0450 C.3       3 GLC5        0.0000 
     50 CA         21.6200   61.9990   19.0680 C.3       6 GLP5        0.0000 
     51 CA         21.7350   63.8610   22.5240 C.3       3 GLC5        0.0000 
     52 CA         20.0070   62.5130   25.7535 C.3       3 GLC5        0.0000 
     53 CA         20.8980   61.0150   24.9880 C.3       9 GLL5        0.0000 
     54 N          20.3400   66.0315   35.6210 N.am      2 SEC2        0.0000 
     55 N          21.0120   65.5440   37.1550 N.am      8 SEL2        0.0000 
     56 N          19.6680   66.5190   34.0870 N.am      5 SEP2        0.0000 
     57 N          22.3335   67.1025   35.2775 N.am      2 SEC2        0.0000 
     58 N          21.2970   67.5420   36.2240 N.am      8 SEL2        0.0000 
     59 N          23.3700   66.6630   34.3310 N.am      5 SEP2        0.0000 
     60 N          20.4825   67.0305   35.1555 N.am      2 SEC2        0.0000 
     61 N          21.1050   69.1235   35.8995 N.am      2 SEC2        0.0000 
     62 N          20.9130   70.7050   35.5750 N.am      5 SEP2        0.0000 
     63 O          21.6930   68.8070   38.7135 O.2       1 ALC1        0.0000 
     64 O          21.3980   67.4950   38.4740 O.2       7 ALL1        0.0000 
     65 O          21.9880   70.1190   38.9530 O.2       4 ALP1        0.0000 
     66 N          22.8395   66.7120   40.8100 N.am      2 SEC2        0.0000 
     67 N          21.4990   67.4050   40.7130 N.am      8 SEL2        0.0000 
     68 N          24.1800   66.0190   40.9070 N.am      5 SEP2        0.0000 
     69 N          21.8420   68.6985   41.1570 N.am      2 SEC2        0.0000 
     70 N          22.1850   69.9920   41.6010 N.am      5 SEP2        0.0000 
     71 CA         21.1735   62.4865   43.7800 C.3       3 GLC5        0.0000 
     72 CA         20.5150   62.4360   41.8250 C.3       9 GLL5        0.0000 
     73 CA         21.8320   62.5370   45.7350 C.3       6 GLP5        0.0000 
     74 CA         18.8150   61.6420   44.1715 C.3       3 GLC5        0.0000 
     75 CA         20.0040   60.3050   43.0760 C.3       9 GLL5        0.0000 
     76 CA         17.6260   62.9790   45.2670 C.3       6 GLP5        0.0000 
     77 CA         20.9180   61.4210   44.4055 C.3       3 GLC5        0.0000 
     78 CA         19.0835   58.9105   44.0845 C.3       3 GLC5        0.0000 
     79 CA         18.1630   57.5160   45.0930 C.3       6 GLP5        0.0000 
     80 CA         22.1980   59.8240   40.5175 C.3       3 GLC5        0.0000 
     81 CA         20.0880   60.4090   40.4650 C.3       9 GLL5        0.0000 
     82 CA         24.3080   59.2390   40.5700 C.3       6 GLP5        0.0000 
     83 CA         19.3230   57.1730   39.2920 C.3       3 GLC5        0.0000 
     84 CA         19.7710   58.9510   40.2820 C.3       9 GLL5        0.0000 
     85 CA         18.8750   55.3950   38.3020 C.3       6 GLP5        0.0000 
     86 CA         20.6245   57.3115   41.3170 C.3       3 GLC5        0.0000 
     87 CA         21.4780   55.6720   42.3520 C.3       6 GLP5        0.0000 
     88 CA         19.0230   63.3500   37.7750 C.3       3 GLC5        0.0000 
     89 CA         20.4820   62.9020   36.7620 C.3       9 GLL5        0.0000 
     90 CA         17.5640   63.7980   38.7880 C.3       6 GLP5        0.0000 
     91 CA         22.7055   60.2740   36.2470 C.3       3 GLC5        0.0000 
     92 CA         21.6840   62.1430   36.0520 C.3       9 GLL5        0.0000 
     93 CA         23.7270   58.4050   36.4420 C.3       6 GLP5        0.0000 
     94 O          23.0825   60.5105   36.3015 O.2       1 ALC1        0.0000 
     95 O          22.4090   61.4820   37.0350 O.2       7 ALL1        0.0000 
     96 O          23.7560   59.5390   35.5680 O.2       4 ALP1        0.0000 
     97 CA         23.5800   64.6210   36.6185 C.3       3 GLC5        0.0000 
     98 CA         22.5840   63.2420   35.4650 C.3       9 GLL5        0.0000 
     99 CA         24.5760   66.0000   37.7720 C.3       6 GLP5        0.0000 
    100 CA         25.1785   64.2060   34.7190 C.3       3 GLC5        0.0000 
    101 CA         23.4550   62.8670   34.2930 C.3       9 GLL5        0.0000 
    102 CA         26.9020   65.5450   35.1450 C.3       6 GLP5        0.0000 
    103 N          23.7875   65.2840   34.0015 N.am      2 SEC2        0.0000 
    104 N          24.2050   63.9050   33.6720 N.am      8 SEL2        0.0000 
    105 O          25.1610   63.9260   32.2425 O.2       1 ALC1        0.0000 
    106 O          24.2050   63.9050   33.6720 O.2       7 ALL1        0.0000 
    107 O          26.1170   63.9470   30.8130 O.2       4 ALP1        0.0000 
    108 CA         21.0560   60.8830   33.7935 C.3       3 GLC5        0.0000 
    109 CA         22.9680   61.7090   33.4750 C.3       9 GLL5        0.0000 
    110 CA         22.9520   62.0880   31.3015 C.3       3 GLC5        0.0000 
    111 N          25.5400   58.5420   30.7630 N.am      2 SEC2        0.0000 
    112 N          25.2010   60.0000   30.8930 N.am      8 SEL2        0.0000 
    113 N          25.8790   57.0840   30.6330 N.am      5 SEP2        0.0000 
    114 N          26.3275   60.8040   31.2005 N.am      2 SEC2        0.0000 
    115 N          27.4540   61.6080   31.5080 N.am      5 SEP2        0.0000 
    116 N          25.7450   60.6905   29.8550 N.am      2 SEC2        0.0000 
    117 N          26.2890   61.3810   28.8170 N.am      5 SEP2        0.0000 
    118 N          23.5555   58.0125   33.7680 N.am      2 SEC2        0.0000 
    119 N          24.0950   59.1390   32.9700 N.am      8 SEL2        0.0000 
    120 N          23.0160   56.8860   34.5660 N.am      5 SEP2        0.0000 
    121 N          23.9255   59.3390   34.2690 N.am      2 SEC2        0.0000 
    122 N          23.7560   59.5390   35.5680 N.am      5 SEP2        0.0000 
    123 CA         18.5315   61.8953   30.4160 C.3       3 GLC5        0.0000 
    124 CA         17.7920   63.6890   31.1480 C.3       6 GLP5        0.0000 
    125 CA         21.0085   59.2780   24.0865 C.3       3 GLC5        0.0000 
    126 CA         23.5483   59.8822   23.6990 C.3       3 GLC5        0.0000 
    127 CA         22.3080   61.0290   24.8700 C.3       9 GLL5        0.0000 
    128 CA         24.5180   58.4050   23.1310 C.3       6 GLP5        0.0000 
    129 CA         22.3588   63.1358   40.5391 C.3       3 GLC5        0.0000 
    130 CA         20.6890   63.2000   40.6460 C.3       9 GLL5        0.0000 
    131 CA         24.1460   63.5940   40.7800 C.3       6 GLP5        0.0000 
    132 CA         20.1135   61.2897   35.2595 C.3       3 GLC5        0.0000 
    133 CA         25.0562   62.0180   34.3545 C.3       3 GLC5        0.0000 
    134 CA         26.9010   61.7480   34.8250 C.3       6 GLP5        0.0000 
    135 CA         22.9588   63.8670   32.6885 C.3       3 GLC5        0.0000 
    136 CA         22.7060   65.4460   31.4930 C.3       6 GLP5        0.0000 
@<TRIPOS>BOND
@<TRIPOS>SUBSTRUCTURE
     1 ALC1       25 GROUP        1 X    ALC  0     ROOT ALC X 1
     2 SEC2        1 GROUP        1 X    SEC  0     **** SEC X 2
     3 GLC5       11 GROUP        1 X    GLC  0     **** GLC X 6
     4 ALP1       27 GROUP        1 Y    ALP  0     ROOT ALP Y 8
     5 SEP2        3 GROUP        1 Y    SEP  0     **** SEP Y 9
     6 GLP5       13 GROUP        1 Y    GLP  0     **** GLP Y 13
     7 ALL1       26 GROUP        1 Z    ALL  0     ROOT ALL Z 15
     8 SEL2        2 GROUP        1 Z    SEL  0     **** SEL Z 16
     9 GLL5       12 GROUP        1 Z    GLL  0     **** GLL Z 20
@<TRIPOS>SET

