#    Name: 1sb3_FAD_1_ligand
#    Modification time : Tue Mar 25 02:11:26 2014

@<TRIPOS>MOLECULE
1sb3_FAD_1_ligand
   84    89     1     0     0
SMALL
NO_CHARGES


@<TRIPOS>ATOM
      1 PA         21.7730   58.5460   30.9310 P.3       1 FAD1900     0.0000 
      2 O1A        22.5490   57.4990   30.2300 O.co2     1 FAD1900     0.0000 
      3 O2A        21.1630   58.2630   32.1210 O.co2     1 FAD1900     0.0000 
      4 O5B        20.7700   59.0730   29.9050 O.3       1 FAD1900     0.0000 
      5 C5B        19.7150   59.9540   30.2870 C.3       1 FAD1900     0.0000 
      6 C4B        18.8270   60.2490   29.0810 C.3       1 FAD1900     0.0000 
      7 O4B        19.5360   60.9340   28.0200 O.3       1 FAD1900     0.0000 
      8 C3B        18.0720   59.0690   28.4530 C.3       1 FAD1900     0.0000 
      9 O3B        16.7380   59.3620   28.2140 O.3       1 FAD1900     0.0000 
     10 C2B        18.9450   58.7800   27.2250 C.3       1 FAD1900     0.0000 
     11 O2B        18.2830   58.0770   26.2090 O.3       1 FAD1900     0.0000 
     12 C1B        19.3460   60.1550   26.7700 C.3       1 FAD1900     0.0000 
     13 N9A        20.6700   60.3650   26.1920 N.pl3     1 FAD1900     0.0000 
     14 C8A        21.9010   60.0210   26.7110 C.2       1 FAD1900     0.0000 
     15 N7A        22.9020   60.4130   25.9330 N.2       1 FAD1900     0.0000 
     16 C5A        22.3080   61.0290   24.8700 C.ar      1 FAD1900     0.0000 
     17 C6A        22.8490   61.6900   23.6640 C.ar      1 FAD1900     0.0000 
     18 N6A        24.1100   61.7960   23.4200 N.pl3     1 FAD1900     0.0000 
     19 N1A        21.9160   62.2150   22.7980 N.ar      1 FAD1900     0.0000 
     20 C2A        20.5750   62.1410   23.0220 C.ar      1 FAD1900     0.0000 
     21 N3A        20.0000   61.5560   24.0950 N.ar      1 FAD1900     0.0000 
     22 C4A        20.8980   61.0150   24.9880 C.ar      1 FAD1900     0.0000 
     23 N1         21.0120   65.5440   37.1550 N.2       1 FAD1900     0.0000 
     24 C2         21.2300   66.8530   37.2060 C.2       1 FAD1900     0.0000 
     25 O2         21.2970   67.5420   36.2240 O.2       1 FAD1900     0.0000 
     26 N3         21.3980   67.4950   38.4740 N.am      1 FAD1900     0.0000 
     27 C4         21.3390   66.7900   39.6760 C.2       1 FAD1900     0.0000 
     28 O4         21.4990   67.4050   40.7130 O.2       1 FAD1900     0.0000 
     29 C4X        21.0760   65.3450   39.6270 C.2       1 FAD1900     0.0000 
     30 N5         20.9570   64.5680   40.7800 N.2       1 FAD1900     0.0000 
     31 C5X        20.6890   63.2000   40.6460 C.ar      1 FAD1900     0.0000 
     32 C6         20.5150   62.4360   41.8250 C.ar      1 FAD1900     0.0000 
     33 C7         20.2070   61.0760   41.7720 C.ar      1 FAD1900     0.0000 
     34 C7M        20.0040   60.3050   43.0760 C.3       1 FAD1900     0.0000 
     35 C8         20.0880   60.4090   40.4650 C.ar      1 FAD1900     0.0000 
     36 C8M        19.7710   58.9510   40.2820 C.3       1 FAD1900     0.0000 
     37 C9         20.2610   61.1730   39.2910 C.ar      1 FAD1900     0.0000 
     38 C9A        20.5410   62.5370   39.3610 C.ar      1 FAD1900     0.0000 
     39 N10        20.6680   63.3950   38.1910 N.pl3     1 FAD1900     0.0000 
     40 C10        20.9260   64.7550   38.3020 C.2       1 FAD1900     0.0000 
     41 C1'        20.4820   62.9020   36.7620 C.3       1 FAD1900     0.0000 
     42 C2'        21.6840   62.1430   36.0520 C.3       1 FAD1900     0.0000 
     43 O2'        22.4090   61.4820   37.0350 O.3       1 FAD1900     0.0000 
     44 C3'        22.5840   63.2420   35.4650 C.3       1 FAD1900     0.0000 
     45 O3'        21.6740   64.1870   34.8290 O.3       1 FAD1900     0.0000 
     46 C4'        23.4550   62.8670   34.2930 C.3       1 FAD1900     0.0000 
     47 O4'        24.2050   63.9050   33.6720 O.3       1 FAD1900     0.0000 
     48 C5'        22.9680   61.7090   33.4750 C.3       1 FAD1900     0.0000 
     49 O5'        23.9610   61.5130   32.2830 O.3       1 FAD1900     0.0000 
     50 P          24.0410   60.0310   31.8820 P.3       1 FAD1900     0.0000 
     51 O1P        25.2010   60.0000   30.8930 O.co2     1 FAD1900     0.0000 
     52 O2P        24.0950   59.1390   32.9700 O.co2     1 FAD1900     0.0000 
     53 O3P        22.8190   59.7530   31.0850 O.3       1 FAD1900     0.0000 
     54 H          20.0989   60.9103   30.6617 H         1 FAD1900     0.0000 
     55 H          19.0828   59.5169   31.0690 H         1 FAD1900     0.0000 
     56 H          18.0200   60.9618   29.4378 H         1 FAD1900     0.0000 
     57 H          18.2310   58.2333   29.1399 H         1 FAD1900     0.0000 
     58 H          19.8372   58.2894   27.5833 H         1 FAD1900     0.0000 
     59 H          18.5930   60.6320   26.2152 H         1 FAD1900     0.0000 
     60 H          21.9969   59.5369   27.5685 H         1 FAD1900     0.0000 
     61 H          24.3553   62.2130   22.5448 H         1 FAD1900     0.0000 
     62 H          24.7258   61.4514   24.1286 H         1 FAD1900     0.0000 
     63 H          19.9286   62.5830   22.2865 H         1 FAD1900     0.0000 
     64 H          21.5683   68.5171   38.4831 H         1 FAD1900     0.0000 
     65 H          20.6202   62.9036   42.7406 H         1 FAD1900     0.0000 
     66 H          20.1779   60.7101   38.3745 H         1 FAD1900     0.0000 
     67 H          20.2100   63.7651   36.1041 H         1 FAD1900     0.0000 
     68 H          19.5963   62.2199   36.7170 H         1 FAD1900     0.0000 
     69 H          21.2990   61.5564   35.2958 H         1 FAD1900     0.0000 
     70 H          23.1330   63.7286   36.2061 H         1 FAD1900     0.0000 
     71 H          24.3734   62.2695   34.9398 H         1 FAD1900     0.0000 
     72 H          21.9922   61.9111   33.0695 H         1 FAD1900     0.0000 
     73 H          22.9610   60.8051   34.0584 H         1 FAD1900     0.0000 
     74 H          20.8225   60.3244   43.6502 H         1 FAD1900     0.0000 
     75 H          19.2556   60.6851   43.6195 H         1 FAD1900     0.0000 
     76 H          19.7859   59.3435   42.9089 H         1 FAD1900     0.0000 
     77 H          19.7380   58.6966   39.3155 H         1 FAD1900     0.0000 
     78 H          20.4550   58.3649   40.7162 H         1 FAD1900     0.0000 
     79 H          18.8850   58.7109   40.6787 H         1 FAD1900     0.0000 
     80 H          16.5078   58.8586   27.3812 H         1 FAD1900     0.0000 
     81 H          18.5064   57.1159   26.3715 H         1 FAD1900     0.0000 
     82 H          22.9390   60.7903   36.5445 H         1 FAD1900     0.0000 
     83 H          21.3452   64.7696   35.5723 H         1 FAD1900     0.0000 
     84 H          24.1927   63.6850   32.6966 H         1 FAD1900     0.0000 
@<TRIPOS>BOND
     1    2    1 ar   
     2    3    1 ar   
     3    4    1 1    
     4   53    1 1    
     5    5    4 1    
     6    6    5 1    
     7   54    5 1    
     8   55    5 1    
     9    7    6 1    
    10    8    6 1    
    11   56    6 1    
    12   12    7 1    
    13    9    8 1    
    14   10    8 1    
    15   57    8 1    
    16   80    9 1    
    17   11   10 1    
    18   12   10 1    
    19   58   10 1    
    20   81   11 1    
    21   13   12 1    
    22   59   12 1    
    23   14   13 1    
    24   22   13 1    
    25   15   14 2    
    26   60   14 1    
    27   16   15 1    
    28   17   16 ar   
    29   22   16 ar   
    30   18   17 1    
    31   19   17 ar   
    32   61   18 1    
    33   62   18 1    
    34   20   19 ar   
    35   21   20 ar   
    36   63   20 1    
    37   22   21 ar   
    38   24   23 1    
    39   40   23 2    
    40   25   24 2    
    41   26   24 am   
    42   27   26 am   
    43   64   26 1    
    44   28   27 2    
    45   29   27 1    
    46   30   29 2    
    47   40   29 1    
    48   31   30 1    
    49   32   31 ar   
    50   38   31 ar   
    51   33   32 ar   
    52   65   32 1    
    53   34   33 1    
    54   35   33 ar   
    55   74   34 1    
    56   75   34 1    
    57   76   34 1    
    58   36   35 1    
    59   37   35 ar   
    60   77   36 1    
    61   78   36 1    
    62   79   36 1    
    63   38   37 ar   
    64   66   37 1    
    65   39   38 1    
    66   40   39 1    
    67   41   39 1    
    68   42   41 1    
    69   67   41 1    
    70   68   41 1    
    71   43   42 1    
    72   44   42 1    
    73   69   42 1    
    74   82   43 1    
    75   45   44 1    
    76   46   44 1    
    77   70   44 1    
    78   83   45 1    
    79   47   46 1    
    80   48   46 1    
    81   71   46 1    
    82   84   47 1    
    83   49   48 1    
    84   72   48 1    
    85   73   48 1    
    86   50   49 1    
    87   51   50 ar   
    88   52   50 ar   
    89   53   50 1    
@<TRIPOS>SUBSTRUCTURE
     1 FAD1900     1 GROUP   
@<TRIPOS>SET

