#    Name: 2yay_DUP_1_INTS_M
#    Modification time : Tue Mar 25 08:36:25 2014

@<TRIPOS>MOLECULE
2yay_DUP_1_INTS_M
   52     0    12     0     0
SMALL
NO_CHARGES


@<TRIPOS>ATOM
      1 O          -5.9920   28.7275   -1.4670 O.2       1 ALC1        0.0000 
      2 O          -7.0560   29.1280   -2.2860 O.2       9 ALL1        0.0000 
      3 O          -4.9280   28.3270   -0.6480 O.2       5 ALP1        0.0000 
      4 N          -7.1625   30.2050    0.2080 N.am      2 SEC2        0.0000 
      5 N          -8.2680   30.0760   -0.6660 N.am     10 SEL2        0.0000 
      6 N          -6.0570   30.3340    1.0820 N.am      6 SEP2        0.0000 
      7 CA        -12.2550   34.5445   -1.5980 C.3       4 GLC5        0.0000 
      8 CA        -11.6010   32.6620   -1.8040 C.3      12 GLL5        0.0000 
      9 CA        -12.9090   36.4270   -1.3920 C.3       8 GLP5        0.0000 
     10 CA        -10.5425   33.6600   -3.0915 C.3       4 GLC5        0.0000 
     11 CA         -9.4840   34.6580   -4.3790 C.3       8 GLP5        0.0000 
     12 N         -12.3510   31.4720    0.1320 N.am      2 SEC2        0.0000 
     13 N         -12.2980   32.8540   -0.5440 N.am     10 SEL2        0.0000 
     14 N         -12.4040   30.0900    0.8080 N.am      6 SEP2        0.0000 
     15 O         -13.2480   33.7790   -0.4475 O.2       1 ALC1        0.0000 
     16 O         -12.2980   32.8540   -0.5440 O.2       9 ALL1        0.0000 
     17 O         -14.1980   34.7040   -0.3510 O.2       5 ALP1        0.0000 
     18 N         -15.6640   29.7925   -6.7640 N.am      2 SEC2        0.0000 
     19 N         -14.4520   30.5530   -6.9150 N.am     10 SEL2        0.0000 
     20 N         -16.8760   29.0320   -6.6130 N.am      6 SEP2        0.0000 
     21 N         -16.0335   36.0245   -5.5080 N.am      2 SEC2        0.0000 
     22 N         -15.8360   34.7270   -4.8210 N.am     10 SEL2        0.0000 
     23 N         -16.2310   37.3220   -6.1950 N.am      6 SEP2        0.0000 
     24 NZ        -16.5515   33.0830   -1.9445 N.4       3 LYC4        0.0000 
     25 NZ        -16.6840   32.8670   -3.2470 N.4      11 LYL4        0.0000 
     26 NZ        -16.4190   33.2990   -0.6420 N.4       7 LYP4        0.0000 
     27 NZ        -17.7105   31.7165   -3.0180 N.4       3 LYC4        0.0000 
     28 NZ        -17.7800   29.6500   -2.8130 N.4       7 LYP4        0.0000 
     29 N         -16.5515   33.0830   -1.9445 N.am      2 SEC2        0.0000 
     30 N         -16.6840   32.8670   -3.2470 N.am     10 SEL2        0.0000 
     31 N         -16.4190   33.2990   -0.6420 N.am      6 SEP2        0.0000 
     32 N         -16.5990   31.4485   -3.1180 N.am      2 SEC2        0.0000 
     33 N         -16.5140   30.0300   -2.9890 N.am      6 SEP2        0.0000 
     34 N         -17.7105   31.7165   -3.0180 N.am      2 SEC2        0.0000 
     35 N         -18.7370   30.5660   -2.7890 N.am      6 SEP2        0.0000 
     36 NZ        -20.3765   33.5340   -6.0405 N.4       3 LYC4        0.0000 
     37 NZ        -19.2700   34.7670   -7.0640 N.4      11 LYL4        0.0000 
     38 NZ        -21.4830   32.3010   -5.0170 N.4       7 LYP4        0.0000 
     39 CA         -8.3795   27.5515   -3.7382 C.3       4 GLC5        0.0000 
     40 CA         -9.1340   29.6000   -4.0120 C.3      12 GLL5        0.0000 
     41 CA         -8.1980   25.7890   -3.2200 C.3       8 GLP5        0.0000 
     42 CA         -8.2155   31.1270   -4.4137 C.3       4 GLC5        0.0000 
     43 CA         -7.9880   29.0280   -4.5010 C.3      12 GLL5        0.0000 
     44 CA         -7.8700   32.9400   -4.5710 C.3       8 GLP5        0.0000 
     45 CA         -9.7497   32.3425   -3.3535 C.3       4 GLC5        0.0000 
     46 CA        -10.4170   30.6040   -2.2050 C.3      12 GLL5        0.0000 
     47 CA         -9.1550   33.3950   -4.7860 C.3       8 GLP5        0.0000 
     48 CA         -9.7442   32.9085   -0.3753 C.3       4 GLC5        0.0000 
     49 CA        -10.2720   31.9760   -1.6370 C.3      12 GLL5        0.0000 
     50 CA         -8.5520   33.4980    0.9700 C.3       8 GLP5        0.0000 
     51 CA        -10.9102   32.7185   -4.0480 C.3       4 GLC5        0.0000 
     52 CA        -12.3400   31.7200   -2.7070 C.3      12 GLL5        0.0000 
@<TRIPOS>BOND
@<TRIPOS>SUBSTRUCTURE
     1 ALC1        1 GROUP        1 X    ALC  0     ROOT ALC X 1
     2 SEC2        4 GROUP        1 X    SEC  0     **** SEC X 2
     3 LYC4       24 GROUP        1 X    LYC  0     **** LYC X 4
     4 GLC5        7 GROUP        1 X    GLC  0     **** GLC X 6
     5 ALP1        3 GROUP        1 Y    ALP  0     ROOT ALP Y 8
     6 SEP2        6 GROUP        1 Y    SEP  0     **** SEP Y 9
     7 LYP4       26 GROUP        1 Y    LYP  0     **** LYP Y 11
     8 GLP5        9 GROUP        1 Y    GLP  0     **** GLP Y 13
     9 ALL1        2 GROUP        1 Z    ALL  0     ROOT ALL Z 15
    10 SEL2        5 GROUP        1 Z    SEL  0     **** SEL Z 16
    11 LYL4       25 GROUP        1 Z    LYL  0     **** LYL Z 18
    12 GLL5        8 GROUP        1 Z    GLL  0     **** GLL Z 20
@<TRIPOS>SET

