#    Name: 2yay_DUP_1_ligand
#    Modification time : Tue Mar 25 08:36:25 2014

@<TRIPOS>MOLECULE
2yay_DUP_1_ligand
   39    40     1     0     0
SMALL
NO_CHARGES


@<TRIPOS>ATOM
      1 O4         -5.8790   28.1630   -4.0830 O.2       1 DUP1265     0.0000 
      2 C4         -6.9370   28.7960   -3.5900 C.2       1 DUP1265     0.0000 
      3 C5         -7.9880   29.0280   -4.5010 C.2       1 DUP1265     0.0000 
      4 C6         -9.1340   29.6000   -4.0120 C.2       1 DUP1265     0.0000 
      5 N3         -7.0560   29.1280   -2.2860 N.am      1 DUP1265     0.0000 
      6 C2         -8.1760   29.7010   -1.8490 C.2       1 DUP1265     0.0000 
      7 O2         -8.2680   30.0760   -0.6660 O.2       1 DUP1265     0.0000 
      8 N1         -9.2000   29.9760   -2.7150 N.am      1 DUP1265     0.0000 
      9 C1'       -10.4170   30.6040   -2.2050 C.3       1 DUP1265     0.0000 
     10 C2'       -10.2720   31.9760   -1.6370 C.3       1 DUP1265     0.0000 
     11 C3'       -11.6010   32.6620   -1.8040 C.3       1 DUP1265     0.0000 
     12 O3'       -12.2980   32.8540   -0.5440 O.3       1 DUP1265     0.0000 
     13 O4'       -11.4380   30.7800   -3.2210 O.3       1 DUP1265     0.0000 
     14 C4'       -12.3400   31.7200   -2.7070 C.3       1 DUP1265     0.0000 
     15 C5'       -12.9910   32.3640   -3.9130 C.3       1 DUP1265     0.0000 
     16 O5'       -13.5650   31.3400   -4.7380 O.3       1 DUP1265     0.0000 
     17 PA        -14.4530   31.7580   -6.0610 P.3       1 DUP1265     0.0000 
     18 O1A       -14.4520   30.5530   -6.9150 O.co2     1 DUP1265     0.0000 
     19 O2A       -13.8830   33.0630   -6.5690 O.co2     1 DUP1265     0.0000 
     20 N3A       -16.0440   32.0980   -5.6570 N.4       1 DUP1265     0.0000 
     21 PB        -16.5870   33.3430   -4.6940 P.3       1 DUP1265     0.0000 
     22 O1B       -15.8360   34.7270   -4.8210 O.co2     1 DUP1265     0.0000 
     23 O2B       -16.6840   32.8670   -3.2470 O.co2     1 DUP1265     0.0000 
     24 O3B       -18.0240   33.5690   -5.4180 O.3       1 DUP1265     0.0000 
     25 PG        -18.0470   33.8930   -7.0420 P.3       1 DUP1265     0.0000 
     26 O2G       -18.1110   32.5770   -7.8260 O.co2     1 DUP1265     0.0000 
     27 O1G       -16.7590   34.6080   -7.5350 O.co2     1 DUP1265     0.0000 
     28 O3G       -19.2700   34.7670   -7.0640 O.co2     1 DUP1265     0.0000 
     29 H          -7.8824   28.7756   -5.4741 H         1 DUP1265     0.0000 
     30 H          -9.9451   29.7405   -4.6435 H         1 DUP1265     0.0000 
     31 H          -6.2684   28.9326   -1.6304 H         1 DUP1265     0.0000 
     32 H         -10.8633   29.9786   -1.4063 H         1 DUP1265     0.0000 
     33 H          -9.5123   32.5223   -2.1747 H         1 DUP1265     0.0000 
     34 H         -10.0228   31.9196   -0.5885 H         1 DUP1265     0.0000 
     35 H         -11.4433   33.5769   -2.3328 H         1 DUP1265     0.0000 
     36 H         -13.1165   31.2136   -2.1383 H         1 DUP1265     0.0000 
     37 H         -12.2274   32.9317   -4.4524 H         1 DUP1265     0.0000 
     38 H         -13.7514   33.0656   -3.5583 H         1 DUP1265     0.0000 
     39 H         -12.9407   33.6008   -0.7151 H         1 DUP1265     0.0000 
@<TRIPOS>BOND
     1    2    1 2    
     2    3    2 1    
     3    5    2 1    
     4    4    3 2    
     5   29    3 1    
     6    8    4 1    
     7   30    4 1    
     8    6    5 1    
     9   31    5 1    
    10    7    6 2    
    11    8    6 1    
    12    9    8 1    
    13   10    9 1    
    14   13    9 1    
    15   32    9 1    
    16   11   10 1    
    17   33   10 1    
    18   34   10 1    
    19   12   11 1    
    20   14   11 1    
    21   35   11 1    
    22   39   12 1    
    23   14   13 1    
    24   15   14 1    
    25   36   14 1    
    26   16   15 1    
    27   37   15 1    
    28   38   15 1    
    29   17   16 1    
    30   18   17 ar   
    31   19   17 ar   
    32   20   17 1    
    33   21   20 1    
    34   22   21 ar   
    35   23   21 ar   
    36   24   21 1    
    37   25   24 1    
    38   26   25 ar   
    39   27   25 ar   
    40   28   25 ar   
@<TRIPOS>SUBSTRUCTURE
     1 DUP1265     1 GROUP   
@<TRIPOS>SET

