#    Name: 3wb0_FEG_3_INTS_M
#    Modification time : Tue Mar 25 02:27:17 2014

@<TRIPOS>MOLECULE
3wb0_FEG_3_INTS_M
   84     0    12     0     0
SMALL
NO_CHARGES


@<TRIPOS>ATOM
      1 N          23.5725   14.1265   23.7540 N.am      2 SEC2        0.0000 
      2 N          23.3900   13.7050   25.0340 N.am     10 SEL2        0.0000 
      3 N          23.7550   14.5480   22.4740 N.am      6 SEP2        0.0000 
      4 CA         22.9160   11.9820   24.2310 C.3       4 GLC5        0.0000 
      5 CA         23.9970   12.5990   25.5520 C.3      12 GLL5        0.0000 
      6 CA         21.8350   11.3650   22.9100 C.3       8 GLP5        0.0000 
      7 N          24.3540   10.6715   24.2265 N.am      2 SEC2        0.0000 
      8 N          24.8030   11.8930   24.7940 N.am     10 SEL2        0.0000 
      9 N          23.9050    9.4500   23.6590 N.am      6 SEP2        0.0000 
     10 N          26.0935   11.4345   24.4250 N.am      2 SEC2        0.0000 
     11 N          27.3840   10.9760   24.0560 N.am      6 SEP2        0.0000 
     12 N          25.5975   11.9320   23.5165 N.am      2 SEC2        0.0000 
     13 N          26.3920   11.9710   22.2390 N.am      6 SEP2        0.0000 
     14 CA         26.3365   10.6110   26.9445 C.3       4 GLC5        0.0000 
     15 CA         24.4750   10.9260   27.5360 C.3      12 GLL5        0.0000 
     16 CA         28.1980   10.2960   26.3530 C.3       8 GLP5        0.0000 
     17 CA         20.0920   13.3460   28.8445 C.3       4 GLC5        0.0000 
     18 CA         21.2670   14.9340   28.0210 C.3      12 GLL5        0.0000 
     19 CA         18.9170   11.7580   29.6680 C.3       8 GLP5        0.0000 
     20 CA         19.7995   15.9175   27.8225 C.3       4 GLC5        0.0000 
     21 CA         18.3320   16.9010   27.6240 C.3       8 GLP5        0.0000 
     22 CA         21.5405   12.9925   25.4325 C.3       4 GLC5        0.0000 
     23 CA         22.5300   14.4960   25.7520 C.3      12 GLL5        0.0000 
     24 CA         20.5510   11.4890   25.1130 C.3       8 GLP5        0.0000 
     25 CA         21.2300   13.7600   24.3305 C.3       4 GLC5        0.0000 
     26 CA         21.9000   15.6750   25.0380 C.3      12 GLL5        0.0000 
     27 CA         20.5600   11.8450   23.6230 C.3       8 GLP5        0.0000 
     28 CA         20.6105   16.3470   24.0635 C.3       4 GLC5        0.0000 
     29 CA         19.3210   17.0190   23.0890 C.3       8 GLP5        0.0000 
     30 CA         19.8380   15.9215   25.7320 C.3       4 GLC5        0.0000 
     31 CA         17.7760   16.1680   26.4260 C.3       8 GLP5        0.0000 
     32 CA         23.4265   16.0865   23.5140 C.3       4 GLC5        0.0000 
     33 CA         24.9530   16.4980   21.9900 C.3       8 GLP5        0.0000 
     34 N          22.4315   19.2390   24.6870 N.am      2 SEC2        0.0000 
     35 N          21.9200   17.9990   25.2370 N.am     10 SEL2        0.0000 
     36 N          22.9430   20.4790   24.1370 N.am      6 SEP2        0.0000 
     37 N          21.2405   18.7610   26.1445 N.am      2 SEC2        0.0000 
     38 N          20.5610   19.5230   27.0520 N.am      6 SEP2        0.0000 
     39 N          24.5640   18.0695   25.3805 N.am      2 SEC2        0.0000 
     40 N          23.8750   16.9100   25.4350 N.am     10 SEL2        0.0000 
     41 N          25.2530   19.2290   25.3260 N.am      6 SEP2        0.0000 
     42 N          25.0370   16.2295   24.6705 N.am      2 SEC2        0.0000 
     43 N          26.1990   15.5490   23.9060 N.am      6 SEP2        0.0000 
     44 NZ         21.6050   13.3780   32.4860 N.4       3 LYC4        0.0000 
     45 NZ         21.7270   13.8200   31.0960 N.4      11 LYL4        0.0000 
     46 NZ         21.4830   12.9360   33.8760 N.4       7 LYP4        0.0000 
     47 N          21.6050   13.3780   32.4860 N.am      2 SEC2        0.0000 
     48 N          21.7270   13.8200   31.0960 N.am     10 SEL2        0.0000 
     49 N          21.4830   12.9360   33.8760 N.am      6 SEP2        0.0000 
     50 N          21.2885   15.2550   30.9850 N.am      2 SEC2        0.0000 
     51 N          20.8500   16.6900   30.8740 N.am      6 SEP2        0.0000 
     52 NZ         22.4205   12.3650   32.5300 N.4       3 LYC4        0.0000 
     53 NZ         23.3580   11.7940   31.1840 N.4      11 LYL4        0.0000 
     54 CA         28.3970   14.3525   29.0495 C.3       4 GLC5        0.0000 
     55 CA         26.5490   14.4870   30.1290 C.3      12 GLL5        0.0000 
     56 CA         30.2450   14.2180   27.9700 C.3       8 GLP5        0.0000 
     57 CA         26.7920   14.6445   28.0895 C.3       4 GLC5        0.0000 
     58 CA         27.0350   14.8020   26.0500 C.3       8 GLP5        0.0000 
     59 CA         26.8780   15.7555   27.6935 C.3       4 GLC5        0.0000 
     60 CA         26.7210   16.7090   29.3370 C.3      12 GLL5        0.0000 
     61 N          22.0410   17.2395   30.1295 N.am      2 SEC2        0.0000 
     62 N          23.2320   17.7890   29.3850 N.am     10 SEL2        0.0000 
     63 N          20.9230   19.5970   30.0275 N.am      2 SEC2        0.0000 
     64 N          22.1780   20.6570   29.8750 N.am     10 SEL2        0.0000 
     65 N          19.6680   18.5370   30.1800 N.am      6 SEP2        0.0000 
     66 O          24.5415   22.6015   30.4560 O.2       1 ALC1        0.0000 
     67 O          24.3760   21.3000   30.0280 O.2       9 ALL1        0.0000 
     68 O          24.7070   23.9030   30.8840 O.2       5 ALP1        0.0000 
     69 O          25.6855   22.9450   30.5410 O.2       1 ALC1        0.0000 
     70 O          26.6640   21.9870   30.1980 O.2       9 ALL1        0.0000 
     71 CA         25.4645   13.5885   26.1513 C.3       4 GLC5        0.0000 
     72 CA         23.7910   12.1510   26.9530 C.3      12 GLL5        0.0000 
     73 CA         21.9355   12.0233   26.2383 C.3       4 GLC5        0.0000 
     74 CA         20.5587   13.3050   26.7710 C.3       4 GLC5        0.0000 
     75 CA         22.2000   14.1580   27.1650 C.3      12 GLL5        0.0000 
     76 CA         19.3840   12.0640   25.9490 C.3       8 GLP5        0.0000 
     77 CA         25.1322   16.7255   32.0715 C.3       4 GLC5        0.0000 
     78 CA         26.4190   15.4050   31.3100 C.3      12 GLL5        0.0000 
     79 CA         23.4790   17.4340   33.0890 C.3       8 GLP5        0.0000 
     80 CA         24.5597   19.5780   27.7780 C.3       4 GLC5        0.0000 
     81 CA         25.2900   18.7190   29.6120 C.3      12 GLL5        0.0000 
     82 CA         24.5570   20.3120   25.9450 C.3       8 GLP5        0.0000 
     83 CA         24.0207   18.1390   31.3500 C.3       4 GLC5        0.0000 
     84 CA         23.8350   18.9690   29.6100 C.3      12 GLL5        0.0000 
@<TRIPOS>BOND
@<TRIPOS>SUBSTRUCTURE
     1 ALC1       66 GROUP        1 X    ALC  0     ROOT ALC X 1
     2 SEC2        1 GROUP        1 X    SEC  0     **** SEC X 2
     3 LYC4       44 GROUP        1 X    LYC  0     **** LYC X 4
     4 GLC5        4 GROUP        1 X    GLC  0     **** GLC X 6
     5 ALP1       68 GROUP        1 Y    ALP  0     ROOT ALP Y 8
     6 SEP2        3 GROUP        1 Y    SEP  0     **** SEP Y 9
     7 LYP4       46 GROUP        1 Y    LYP  0     **** LYP Y 11
     8 GLP5        6 GROUP        1 Y    GLP  0     **** GLP Y 13
     9 ALL1       67 GROUP        1 Z    ALL  0     ROOT ALL Z 15
    10 SEL2        2 GROUP        1 Z    SEL  0     **** SEL Z 16
    11 LYL4       45 GROUP        1 Z    LYL  0     **** LYL Z 18
    12 GLL5        5 GROUP        1 Z    GLL  0     **** GLL Z 20
@<TRIPOS>SET

