#    Name: 3wb0_FEG_3_ligand
#    Modification time : Tue Mar 25 02:27:17 2014

@<TRIPOS>MOLECULE
3wb0_FEG_3_ligand
   58    61     1     0     0
SMALL
NO_CHARGES


@<TRIPOS>ATOM
      1 N1         23.3900   13.7050   25.0340 N.ar      1 FEG201      0.0000 
      2 C2         23.9970   12.5990   25.5520 C.ar      1 FEG201      0.0000 
      3 O2         24.8030   11.8930   24.7940 O.3       1 FEG201      0.0000 
      4 C3         23.7910   12.1510   26.9530 C.ar      1 FEG201      0.0000 
      5 C3M        24.4750   10.9260   27.5360 C.3       1 FEG201      0.0000 
      6 C4         22.8490   12.9640   27.7740 C.ar      1 FEG201      0.0000 
      7 C5         22.2000   14.1580   27.1650 C.ar      1 FEG201      0.0000 
      8 C5M        21.2670   14.9340   28.0210 C.3       1 FEG201      0.0000 
      9 C6         22.5300   14.4960   25.7520 C.ar      1 FEG201      0.0000 
     10 C7         21.9000   15.6750   25.0380 C.3       1 FEG201      0.0000 
     11 C8         22.6310   16.9500   25.2500 C.2       1 FEG201      0.0000 
     12 O28        21.9200   17.9990   25.2370 O.co2     1 FEG201      0.0000 
     13 O18        23.8750   16.9100   25.4350 O.co2     1 FEG201      0.0000 
     14 O3P        22.5420   12.5610   29.0320 O.3       1 FEG201      0.0000 
     15 P1         22.9190   13.0580   30.4920 P.3       1 FEG201      0.0000 
     16 O1P        21.7270   13.8200   31.0960 O.co2     1 FEG201      0.0000 
     17 O2P        23.3580   11.7940   31.1840 O.co2     1 FEG201      0.0000 
     18 O5S        24.1570   14.0090   30.0770 O.3       1 FEG201      0.0000 
     19 C5S        25.4630   13.3970   30.1240 C.3       1 FEG201      0.0000 
     20 C4S        26.5490   14.4870   30.1290 C.3       1 FEG201      0.0000 
     21 C3S        26.4190   15.4050   31.3100 C.3       1 FEG201      0.0000 
     22 O3S        27.0820   14.8200   32.4320 O.3       1 FEG201      0.0000 
     23 C2S        27.1520   16.6290   30.7980 C.3       1 FEG201      0.0000 
     24 O2S        28.5580   16.3620   30.9600 O.3       1 FEG201      0.0000 
     25 C1S        26.7210   16.7090   29.3370 C.3       1 FEG201      0.0000 
     26 O4S        26.4830   15.3510   29.0000 O.3       1 FEG201      0.0000 
     27 N9A        25.4270   17.4100   29.3690 N.pl3     1 FEG201      0.0000 
     28 C8A        24.2040   16.8590   29.2610 C.2       1 FEG201      0.0000 
     29 N7A        23.2320   17.7890   29.3850 N.2       1 FEG201      0.0000 
     30 C5A        23.8350   18.9690   29.6100 C.2       1 FEG201      0.0000 
     31 C4A        25.2900   18.7190   29.6120 C.2       1 FEG201      0.0000 
     32 C6A        23.4020   20.3660   29.8440 C.2       1 FEG201      0.0000 
     33 O6A        22.1780   20.6570   29.8750 O.2       1 FEG201      0.0000 
     34 N1A        24.3760   21.3000   30.0280 N.am      1 FEG201      0.0000 
     35 C2A        25.7200   21.0090   30.0060 C.2       1 FEG201      0.0000 
     36 N3A        26.1670   19.7450   29.8250 N.2       1 FEG201      0.0000 
     37 N2A        26.6640   21.9870   30.1980 N.pl3     1 FEG201      0.0000 
     38 H          20.8555   15.7800   25.3851 H         1 FEG201      0.0000 
     39 H          21.8505   15.4470   23.9572 H         1 FEG201      0.0000 
     40 H          25.6384   12.7562   29.2557 H         1 FEG201      0.0000 
     41 H          25.5923   12.7939   31.0267 H         1 FEG201      0.0000 
     42 H          27.5209   14.0121   30.1864 H         1 FEG201      0.0000 
     43 H          25.4158   15.6361   31.4575 H         1 FEG201      0.0000 
     44 H          26.8116   17.4657   31.3200 H         1 FEG201      0.0000 
     45 H          27.4266   17.1763   28.7861 H         1 FEG201      0.0000 
     46 H          24.0359   15.9000   29.1107 H         1 FEG201      0.0000 
     47 H          24.0887   22.3059   30.1975 H         1 FEG201      0.0000 
     48 H          27.5528   21.8313   29.7671 H         1 FEG201      0.0000 
     49 H          26.3803   22.7696   30.7520 H         1 FEG201      0.0000 
     50 H          25.4712   11.0076   27.5066 H         1 FEG201      0.0000 
     51 H          24.2211   10.7785   28.4919 H         1 FEG201      0.0000 
     52 H          24.2343   10.0935   27.0370 H         1 FEG201      0.0000 
     53 H          21.7214   15.2907   28.8372 H         1 FEG201      0.0000 
     54 H          20.8811   15.7177   27.5343 H         1 FEG201      0.0000 
     55 H          20.4985   14.3758   28.3337 H         1 FEG201      0.0000 
     56 H          25.4569   11.4789   25.4271 H         1 FEG201      0.0000 
     57 H          26.5672   13.9860   32.6307 H         1 FEG201      0.0000 
     58 H          28.6011   15.5199   31.4976 H         1 FEG201      0.0000 
@<TRIPOS>BOND
     1    2    1 ar   
     2    9    1 ar   
     3    3    2 1    
     4    4    2 ar   
     5   56    3 1    
     6    5    4 1    
     7    6    4 ar   
     8   50    5 1    
     9   51    5 1    
    10   52    5 1    
    11    7    6 ar   
    12   14    6 1    
    13    8    7 1    
    14    9    7 ar   
    15   53    8 1    
    16   54    8 1    
    17   55    8 1    
    18   10    9 1    
    19   11   10 1    
    20   38   10 1    
    21   39   10 1    
    22   12   11 ar   
    23   13   11 ar   
    24   15   14 1    
    25   16   15 ar   
    26   17   15 ar   
    27   18   15 1    
    28   19   18 1    
    29   20   19 1    
    30   40   19 1    
    31   41   19 1    
    32   21   20 1    
    33   26   20 1    
    34   42   20 1    
    35   22   21 1    
    36   23   21 1    
    37   43   21 1    
    38   57   22 1    
    39   24   23 1    
    40   25   23 1    
    41   44   23 1    
    42   58   24 1    
    43   26   25 1    
    44   27   25 1    
    45   45   25 1    
    46   28   27 1    
    47   31   27 1    
    48   29   28 2    
    49   46   28 1    
    50   30   29 1    
    51   31   30 2    
    52   32   30 1    
    53   36   31 1    
    54   33   32 2    
    55   34   32 am   
    56   35   34 1    
    57   47   34 1    
    58   36   35 2    
    59   37   35 1    
    60   48   37 1    
    61   49   37 1    
@<TRIPOS>SUBSTRUCTURE
     1 FEG201      1 GROUP   
@<TRIPOS>SET

