#    Name: 4ftl_H0K_1_INTS_M
#    Modification time : Mon Mar 24 20:45:06 2014

@<TRIPOS>MOLECULE
4ftl_H0K_1_INTS_M
   75     0     9     0     0
SMALL
NO_CHARGES


@<TRIPOS>ATOM
      1 N           6.2620   -3.5420   14.5335 N.am      2 SEC2        0.0000 
      2 N           7.3630   -4.5000   14.8460 N.am      8 SEL2        0.0000 
      3 N           5.1610   -2.5840   14.2210 N.am      5 SEP2        0.0000 
      4 N           7.8180   -4.3095   16.2370 N.am      2 SEC2        0.0000 
      5 N           8.2730   -4.1190   17.6280 N.am      5 SEP2        0.0000 
      6 O           6.9855   -5.7810   14.9255 O.2       1 ALC1        0.0000 
      7 O           7.3630   -4.5000   14.8460 O.2       7 ALL1        0.0000 
      8 O           6.6080   -7.0620   15.0050 O.2       4 ALP1        0.0000 
      9 CA         10.9150   -1.2305   12.3950 C.3       3 GLC5        0.0000 
     10 CA         10.2440   -3.0270   13.2070 C.3       9 GLL5        0.0000 
     11 CA         11.5860    0.5660   11.5830 C.3       6 GLP5        0.0000 
     12 CA         13.1730   -6.7740   11.0335 C.3       3 GLC5        0.0000 
     13 CA         13.2500   -4.9900   12.0050 C.3       9 GLL5        0.0000 
     14 CA         13.0960   -8.5580   10.0620 C.3       6 GLP5        0.0000 
     15 CA         16.3770   -4.4785    7.8890 C.3       3 GLC5        0.0000 
     16 CA         15.8660   -3.4390    9.7830 C.3       9 GLL5        0.0000 
     17 CA         16.8880   -5.5180    5.9950 C.3       6 GLP5        0.0000 
     18 CA         18.0605   -3.8900   12.2130 C.3       3 GLC5        0.0000 
     19 CA         17.8590   -5.1540   10.5460 C.3       9 GLL5        0.0000 
     20 CA         18.2620   -2.6260   13.8800 C.3       6 GLP5        0.0000 
     21 O          14.9075   -1.2265    8.6305 O.2       1 ALC1        0.0000 
     22 O          16.0300   -2.4180    8.9110 O.2       7 ALL1        0.0000 
     23 O          13.7850   -0.0350    8.3500 O.2       4 ALP1        0.0000 
     24 N          17.3165   -0.8555    8.1280 N.am      2 SEC2        0.0000 
     25 N          17.3010   -2.3220    8.4280 N.am      8 SEL2        0.0000 
     26 N          17.3320    0.6110    7.8280 N.am      5 SEP2        0.0000 
     27 CA         20.8030   -5.3080   12.5535 C.3       3 GLC5        0.0000 
     28 CA         20.4370   -5.6030   10.3620 C.3       9 GLL5        0.0000 
     29 CA         21.1690   -5.0130   14.7450 C.3       6 GLP5        0.0000 
     30 CA          8.9017   -4.4962   12.0040 C.3       3 GLC5        0.0000 
     31 CA          9.3660   -5.5270   13.9780 C.3       9 GLL5        0.0000 
     32 CA          8.8330   -4.0240    9.9080 C.3       6 GLP5        0.0000 
     33 CA          9.7688   -4.7942   15.5510 C.3       3 GLC5        0.0000 
     34 CA          8.5750   -4.4100   14.2220 C.3       9 GLL5        0.0000 
     35 CA         10.5670   -4.6200   17.0020 C.3       6 GLP5        0.0000 
     36 CA          9.3205   -6.8513   12.6935 C.3       3 GLC5        0.0000 
     37 CA          8.6680   -8.2460   11.7350 C.3       6 GLP5        0.0000 
     38 CA         10.6847   -4.6915   15.0525 C.3       3 GLC5        0.0000 
     39 CA         11.0250   -4.1400   12.8800 C.3       9 GLL5        0.0000 
     40 CA          8.7760   -2.4530   12.1188 C.3       3 GLC5        0.0000 
     41 CA          7.9150   -1.8140   10.7070 C.3       6 GLP5        0.0000 
     42 CA         10.1020   -3.8560   15.2662 C.3       3 GLC5        0.0000 
     43 CA          9.0300   -3.1570   13.8540 C.3       9 GLL5        0.0000 
     44 CA         12.0913   -2.7157   14.1562 C.3       3 GLC5        0.0000 
     45 CA         13.5480   -1.8480   15.2690 C.3       6 GLP5        0.0000 
     46 CA         10.1866   -4.1995   11.2475 C.3       3 GLC5        0.0000 
     47 CA         12.2780   -3.9870   12.0710 C.3       9 GLL5        0.0000 
     48 CA         12.9580   -2.6400   13.4647 C.3       3 GLC5        0.0000 
     49 CA         15.3715   -2.9640   11.7617 C.3       3 GLC5        0.0000 
     50 CA         14.3750   -4.8530   11.2060 C.3       9 GLL5        0.0000 
     51 CA         16.2720   -1.6480   12.7010 C.3       6 GLP5        0.0000 
     52 CA         12.3023   -1.1195   11.2190 C.3       3 GLC5        0.0000 
     53 CA         13.5790   -2.7330   10.4600 C.3       9 GLL5        0.0000 
     54 CA         11.3238   -2.3460    9.8540 C.3       3 GLC5        0.0000 
     55 CA         12.4580   -2.8770   11.2500 C.3       9 GLL5        0.0000 
     56 CA          9.6290   -1.8870    8.8530 C.3       6 GLP5        0.0000 
     57 CA         14.6452   -2.2265   11.7780 C.3       3 GLC5        0.0000 
     58 CA         14.6837   -5.5113    9.2984 C.3       3 GLC5        0.0000 
     59 CA         14.1990   -7.1630    8.2940 C.3       6 GLP5        0.0000 
     60 CA         14.1933   -3.4373    8.3986 C.3       3 GLC5        0.0000 
     61 CA         13.4170   -3.5450    6.6810 C.3       6 GLP5        0.0000 
     62 CA         16.3742   -2.7012   11.2688 C.3       3 GLC5        0.0000 
     63 CA         17.7100   -5.9480    8.8120 C.3       3 GLC5        0.0000 
     64 CA         17.0870   -4.0700    9.8900 C.3       9 GLL5        0.0000 
     65 CA         17.9470   -7.2840    7.4060 C.3       6 GLP5        0.0000 
     66 CA         21.2222   -2.7840   10.0083 C.3       3 GLC5        0.0000 
     67 CA         20.4800   -3.5620    8.4860 C.3       9 GLL5        0.0000 
     68 CA         22.5610   -1.8420   11.2080 C.3       6 GLP5        0.0000 
     69 CA         18.8978   -6.2743    8.8078 C.3       3 GLC5        0.0000 
     70 CA         19.2600   -4.9260   10.0570 C.3       9 GLL5        0.0000 
     71 CA         21.7948   -3.6372   10.6267 C.3       3 GLC5        0.0000 
     72 CA         20.0624   -4.9185    7.3309 C.3       3 GLC5        0.0000 
     73 CA         21.6580   -4.2480    8.7730 C.3       9 GLL5        0.0000 
     74 CA         19.3540   -5.8500    5.8710 C.3       6 GLP5        0.0000 
     75 CA         22.4280   -2.9617    9.8080 C.3       3 GLC5        0.0000 
@<TRIPOS>BOND
@<TRIPOS>SUBSTRUCTURE
     1 ALC1        6 GROUP        1 X    ALC  0     ROOT ALC X 1
     2 SEC2        1 GROUP        1 X    SEC  0     **** SEC X 2
     3 GLC5        9 GROUP        1 X    GLC  0     **** GLC X 6
     4 ALP1        8 GROUP        1 Y    ALP  0     ROOT ALP Y 8
     5 SEP2        3 GROUP        1 Y    SEP  0     **** SEP Y 9
     6 GLP5       11 GROUP        1 Y    GLP  0     **** GLP Y 13
     7 ALL1        7 GROUP        1 Z    ALL  0     ROOT ALL Z 15
     8 SEL2        2 GROUP        1 Z    SEL  0     **** SEL Z 16
     9 GLL5       10 GROUP        1 Z    GLL  0     **** GLL Z 20
@<TRIPOS>SET

