#    Name: 4ftl_H0K_1_ligand
#    Modification time : Mon Mar 24 20:45:06 2014

@<TRIPOS>MOLECULE
4ftl_H0K_1_ligand
   45    49     1     0     0
SMALL
NO_CHARGES


@<TRIPOS>ATOM
      1 O2          7.3630   -4.5000   14.8460 O.3       1 H0K301      0.0000 
      2 C19         8.5750   -4.4100   14.2220 C.ar      1 H0K301      0.0000 
      3 C18         9.3660   -5.5270   13.9780 C.ar      1 H0K301      0.0000 
      4 C17        10.5800   -5.3860   13.3260 C.ar      1 H0K301      0.0000 
      5 C20         9.0300   -3.1570   13.8540 C.ar      1 H0K301      0.0000 
      6 C21        10.2440   -3.0270   13.2070 C.ar      1 H0K301      0.0000 
      7 C16        11.0250   -4.1400   12.8800 C.ar      1 H0K301      0.0000 
      8 C13        12.2780   -3.9870   12.0710 C.ar      1 H0K301      0.0000 
      9 C12        13.2500   -4.9900   12.0050 C.ar      1 H0K301      0.0000 
     10 C11        14.3750   -4.8530   11.2060 C.ar      1 H0K301      0.0000 
     11 C14        12.4580   -2.8770   11.2500 C.ar      1 H0K301      0.0000 
     12 C15        13.5790   -2.7330   10.4600 C.ar      1 H0K301      0.0000 
     13 C10        14.5670   -3.7070   10.4390 C.ar      1 H0K301      0.0000 
     14 C9         15.8660   -3.4390    9.7830 C.2       1 H0K301      0.0000 
     15 C7         17.0870   -4.0700    9.8900 C.2       1 H0K301      0.0000 
     16 C6         17.8590   -5.1540   10.5460 C.3       1 H0K301      0.0000 
     17 N2         16.0300   -2.4180    8.9110 N.pl3     1 H0K301      0.0000 
     18 N1         17.3010   -2.3220    8.4280 N.2       1 H0K301      0.0000 
     19 C8         17.9610   -3.3210    9.0190 C.2       1 H0K301      0.0000 
     20 C22        19.2870   -3.8900    9.1310 C.ar      1 H0K301      0.0000 
     21 C5         19.2600   -4.9260   10.0570 C.ar      1 H0K301      0.0000 
     22 C4         20.4370   -5.6030   10.3620 C.ar      1 H0K301      0.0000 
     23 C3         21.6200   -5.2620    9.7290 C.ar      1 H0K301      0.0000 
     24 C23        20.4800   -3.5620    8.4860 C.ar      1 H0K301      0.0000 
     25 C2         21.6580   -4.2480    8.7730 C.ar      1 H0K301      0.0000 
     26 C1         22.9320   -3.9150    8.0430 C.3       1 H0K301      0.0000 
     27 O1         23.7070   -5.0620    7.7380 O.3       1 H0K301      0.0000 
     28 H           9.0478   -6.4570   14.2825 H         1 H0K301      0.0000 
     29 H          11.1746   -6.2209   13.1633 H         1 H0K301      0.0000 
     30 H           8.4639   -2.3215   14.0623 H         1 H0K301      0.0000 
     31 H          10.5922   -2.0800   12.9536 H         1 H0K301      0.0000 
     32 H          13.1223   -5.8523   12.5671 H         1 H0K301      0.0000 
     33 H          15.0800   -5.6083   11.1778 H         1 H0K301      0.0000 
     34 H          11.7227   -2.1385   11.2362 H         1 H0K301      0.0000 
     35 H          13.6888   -1.8858    9.8716 H         1 H0K301      0.0000 
     36 H          17.5133   -6.1094   10.2214 H         1 H0K301      0.0000 
     37 H          17.8244   -5.0494   11.6069 H         1 H0K301      0.0000 
     38 H          15.3007   -1.7973    8.6457 H         1 H0K301      0.0000 
     39 H          20.4246   -6.3596   11.0613 H         1 H0K301      0.0000 
     40 H          22.4936   -5.7660    9.9666 H         1 H0K301      0.0000 
     41 H          20.4888   -2.8014    7.7876 H         1 H0K301      0.0000 
     42 H          23.5045   -3.1959    8.6699 H         1 H0K301      0.0000 
     43 H          22.6587   -3.3555    7.1210 H         1 H0K301      0.0000 
     44 H           6.9106   -5.2839   14.4207 H         1 H0K301      0.0000 
     45 H          24.2844   -4.4846    8.3154 H         1 H0K301      0.0000 
@<TRIPOS>BOND
     1    2    1 1    
     2   44    1 1    
     3    3    2 ar   
     4    5    2 ar   
     5    4    3 ar   
     6   28    3 1    
     7    7    4 ar   
     8   29    4 1    
     9    6    5 ar   
    10   30    5 1    
    11    7    6 ar   
    12   31    6 1    
    13    8    7 1    
    14    9    8 ar   
    15   11    8 ar   
    16   10    9 ar   
    17   32    9 1    
    18   13   10 ar   
    19   33   10 1    
    20   12   11 ar   
    21   34   11 1    
    22   13   12 ar   
    23   35   12 1    
    24   14   13 1    
    25   15   14 2    
    26   17   14 1    
    27   16   15 1    
    28   19   15 1    
    29   21   16 1    
    30   36   16 1    
    31   37   16 1    
    32   18   17 1    
    33   38   17 1    
    34   19   18 2    
    35   20   19 1    
    36   21   20 ar   
    37   24   20 ar   
    38   22   21 ar   
    39   23   22 ar   
    40   39   22 1    
    41   25   23 ar   
    42   40   23 1    
    43   25   24 ar   
    44   41   24 1    
    45   26   25 1    
    46   27   26 1    
    47   42   26 1    
    48   43   26 1    
    49   45   27 1    
@<TRIPOS>SUBSTRUCTURE
     1 H0K301      1 GROUP   
@<TRIPOS>SET

