#    Name: 2x0i_NAD_1_INTS_M
#    Modification time : Tue Mar 25 04:56:23 2014

@<TRIPOS>MOLECULE
2x0i_NAD_1_INTS_M
   87     0    12     0     0
SMALL
NO_CHARGES


@<TRIPOS>ATOM
      1 NZ         19.5095   27.5580    3.2035 N.4       3 LYC4        0.0000 
      2 NZ         19.9810   28.1040    4.6910 N.4      11 LYL4        0.0000 
      3 NZ         19.0380   27.0120    1.7160 N.4       7 LYP4        0.0000 
      4 N          21.4100   28.3265    4.8855 N.am      2 SEC2        0.0000 
      5 N          19.9810   28.1040    4.6910 N.am     10 SEL2        0.0000 
      6 N          22.8390   28.5490    5.0800 N.am      6 SEP2        0.0000 
      7 N          17.3030   29.9275   10.9800 N.am      2 SEC2        0.0000 
      8 N          18.5390   28.7850   10.8300 N.am     10 SEL2        0.0000 
      9 N          16.0670   31.0700   11.1300 N.am      6 SEP2        0.0000 
     10 O          21.1765   26.7365   10.9290 O.2       1 ALC1        0.0000 
     11 O          20.4540   26.2870    9.7920 O.2       9 ALL1        0.0000 
     12 O          21.8990   27.1860   12.0660 O.2       5 ALP1        0.0000 
     13 O          19.9000   25.6515   12.6120 O.2       1 ALC1        0.0000 
     14 O          18.9510   25.4540   11.7400 O.2       9 ALL1        0.0000 
     15 O          20.8490   25.8490   13.4840 O.2       5 ALP1        0.0000 
     16 O          20.4250   26.3200   11.9030 O.2       1 ALC1        0.0000 
     17 CA         18.3345   29.9925   11.7825 C.3       4 GLC5        0.0000 
     18 CA         18.5310   27.8030   11.8040 C.3      12 GLL5        0.0000 
     19 CA         18.1380   32.1820   11.7610 C.3       8 GLP5        0.0000 
     20 CA         16.1290   27.1440   15.4235 C.3       4 GLC5        0.0000 
     21 CA         16.3870   28.4680   14.6450 C.3      12 GLL5        0.0000 
     22 CA         15.8710   25.8200   16.2020 C.3       8 GLP5        0.0000 
     23 CA         16.8385   27.4930   16.2095 C.3       4 GLC5        0.0000 
     24 CA         16.3200   28.9350   15.9770 C.3      12 GLL5        0.0000 
     25 CA         17.3570   26.0510   16.4420 C.3       8 GLP5        0.0000 
     26 CA         19.5880   31.2480   15.9505 C.3       4 GLC5        0.0000 
     27 CA         18.6090   29.2860   15.9640 C.3      12 GLL5        0.0000 
     28 CA         20.5670   33.2100   15.9370 C.3       8 GLP5        0.0000 
     29 CA         20.4150   28.3170   15.7740 C.3       4 GLC5        0.0000 
     30 CA         22.2210   27.3480   15.5840 C.3       8 GLP5        0.0000 
     31 CA         17.9830   27.6685   16.2030 C.3       4 GLC5        0.0000 
     32 CA         18.4755   30.6585   14.6145 C.3       4 GLC5        0.0000 
     33 CA         18.3420   32.0310   13.2650 C.3       8 GLP5        0.0000 
     34 CA         17.5005   27.2435   15.2370 C.3       4 GLC5        0.0000 
     35 CA         17.6440   28.4360   14.0320 C.3      12 GLL5        0.0000 
     36 NZ         19.0660   28.5590    2.4175 N.4       3 LYC4        0.0000 
     37 NZ         19.0940   30.1060    3.1190 N.4      11 LYL4        0.0000 
     38 N          21.9095   31.0505    4.6630 N.am      2 SEC2        0.0000 
     39 N          20.5770   30.8330    4.9250 N.am     10 SEL2        0.0000 
     40 N          23.2420   31.2680    4.4010 N.am      6 SEP2        0.0000 
     41 CA         19.5340   33.3540    7.3325 C.3       4 GLC5        0.0000 
     42 CA         18.0840   32.3860    6.0060 C.3      12 GLL5        0.0000 
     43 CA         20.9840   34.3220    8.6590 C.3       8 GLP5        0.0000 
     44 CA         16.4355   35.0730    7.2175 C.3       4 GLC5        0.0000 
     45 CA         17.0200   33.4510    6.1690 C.3      12 GLL5        0.0000 
     46 CA         15.8510   36.6950    8.2660 C.3       8 GLP5        0.0000 
     47 N          14.3570   35.2450    6.3065 N.am      2 SEC2        0.0000 
     48 N          14.6750   33.7640    5.9650 N.am     10 SEL2        0.0000 
     49 N          14.0390   36.7260    6.6480 N.am      6 SEP2        0.0000 
     50 N          14.6170   35.7915    2.9105 N.am      2 SEC2        0.0000 
     51 N          14.9500   34.2920    3.3580 N.am     10 SEL2        0.0000 
     52 N          14.2840   37.2910    2.4630 N.am      6 SEP2        0.0000 
     53 CA         16.2970   35.8945    6.4240 C.3       4 GLC5        0.0000 
     54 CA         16.7430   35.0940    4.5820 C.3      12 GLL5        0.0000 
     55 CA         19.7875   39.2855    2.9560 C.3       4 GLC5        0.0000 
     56 CA         18.0260   38.0210    2.6240 C.3      12 GLL5        0.0000 
     57 CA         21.5490   40.5500    3.2880 C.3       8 GLP5        0.0000 
     58 O          17.1745   39.2805    5.1250 O.2       1 ALC1        0.0000 
     59 O          17.4070   40.1150    3.9270 O.2       9 ALL1        0.0000 
     60 O          16.9420   38.4460    6.3230 O.2       5 ALP1        0.0000 
     61 O          17.9825   41.4060    4.3495 O.2       1 ALC1        0.0000 
     62 O          18.5580   42.6970    4.7720 O.2       5 ALP1        0.0000 
     63 CA         19.3740   38.7930    0.2420 C.3       4 GLC5        0.0000 
     64 CA         18.6460   37.4090    1.5310 C.3      12 GLL5        0.0000 
     65 CA         20.1020   40.1770   -1.0470 C.3       8 GLP5        0.0000 
     66 CA         19.0560   35.4115   -0.6120 C.3       4 GLC5        0.0000 
     67 CA         18.6430   36.0080    1.4610 C.3      12 GLL5        0.0000 
     68 CA         19.4690   34.8150   -2.6850 C.3       8 GLP5        0.0000 
     69 CA         20.8058   27.8509    8.4211 C.3       4 GLC5        0.0000 
     70 CA         18.5380   28.7070    8.3820 C.3      12 GLL5        0.0000 
     71 CA         22.6000   28.0640    7.4250 C.3       8 GLP5        0.0000 
     72 CA         17.6788   30.2415   13.8018 C.3       4 GLC5        0.0000 
     73 CA         15.1338   30.2093   15.3960 C.3       4 GLC5        0.0000 
     74 CA         13.9140   31.7170   15.4810 C.3       8 GLP5        0.0000 
     75 CA         14.8822   32.0160    3.8880 C.3       4 GLC5        0.0000 
     76 CA         15.7700   33.2090    5.3550 C.3      12 GLL5        0.0000 
     77 CA         13.8560   30.4820    3.0580 C.3       8 GLP5        0.0000 
     78 CA         14.6735   35.6797    4.3927 C.3       4 GLC5        0.0000 
     79 CA         16.0470   33.8910    4.0810 C.3      12 GLL5        0.0000 
     80 CA         12.9520   36.8670    4.4540 C.3       8 GLP5        0.0000 
     81 CA         18.8347   37.8875    4.5410 C.3       4 GLC5        0.0000 
     82 CA         17.4250   37.2190    3.5940 C.3      12 GLL5        0.0000 
     83 CA         19.9440   38.1550    5.9730 C.3       8 GLP5        0.0000 
     84 CA         20.2188   36.7503    0.6045 C.3       4 GLC5        0.0000 
     85 CA         21.7930   36.7920   -0.2870 C.3       8 GLP5        0.0000 
     86 CA         20.0110   34.5007    2.4928 C.3       4 GLC5        0.0000 
     87 CA         21.6890   33.3730    3.0210 C.3       8 GLP5        0.0000 
@<TRIPOS>BOND
@<TRIPOS>SUBSTRUCTURE
     1 ALC1       10 GROUP        1 X    ALC  0     ROOT ALC X 1
     2 SEC2        4 GROUP        1 X    SEC  0     **** SEC X 2
     3 LYC4        1 GROUP        1 X    LYC  0     **** LYC X 4
     4 GLC5       17 GROUP        1 X    GLC  0     **** GLC X 6
     5 ALP1       12 GROUP        1 Y    ALP  0     ROOT ALP Y 8
     6 SEP2        6 GROUP        1 Y    SEP  0     **** SEP Y 9
     7 LYP4        3 GROUP        1 Y    LYP  0     **** LYP Y 11
     8 GLP5       19 GROUP        1 Y    GLP  0     **** GLP Y 13
     9 ALL1       11 GROUP        1 Z    ALL  0     ROOT ALL Z 15
    10 SEL2        5 GROUP        1 Z    SEL  0     **** SEL Z 16
    11 LYL4        2 GROUP        1 Z    LYL  0     **** LYL Z 18
    12 GLL5       18 GROUP        1 Z    GLL  0     **** GLL Z 20
@<TRIPOS>SET

