#    Name: 2x0i_NAD_1_ligand
#    Modification time : Tue Mar 25 04:56:23 2014

@<TRIPOS>MOLECULE
2x0i_NAD_1_ligand
   70    74     1     0     0
SMALL
NO_CHARGES


@<TRIPOS>ATOM
      1 PA         19.0340   28.0030    5.9360 P.3       1 NAD1000     0.0000 
      2 O1A        17.5700   27.5280    5.7040 O.co2     1 NAD1000     0.0000 
      3 O2A        19.9810   28.1040    4.6910 O.co2     1 NAD1000     0.0000 
      4 O5B        19.3810   28.7480    7.2790 O.3       1 NAD1000     0.0000 
      5 C5B        18.5380   28.7070    8.3820 C.3       1 NAD1000     0.0000 
      6 C4B        19.1800   28.2700    9.6810 C.3       1 NAD1000     0.0000 
      7 O4B        18.5390   28.7850   10.8300 O.3       1 NAD1000     0.0000 
      8 C3B        19.1640   26.7870    9.8030 C.3       1 NAD1000     0.0000 
      9 O3B        20.4540   26.2870    9.7920 O.3       1 NAD1000     0.0000 
     10 C2B        18.4310   26.5180   11.0400 C.3       1 NAD1000     0.0000 
     11 O2B        18.9510   25.4540   11.7400 O.3       1 NAD1000     0.0000 
     12 C1B        18.5310   27.8030   11.8040 C.3       1 NAD1000     0.0000 
     13 N9A        17.4630   27.9590   12.7870 N.pl3     1 NAD1000     0.0000 
     14 C8A        16.1560   27.6930   12.6100 C.2       1 NAD1000     0.0000 
     15 N7A        15.5030   27.9890   13.7520 N.2       1 NAD1000     0.0000 
     16 C5A        16.3870   28.4680   14.6450 C.ar      1 NAD1000     0.0000 
     17 C6A        16.3200   28.9350   15.9770 C.ar      1 NAD1000     0.0000 
     18 N6A        15.0620   28.9900   16.6720 N.pl3     1 NAD1000     0.0000 
     19 N1A        17.4320   29.3310   16.6080 N.ar      1 NAD1000     0.0000 
     20 C2A        18.6090   29.2860   15.9640 C.ar      1 NAD1000     0.0000 
     21 N3A        18.7250   28.8460   14.7030 N.ar      1 NAD1000     0.0000 
     22 C4A        17.6440   28.4360   14.0320 C.ar      1 NAD1000     0.0000 
     23 O3         18.5260   29.4690    5.5750 O.3       1 NAD1000     0.0000 
     24 PN         19.1360   30.5390    4.5670 P.3       1 NAD1000     0.0000 
     25 O1N        19.0940   30.1060    3.1190 O.co2     1 NAD1000     0.0000 
     26 O2N        20.5770   30.8330    4.9250 O.co2     1 NAD1000     0.0000 
     27 O5D        18.2860   31.8530    4.7280 O.3       1 NAD1000     0.0000 
     28 C5D        18.0840   32.3860    6.0060 C.3       1 NAD1000     0.0000 
     29 C4D        17.0200   33.4510    6.1690 C.3       1 NAD1000     0.0000 
     30 O4D        17.5380   34.6410    5.7370 O.3       1 NAD1000     0.0000 
     31 C3D        15.7700   33.2090    5.3550 C.3       1 NAD1000     0.0000 
     32 O3D        14.6750   33.7640    5.9650 O.3       1 NAD1000     0.0000 
     33 C2D        16.0470   33.8910    4.0810 C.3       1 NAD1000     0.0000 
     34 O2D        14.9500   34.2920    3.3580 O.3       1 NAD1000     0.0000 
     35 C1D        16.7430   35.0940    4.5820 C.3       1 NAD1000     0.0000 
     36 N1N        17.4440   35.8920    3.4890 N.pl3     1 NAD1000     0.0000 
     37 C2N        17.4250   37.2190    3.5940 C.ar      1 NAD1000     0.0000 
     38 C3N        18.0260   38.0210    2.6240 C.ar      1 NAD1000     0.0000 
     39 C7N        18.0030   39.5000    2.7680 C.2       1 NAD1000     0.0000 
     40 O7N        18.4010   40.1730    1.8370 O.2       1 NAD1000     0.0000 
     41 N7N        17.4070   40.1150    3.9270 N.am      1 NAD1000     0.0000 
     42 C4N        18.6460   37.4090    1.5310 C.ar      1 NAD1000     0.0000 
     43 C5N        18.6430   36.0080    1.4610 C.ar      1 NAD1000     0.0000 
     44 C6N        18.0230   35.2490    2.4680 C.ar      1 NAD1000     0.0000 
     45 H          17.6584   28.0231    8.2081 H         1 NAD1000     0.0000 
     46 H          18.0593   29.7092    8.5772 H         1 NAD1000     0.0000 
     47 H          20.2317   28.5816    9.6618 H         1 NAD1000     0.0000 
     48 H          18.5673   26.4128    8.9659 H         1 NAD1000     0.0000 
     49 H          17.3801   26.3874   10.7834 H         1 NAD1000     0.0000 
     50 H          19.5052   27.7783   12.3178 H         1 NAD1000     0.0000 
     51 H          15.7522   27.3484   11.8023 H         1 NAD1000     0.0000 
     52 H          14.2597   28.6935   16.1539 H         1 NAD1000     0.0000 
     53 H          15.0945   29.3202   17.6154 H         1 NAD1000     0.0000 
     54 H          19.4817   29.6118   16.4740 H         1 NAD1000     0.0000 
     55 H          19.0466   32.8228    6.4228 H         1 NAD1000     0.0000 
     56 H          17.8411   31.5675    6.7558 H         1 NAD1000     0.0000 
     57 H          16.7395   33.5022    7.2144 H         1 NAD1000     0.0000 
     58 H          15.6944   32.1603    5.1772 H         1 NAD1000     0.0000 
     59 H          16.7664   33.3209    3.5309 H         1 NAD1000     0.0000 
     60 H          15.9217   35.7572    5.0001 H         1 NAD1000     0.0000 
     61 H          16.9622   37.6916    4.4009 H         1 NAD1000     0.0000 
     62 H          16.9966   39.4925    4.5934 H         1 NAD1000     0.0000 
     63 H          17.4535   41.1131    3.9684 H         1 NAD1000     0.0000 
     64 H          19.0877   37.9620    0.8053 H         1 NAD1000     0.0000 
     65 H          19.0953   35.5342    0.6713 H         1 NAD1000     0.0000 
     66 H          18.0308   34.2266    2.3938 H         1 NAD1000     0.0000 
     67 H          20.8752   26.6395   10.6277 H         1 NAD1000     0.0000 
     68 H          19.6528   25.8515   12.3311 H         1 NAD1000     0.0000 
     69 H          14.0566   34.0048    5.2170 H         1 NAD1000     0.0000 
     70 H          14.8990   33.6537    2.5900 H         1 NAD1000     0.0000 
@<TRIPOS>BOND
     1    2    1 ar   
     2    3    1 ar   
     3    4    1 1    
     4   23    1 1    
     5    5    4 1    
     6    6    5 1    
     7   45    5 1    
     8   46    5 1    
     9    7    6 1    
    10    8    6 1    
    11   47    6 1    
    12   12    7 1    
    13    9    8 1    
    14   10    8 1    
    15   48    8 1    
    16   67    9 1    
    17   11   10 1    
    18   12   10 1    
    19   49   10 1    
    20   68   11 1    
    21   13   12 1    
    22   50   12 1    
    23   14   13 1    
    24   22   13 1    
    25   15   14 2    
    26   51   14 1    
    27   16   15 1    
    28   17   16 ar   
    29   22   16 ar   
    30   18   17 1    
    31   19   17 ar   
    32   52   18 1    
    33   53   18 1    
    34   20   19 ar   
    35   21   20 ar   
    36   54   20 1    
    37   22   21 ar   
    38   24   23 1    
    39   25   24 ar   
    40   26   24 ar   
    41   27   24 1    
    42   28   27 1    
    43   29   28 1    
    44   55   28 1    
    45   56   28 1    
    46   30   29 1    
    47   31   29 1    
    48   57   29 1    
    49   35   30 1    
    50   32   31 1    
    51   33   31 1    
    52   58   31 1    
    53   69   32 1    
    54   34   33 1    
    55   35   33 1    
    56   59   33 1    
    57   70   34 1    
    58   36   35 1    
    59   60   35 1    
    60   37   36 ar   
    61   44   36 ar   
    62   38   37 ar   
    63   61   37 1    
    64   39   38 1    
    65   42   38 ar   
    66   40   39 2    
    67   41   39 am   
    68   62   41 1    
    69   63   41 1    
    70   43   42 ar   
    71   64   42 1    
    72   44   43 ar   
    73   65   43 1    
    74   66   44 1    
@<TRIPOS>SUBSTRUCTURE
     1 NAD1000     1 GROUP   
@<TRIPOS>SET

