#    Name: 2zfp_19U_1_INTS_M
#    Modification time : Tue Mar 25 10:41:16 2014

@<TRIPOS>MOLECULE
2zfp_19U_1_INTS_M
   57     0     9     0     0
SMALL
NO_CHARGES


@<TRIPOS>ATOM
      1 O          15.4955  -15.0895   23.9445 O.2       1 ALC1        0.0000 
      2 O          16.5370  -15.8360   23.3100 O.2       7 ALL1        0.0000 
      3 O          14.4540  -14.3430   24.5790 O.2       4 ALP1        0.0000 
      4 N          15.4435  -12.4590   24.0330 N.am      2 SEC2        0.0000 
      5 N          16.3750  -13.1400   22.9140 N.am      8 SEL2        0.0000 
      6 N          14.5120  -11.7780   25.1520 N.am      5 SEP2        0.0000 
      7 CA         17.5195  -11.2645   22.8475 C.3       3 GLC5        0.0000 
      8 CA         17.7820  -11.7870   20.9290 C.3       9 GLL5        0.0000 
      9 CA         17.2570  -10.7420   24.7660 C.3       6 GLP5        0.0000 
     10 CA         18.7750  -13.1030   18.1465 C.3       3 GLC5        0.0000 
     11 CA         18.7040  -11.8010   19.6800 C.3       9 GLL5        0.0000 
     12 CA         18.8460  -14.4050   16.6130 C.3       6 GLP5        0.0000 
     13 O          16.2980   -9.5735   21.5350 O.2       1 ALC1        0.0000 
     14 O          15.6920  -10.4550   20.8000 O.2       7 ALL1        0.0000 
     15 O          16.9040   -8.6920   22.2700 O.2       4 ALP1        0.0000 
     16 CA         14.8285   -8.8005   18.8735 C.3       3 GLC5        0.0000 
     17 CA         14.3020  -10.3570   20.3610 C.3       9 GLL5        0.0000 
     18 CA         15.3550   -7.2440   17.3860 C.3       6 GLP5        0.0000 
     19 CA         10.1885  -12.8615   21.8820 C.3       3 GLC5        0.0000 
     20 CA         11.5310  -11.5060   22.7180 C.3       9 GLL5        0.0000 
     21 CA          8.8460  -14.2170   21.0460 C.3       6 GLP5        0.0000 
     22 CA         10.6765   -7.7155   23.4275 C.3       3 GLC5        0.0000 
     23 CA         12.1580   -8.0080   24.6450 C.3       9 GLL5        0.0000 
     24 CA          9.1950   -7.4230   22.2100 C.3       6 GLP5        0.0000 
     25 CA         14.0495   -9.0385   24.5080 C.3       3 GLC5        0.0000 
     26 CA         15.9410  -10.0690   24.3710 C.3       6 GLP5        0.0000 
     27 CA         11.5675   -8.4240   26.2540 C.3       3 GLC5        0.0000 
     28 CA         10.9770   -8.8400   27.8630 C.3       6 GLP5        0.0000 
     29 CA         13.2785   -7.6355   26.5405 C.3       3 GLC5        0.0000 
     30 CA         14.3990   -7.2630   28.4360 C.3       6 GLP5        0.0000 
     31 CA         11.2550   -6.3260   25.4335 C.3       3 GLC5        0.0000 
     32 CA         10.3520   -4.6440   26.2220 C.3       6 GLP5        0.0000 
     33 CA         18.1775  -12.5968   24.5785 C.3       3 GLC5        0.0000 
     34 CA         18.3830  -14.7220   24.4870 C.3       9 GLL5        0.0000 
     35 CA         19.1745  -10.4413   19.2481 C.3       3 GLC5        0.0000 
     36 CA         19.9930  -12.4470   20.2640 C.3       9 GLL5        0.0000 
     37 CA         19.2310   -8.7620   18.2120 C.3       6 GLP5        0.0000 
     38 CA         21.4865  -13.4863   20.1883 C.3       3 GLC5        0.0000 
     39 CA         23.2680  -13.9260   19.7120 C.3       6 GLP5        0.0000 
     40 CA         19.1095  -14.1653   19.1578 C.3       3 GLC5        0.0000 
     41 CA         18.5140  -15.2840   17.6510 C.3       6 GLP5        0.0000 
     42 CA         14.8727  -10.2120   22.6567 C.3       3 GLC5        0.0000 
     43 CA         12.8820   -7.9410   21.7095 C.3       3 GLC5        0.0000 
     44 CA         13.2110   -9.2950   22.4380 C.3       9 GLL5        0.0000 
     45 CA         12.5050   -6.0580   21.4380 C.3       6 GLP5        0.0000 
     46 CA         10.4433  -11.2735   20.9937 C.3       3 GLC5        0.0000 
     47 CA         12.4580  -11.4560   21.6750 C.3       9 GLL5        0.0000 
     48 CA          8.8920  -11.0660   19.7910 C.3       6 GLP5        0.0000 
     49 CA         12.3635   -7.3640   22.7527 C.3       3 GLC5        0.0000 
     50 CA         12.2860   -9.3320   23.4900 C.3       9 GLL5        0.0000 
     51 CA         14.3448   -9.6913   23.6675 C.3       3 GLC5        0.0000 
     52 CA         12.7359  -11.3644   24.6215 C.3       3 GLC5        0.0000 
     53 CA         13.5850  -12.5750   25.9120 C.3       6 GLP5        0.0000 
     54 CA         10.8665   -8.5074   22.6040 C.3       3 GLC5        0.0000 
     55 CA         11.4440  -10.4450   23.6260 C.3       9 GLL5        0.0000 
     56 CA         19.9930  -11.1516   21.6688 C.3       3 GLC5        0.0000 
     57 CA         21.0120   -9.8830   22.8530 C.3       6 GLP5        0.0000 
@<TRIPOS>BOND
@<TRIPOS>SUBSTRUCTURE
     1 ALC1        1 GROUP        1 X    ALC  0     ROOT ALC X 1
     2 SEC2        4 GROUP        1 X    SEC  0     **** SEC X 2
     3 GLC5        7 GROUP        1 X    GLC  0     **** GLC X 6
     4 ALP1        3 GROUP        1 Y    ALP  0     ROOT ALP Y 8
     5 SEP2        6 GROUP        1 Y    SEP  0     **** SEP Y 9
     6 GLP5        9 GROUP        1 Y    GLP  0     **** GLP Y 13
     7 ALL1        2 GROUP        1 Z    ALL  0     ROOT ALL Z 15
     8 SEL2        5 GROUP        1 Z    SEL  0     **** SEL Z 16
     9 GLL5        8 GROUP        1 Z    GLL  0     **** GLL Z 20
@<TRIPOS>SET

