#    Name: 2zfp_19U_1_ligand
#    Modification time : Tue Mar 25 10:41:16 2014

@<TRIPOS>MOLECULE
2zfp_19U_1_ligand
   45    46     1     0     0
SMALL
NO_CHARGES


@<TRIPOS>ATOM
      1 N          16.5370  -15.8360   23.3100 N.4       1 19U801      0.0000 
      2 C15        17.7460  -15.0060   23.0980 C.3       1 19U801      0.0000 
      3 C14        17.3840  -13.6710   22.4600 C.2       1 19U801      0.0000 
      4 O32        16.3750  -13.1400   22.9140 O.2       1 19U801      0.0000 
      5 C1         18.3830  -14.7220   24.4870 C.3       1 19U801      0.0000 
      6 C17        19.8130  -14.1810   24.2950 C.3       1 19U801      0.0000 
      7 N1         18.1120  -13.1040   21.4600 N.am      1 19U801      0.0000 
      8 C12        17.7820  -11.7870   20.9290 C.3       1 19U801      0.0000 
      9 C7         16.3290  -11.6340   20.5720 C.2       1 19U801      0.0000 
     10 O22        15.7310  -12.5940   20.1030 O.2       1 19U801      0.0000 
     11 C2         18.7040  -11.8010   19.6800 C.3       1 19U801      0.0000 
     12 C3         19.9930  -12.4470   20.2640 C.3       1 19U801      0.0000 
     13 C4         19.4170  -13.6460   21.0650 C.3       1 19U801      0.0000 
     14 N23        15.6920  -10.4550   20.8000 N.am      1 19U801      0.0000 
     15 C24        14.3020  -10.3570   20.3610 C.3       1 19U801      0.0000 
     16 C25        13.3070  -10.3530   21.5240 C.ar      1 19U801      0.0000 
     17 C26        12.4580  -11.4560   21.6750 C.ar      1 19U801      0.0000 
     18 C27        11.5310  -11.5060   22.7180 C.ar      1 19U801      0.0000 
     19 C28        11.4440  -10.4450   23.6260 C.ar      1 19U801      0.0000 
     20 C29        12.2860   -9.3320   23.4900 C.ar      1 19U801      0.0000 
     21 C30        13.2110   -9.2950   22.4380 C.ar      1 19U801      0.0000 
     22 CL21       12.1580   -8.0080   24.6450 Cl        1 19U801      0.0000 
     23 H          18.4613  -15.5106   22.5025 H         1 19U801      0.0000 
     24 H          18.4185  -15.6409   25.0508 H         1 19U801      0.0000 
     25 H          17.7860  -13.9863   25.0025 H         1 19U801      0.0000 
     26 H          18.1333  -11.0314   21.5702 H         1 19U801      0.0000 
     27 H          18.9078  -10.8210   19.3816 H         1 19U801      0.0000 
     28 H          18.2983  -12.4278   18.9496 H         1 19U801      0.0000 
     29 H          20.4560  -11.7745   20.9199 H         1 19U801      0.0000 
     30 H          20.5931  -12.8010   19.4820 H         1 19U801      0.0000 
     31 H          19.3206  -14.4663   20.4118 H         1 19U801      0.0000 
     32 H          20.0389  -13.8192   21.8969 H         1 19U801      0.0000 
     33 H          16.1131   -9.6623   21.2442 H         1 19U801      0.0000 
     34 H          14.0430  -11.2009   19.6957 H         1 19U801      0.0000 
     35 H          14.1426   -9.4335   19.7748 H         1 19U801      0.0000 
     36 H          12.5192  -12.2395   21.0076 H         1 19U801      0.0000 
     37 H          10.9141  -12.3187   22.8195 H         1 19U801      0.0000 
     38 H          10.7637  -10.4801   24.3928 H         1 19U801      0.0000 
     39 H          13.8307   -8.4766   22.3348 H         1 19U801      0.0000 
     40 H          16.6365  -16.4426   24.0988 H         1 19U801      0.0000 
     41 H          15.7252  -15.2751   23.4722 H         1 19U801      0.0000 
     42 H          16.3402  -16.4145   22.5184 H         1 19U801      0.0000 
     43 H          20.2566  -13.9852   25.1696 H         1 19U801      0.0000 
     44 H          20.3952  -14.8341   23.8108 H         1 19U801      0.0000 
     45 H          19.8212  -13.3325   23.7658 H         1 19U801      0.0000 
@<TRIPOS>BOND
     1    2    1 1    
     2   40    1 1    
     3   41    1 1    
     4   42    1 1    
     5    3    2 1    
     6    5    2 1    
     7   23    2 1    
     8    4    3 2    
     9    7    3 am   
    10    6    5 1    
    11   24    5 1    
    12   25    5 1    
    13   43    6 1    
    14   44    6 1    
    15   45    6 1    
    16    8    7 1    
    17   13    7 1    
    18    9    8 1    
    19   11    8 1    
    20   26    8 1    
    21   10    9 2    
    22   14    9 am   
    23   12   11 1    
    24   27   11 1    
    25   28   11 1    
    26   13   12 1    
    27   29   12 1    
    28   30   12 1    
    29   31   13 1    
    30   32   13 1    
    31   15   14 1    
    32   33   14 1    
    33   16   15 1    
    34   34   15 1    
    35   35   15 1    
    36   17   16 ar   
    37   21   16 ar   
    38   18   17 ar   
    39   36   17 1    
    40   19   18 ar   
    41   37   18 1    
    42   20   19 ar   
    43   38   19 1    
    44   21   20 ar   
    45   22   20 1    
    46   39   21 1    
@<TRIPOS>SUBSTRUCTURE
     1 19U801      1 GROUP   
@<TRIPOS>SET

