#    Name: 3jqd_DX7_3_INTS_M
#    Modification time : Tue Mar 25 17:45:59 2014

@<TRIPOS>MOLECULE
3jqd_DX7_3_INTS_M
   34     0     9     0     0
SMALL
NO_CHARGES


@<TRIPOS>ATOM
      1 CA         13.9135  -13.5050   11.5250 C.3       3 GLC5        0.0000 
      2 CA         15.3420  -14.4750   10.7880 C.3       9 GLL5        0.0000 
      3 CA         12.4850  -12.5350   12.2620 C.3       6 GLP5        0.0000 
      4 CA         14.9390  -12.5850   11.8285 C.3       3 GLC5        0.0000 
      5 CA         16.2890  -13.4620   10.7370 C.3       9 GLL5        0.0000 
      6 CA         13.5890  -11.7080   12.9200 C.3       6 GLP5        0.0000 
      7 O          18.9655  -11.6715    7.5710 O.2       1 ALC1        0.0000 
      8 O          18.5700  -12.9330    7.1630 O.2       7 ALL1        0.0000 
      9 O          19.3610  -10.4100    7.9790 O.2       4 ALP1        0.0000 
     10 CA         21.3920  -13.3580    6.1365 C.3       3 GLC5        0.0000 
     11 CA         19.2920  -13.1010    6.0540 C.3       9 GLL5        0.0000 
     12 CA         23.4920  -13.6150    6.2190 C.3       6 GLP5        0.0000 
     13 CA         19.0860  -11.5230    4.8015 C.3       3 GLC5        0.0000 
     14 CA         18.8800   -9.9450    3.5490 C.3       6 GLP5        0.0000 
     15 O          22.2305  -10.6120    4.0850 O.2       1 ALC1        0.0000 
     16 O          21.6430  -11.8350    3.7050 O.2       7 ALL1        0.0000 
     17 O          22.8180   -9.3890    4.4650 O.2       4 ALP1        0.0000 
     18 O          21.9705  -12.9205    2.5750 O.2       1 ALC1        0.0000 
     19 O          22.2980  -14.0060    1.4450 O.2       4 ALP1        0.0000 
     20 O          21.4255  -13.9645    2.6050 O.2       1 ALC1        0.0000 
     21 O          20.5530  -13.9230    3.7650 O.2       7 ALL1        0.0000 
     22 N          19.0375  -16.5070    2.3125 N.am      2 SEC2        0.0000 
     23 N          19.4690  -15.9010    3.8880 N.am      8 SEL2        0.0000 
     24 N          18.6060  -17.1130    0.7370 N.am      5 SEP2        0.0000 
     25 CA         19.1710  -16.0520    7.5280 C.3       3 GLC5        0.0000 
     26 CA         17.5380  -16.2390    6.3150 C.3       9 GLL5        0.0000 
     27 CA         20.8040  -15.8650    8.7410 C.3       6 GLP5        0.0000 
     28 CA         18.5940  -17.6870    5.7535 C.3       3 GLC5        0.0000 
     29 CA         19.6500  -19.1350    5.1920 C.3       6 GLP5        0.0000 
     30 CA         16.7080  -14.5580    5.3720 C.3       3 GLC5        0.0000 
     31 CA         15.8780  -12.8770    4.4290 C.3       6 GLP5        0.0000 
     32 CA         14.0160  -16.3308    8.6702 C.3       3 GLC5        0.0000 
     33 CA         16.0250  -15.2080    8.5880 C.3       9 GLL5        0.0000 
     34 CA         12.4120  -17.3830    8.1900 C.3       6 GLP5        0.0000 
@<TRIPOS>BOND
@<TRIPOS>SUBSTRUCTURE
     1 ALC1        7 GROUP        1 X    ALC  0     ROOT ALC X 1
     2 SEC2       22 GROUP        1 X    SEC  0     **** SEC X 2
     3 GLC5        1 GROUP        1 X    GLC  0     **** GLC X 6
     4 ALP1        9 GROUP        1 Y    ALP  0     ROOT ALP Y 8
     5 SEP2       24 GROUP        1 Y    SEP  0     **** SEP Y 9
     6 GLP5        3 GROUP        1 Y    GLP  0     **** GLP Y 13
     7 ALL1        8 GROUP        1 Z    ALL  0     ROOT ALL Z 15
     8 SEL2       23 GROUP        1 Z    SEL  0     **** SEL Z 16
     9 GLL5        2 GROUP        1 Z    GLL  0     **** GLL Z 20
@<TRIPOS>SET

