#    Name: 3jqd_DX7_3_ligand
#    Modification time : Tue Mar 25 17:45:59 2014

@<TRIPOS>MOLECULE
3jqd_DX7_3_ligand
   28    30     1     0     0
SMALL
NO_CHARGES


@<TRIPOS>ATOM
      1 CAH        16.0250  -15.2080    8.5880 C.ar      1 DX7270      0.0000 
      2 CAF        15.2150  -15.3490    9.7130 C.ar      1 DX7270      0.0000 
      3 CAE        15.3420  -14.4750   10.7880 C.ar      1 DX7270      0.0000 
      4 CAG        16.2890  -13.4620   10.7370 C.ar      1 DX7270      0.0000 
      5 CAI        17.1050  -13.3290    9.6170 C.ar      1 DX7270      0.0000 
      6 CAN        16.9790  -14.1880    8.5230 C.ar      1 DX7270      0.0000 
      7 CAP        17.8370  -14.0100    7.4240 C.2       1 DX7270      0.0000 
      8 NAL        18.5700  -12.9330    7.1630 N.pl3     1 DX7270      0.0000 
      9 CAR        19.2920  -13.1010    6.0540 C.2       1 DX7270      0.0000 
     10 NAJ        20.1590  -12.2770    5.4350 N.2       1 DX7270      0.0000 
     11 CAM        20.7920  -12.6530    4.3120 C.2       1 DX7270      0.0000 
     12 NAB        21.6430  -11.8350    3.7050 N.pl3     1 DX7270      0.0000 
     13 NAK        20.5530  -13.9230    3.7650 N.am      1 DX7270      0.0000 
     14 CAQ        19.6620  -14.7950    4.3820 C.2       1 DX7270      0.0000 
     15 OAC        19.4690  -15.9010    3.8880 O.2       1 DX7270      0.0000 
     16 CAS        19.0260  -14.3750    5.5490 C.2       1 DX7270      0.0000 
     17 CAO        18.1090  -14.9370    6.4240 C.2       1 DX7270      0.0000 
     18 CAD        17.5380  -16.2390    6.3150 C.1       1 DX7270      0.0000 
     19 NAA        17.0630  -17.2660    6.2550 N.1       1 DX7270      0.0000 
     20 H          15.9217  -15.8596    7.7966 H         1 DX7270      0.0000 
     21 H          14.5168  -16.1068    9.7481 H         1 DX7270      0.0000 
     22 H          14.7397  -14.5799   11.6109 H         1 DX7270      0.0000 
     23 H          16.3895  -12.8090   11.5249 H         1 DX7270      0.0000 
     24 H          17.8195  -12.5796    9.5926 H         1 DX7270      0.0000 
     25 H          18.5810  -12.1127    7.7166 H         1 DX7270      0.0000 
     26 H          21.7326  -10.9208    4.1003 H         1 DX7270      0.0000 
     27 H          22.1177  -12.2068    2.9072 H         1 DX7270      0.0000 
     28 H          21.0407  -14.2048    2.9053 H         1 DX7270      0.0000 
@<TRIPOS>BOND
     1    2    1 ar   
     2    6    1 ar   
     3   20    1 1    
     4    3    2 ar   
     5   21    2 1    
     6    4    3 ar   
     7   22    3 1    
     8    5    4 ar   
     9   23    4 1    
    10    6    5 ar   
    11   24    5 1    
    12    7    6 1    
    13    8    7 1    
    14   17    7 2    
    15    9    8 1    
    16   25    8 1    
    17   10    9 1    
    18   16    9 2    
    19   11   10 2    
    20   12   11 1    
    21   13   11 1    
    22   26   12 1    
    23   27   12 1    
    24   14   13 am   
    25   28   13 1    
    26   15   14 2    
    27   16   14 1    
    28   17   16 1    
    29   18   17 1    
    30   19   18 3    
@<TRIPOS>SUBSTRUCTURE
     1 DX7270      1 GROUP   
@<TRIPOS>SET

