#    Name: 4jl9_BX7_1_INTS_M
#    Modification time : Tue Mar 25 06:00:16 2014

@<TRIPOS>MOLECULE
4jl9_BX7_1_INTS_M
   86     0     9     0     0
SMALL
NO_CHARGES


@<TRIPOS>ATOM
      1 CA          0.4220   30.8595   46.0545 C.3       3 GLC5        0.0000 
      2 CA         -0.2120   32.7780   46.7720 C.3       9 GLL5        0.0000 
      3 CA          1.0560   28.9410   45.3370 C.3       6 GLP5        0.0000 
      4 CA         -1.3905   30.9320   46.9735 C.3       3 GLC5        0.0000 
      5 CA         -2.5690   29.0860   47.1750 C.3       6 GLP5        0.0000 
      6 CA          1.6005   32.4380   47.0995 C.3       3 GLC5        0.0000 
      7 CA          3.4130   32.0980   47.4270 C.3       6 GLP5        0.0000 
      8 CA          0.2815   32.4580   48.4605 C.3       3 GLC5        0.0000 
      9 CA          0.7750   32.1380   50.1490 C.3       6 GLP5        0.0000 
     10 N          -2.8505   35.1045   38.1640 N.am      2 SEC2        0.0000 
     11 N          -1.7200   34.0230   37.7700 N.am      8 SEL2        0.0000 
     12 N          -3.9810   36.1860   38.5580 N.am      5 SEP2        0.0000 
     13 N          -1.4870   35.5445   37.8170 N.am      2 SEC2        0.0000 
     14 N          -1.2540   37.0660   37.8640 N.am      5 SEP2        0.0000 
     15 N           3.2290   33.8540   46.3525 N.am      2 SEC2        0.0000 
     16 N           3.3020   34.1920   44.9100 N.am      8 SEL2        0.0000 
     17 N           3.1560   33.5160   47.7950 N.am      5 SEP2        0.0000 
     18 O          -0.0335   30.7355   38.6895 O.2       1 ALC1        0.0000 
     19 O          -1.0300   31.8770   38.3170 O.2       7 ALL1        0.0000 
     20 O           0.9630   29.5940   39.0620 O.2       4 ALP1        0.0000 
     21 N          -5.1320   32.0090   44.7710 N.am      2 SEC2        0.0000 
     22 N          -3.6970   31.8840   44.3620 N.am      8 SEL2        0.0000 
     23 N          -6.5670   32.1340   45.1800 N.am      5 SEP2        0.0000 
     24 CA         -0.4930   36.1080   37.9565 C.3       3 GLC5        0.0000 
     25 CA          0.8920   34.8910   36.8050 C.3       9 GLL5        0.0000 
     26 CA         -1.8780   37.3250   39.1080 C.3       6 GLP5        0.0000 
     27 CA         -1.7360   29.7930   40.7765 C.3       3 GLC5        0.0000 
     28 CA         -2.6000   31.4960   40.1860 C.3       9 GLL5        0.0000 
     29 CA         -0.8720   28.0900   41.3670 C.3       6 GLP5        0.0000 
     30 CA          0.0320   30.0270   41.8540 C.3       3 GLC5        0.0000 
     31 CA          0.9360   31.9640   42.3410 C.3       9 GLL5        0.0000 
     32 CA          2.0775   30.7600   41.5080 C.3       3 GLC5        0.0000 
     33 CA          3.2190   29.5560   40.6750 C.3       6 GLP5        0.0000 
     34 CA          2.1350   30.8300   43.4925 C.3       3 GLC5        0.0000 
     35 CA          3.3340   29.6960   44.6440 C.3       6 GLP5        0.0000 
     36 CA          1.5000   35.7665   44.0505 C.3       3 GLC5        0.0000 
     37 CA          1.6540   34.3390   42.5830 C.3       9 GLL5        0.0000 
     38 CA          1.3460   37.1940   45.5180 C.3       6 GLP5        0.0000 
     39 CA         -6.8875   30.9020   40.6530 C.3       3 GLC5        0.0000 
     40 CA         -4.8520   30.7450   39.8110 C.3       9 GLL5        0.0000 
     41 CA         -8.9230   31.0590   41.4950 C.3       6 GLP5        0.0000 
     42 CA         -2.8765   29.5660   43.1555 C.3       3 GLC5        0.0000 
     43 CA         -3.1920   31.5060   43.1760 C.3       9 GLL5        0.0000 
     44 CA         -2.5610   27.6260   43.1350 C.3       6 GLP5        0.0000 
     45 CA         -4.7695   32.9160   43.6410 C.3       3 GLC5        0.0000 
     46 CA         -6.3470   34.3260   44.1060 C.3       6 GLP5        0.0000 
     47 CA         -3.1305   33.1360   42.6445 C.3       3 GLC5        0.0000 
     48 CA         -3.0690   34.7660   42.1130 C.3       6 GLP5        0.0000 
     49 CA         -4.6645   31.3890   46.1810 C.3       3 GLC5        0.0000 
     50 CA         -2.8930   32.2440   45.3750 C.3       9 GLL5        0.0000 
     51 CA         -6.4360   30.5340   46.9870 C.3       6 GLP5        0.0000 
     52 CA         -4.3725   33.6715   45.5200 C.3       3 GLC5        0.0000 
     53 CA         -5.8520   35.0990   45.6650 C.3       6 GLP5        0.0000 
     54 CA          4.3880   30.8125   41.7900 C.3       3 GLC5        0.0000 
     55 CA          5.5570   32.0690   42.9050 C.3       9 GLL5        0.0000 
     56 CA          6.7950   30.1105   41.5200 C.3       3 GLC5        0.0000 
     57 CA          6.7680   31.5080   43.1930 C.3       9 GLL5        0.0000 
     58 CA          6.8220   28.7130   39.8470 C.3       6 GLP5        0.0000 
     59 CA          4.5205   32.4825   46.0245 C.3       3 GLC5        0.0000 
     60 CA          5.0560   32.8700   43.9530 C.3       9 GLL5        0.0000 
     61 CA          1.2847   35.7903   35.1075 C.3       3 GLC5        0.0000 
     62 CA          2.3770   34.8980   36.6550 C.3       9 GLL5        0.0000 
     63 CA          0.9350   36.6860   33.4850 C.3       6 GLP5        0.0000 
     64 CA          2.1698   36.7553   37.5530 C.3       3 GLC5        0.0000 
     65 CA          2.7050   38.6160   38.3760 C.3       6 GLP5        0.0000 
     66 CA         -3.9698   32.8882   39.1430 C.3       3 GLC5        0.0000 
     67 CA         -2.3530   31.4850   38.7980 C.3       9 GLL5        0.0000 
     68 CA         -5.4630   34.2860   38.7940 C.3       6 GLP5        0.0000 
     69 CA         -3.1460   33.0382   41.2775 C.3       3 GLC5        0.0000 
     70 CA         -0.2948   34.8957   42.3620 C.3       3 GLC5        0.0000 
     71 CA          0.6590   33.4120   41.8970 C.3       9 GLL5        0.0000 
     72 CA         -1.7460   35.9160   42.4840 C.3       6 GLP5        0.0000 
     73 CA         -4.7240   32.6025   38.4820 C.3       3 GLC5        0.0000 
     74 CA         -3.3630   31.1030   37.9170 C.3       9 GLL5        0.0000 
     75 CA         -3.7305   29.0480   40.4982 C.3       3 GLC5        0.0000 
     76 CA         -3.1120   27.1610   40.7420 C.3       6 GLP5        0.0000 
     77 CA         -4.9060   32.6105   39.5242 C.3       3 GLC5        0.0000 
     78 CA         -3.8460   31.1250   40.6980 C.3       9 GLL5        0.0000 
     79 CA         -0.0952   30.4802   44.9532 C.3       3 GLC5        0.0000 
     80 CA         -0.9910   31.8170   43.9410 C.3       9 GLL5        0.0000 
     81 CA         -2.3832   30.6595   46.2308 C.3       3 GLC5        0.0000 
     82 CA         -1.5020   32.2220   45.1980 C.3       9 GLL5        0.0000 
     83 CA         -2.5694   33.4489   43.5426 C.3       3 GLC5        0.0000 
     84 CA          8.4985   30.9178   42.5960 C.3       3 GLC5        0.0000 
     85 CA          9.9740   30.1740   41.3840 C.3       6 GLP5        0.0000 
     86 CA          4.8209   30.8804   44.2149 C.3       3 GLC5        0.0000 
@<TRIPOS>BOND
@<TRIPOS>SUBSTRUCTURE
     1 ALC1       18 GROUP        1 X    ALC  0     ROOT ALC X 1
     2 SEC2       10 GROUP        1 X    SEC  0     **** SEC X 2
     3 GLC5        1 GROUP        1 X    GLC  0     **** GLC X 6
     4 ALP1       20 GROUP        1 Y    ALP  0     ROOT ALP Y 8
     5 SEP2       12 GROUP        1 Y    SEP  0     **** SEP Y 9
     6 GLP5        3 GROUP        1 Y    GLP  0     **** GLP Y 13
     7 ALL1       19 GROUP        1 Z    ALL  0     ROOT ALL Z 15
     8 SEL2       11 GROUP        1 Z    SEL  0     **** SEL Z 16
     9 GLL5        2 GROUP        1 Z    GLL  0     **** GLL Z 20
@<TRIPOS>SET

