#    Name: 4jl9_BX7_1_ligand
#    Modification time : Tue Mar 25 06:00:16 2014

@<TRIPOS>MOLECULE
4jl9_BX7_1_ligand
   60    63     1     0     0
SMALL
NO_CHARGES


@<TRIPOS>ATOM
      1 I01        -0.2120   32.7780   46.7720 I         1 BX7701      0.0000 
      2 S02         6.2000   32.8640   45.2910 S.3       1 BX7701      0.0000 
      3 O03        -1.7200   34.0230   37.7700 O.2       1 BX7701      0.0000 
      4 O04         3.3020   34.1920   44.9100 O.2       1 BX7701      0.0000 
      5 N05         0.5150   33.6040   37.3380 N.am      1 BX7701      0.0000 
      6 N06        -1.0300   31.8770   38.3170 N.am      1 BX7701      0.0000 
      7 N07         0.4440   31.7680   43.6820 N.pl3     1 BX7701      0.0000 
      8 N08        -4.1260   31.1300   42.1280 N.pl3     1 BX7701      0.0000 
      9 N09         2.9460   33.6340   42.6640 N.am      1 BX7701      0.0000 
     10 N10        -1.8580   31.4690   42.9750 N.ar      1 BX7701      0.0000 
     11 N11        -3.6970   31.8840   44.3620 N.ar      1 BX7701      0.0000 
     12 C12         2.3770   34.8980   36.6550 C.3       1 BX7701      0.0000 
     13 C13         2.8300   33.7330   37.4770 C.3       1 BX7701      0.0000 
     14 C14         1.6800   32.7710   37.3220 C.3       1 BX7701      0.0000 
     15 C15         0.8920   34.8910   36.8050 C.3       1 BX7701      0.0000 
     16 C16        -0.8050   33.2200   37.8070 C.2       1 BX7701      0.0000 
     17 C17        -2.3530   31.4850   38.7980 C.ar      1 BX7701      0.0000 
     18 C18        -2.6000   31.4960   40.1860 C.ar      1 BX7701      0.0000 
     19 C19         0.6590   33.4120   41.8970 C.3       1 BX7701      0.0000 
     20 C20        -3.3630   31.1030   37.9170 C.ar      1 BX7701      0.0000 
     21 C21         0.9360   31.9640   42.3410 C.3       1 BX7701      0.0000 
     22 C22        -3.8460   31.1250   40.6980 C.ar      1 BX7701      0.0000 
     23 C23         1.6540   34.3390   42.5830 C.3       1 BX7701      0.0000 
     24 C24        -4.6070   30.7350   38.4230 C.ar      1 BX7701      0.0000 
     25 C25        -4.8520   30.7450   39.8110 C.ar      1 BX7701      0.0000 
     26 C26        -0.9910   31.8170   43.9410 C.ar      1 BX7701      0.0000 
     27 C27        -3.1920   31.5060   43.1760 C.ar      1 BX7701      0.0000 
     28 C28        -1.5020   32.2220   45.1980 C.ar      1 BX7701      0.0000 
     29 C29         3.7190   33.6210   43.9160 C.2       1 BX7701      0.0000 
     30 C30        -2.8930   32.2440   45.3750 C.ar      1 BX7701      0.0000 
     31 C31         5.0560   32.8700   43.9530 C.2       1 BX7701      0.0000 
     32 C32         5.5570   32.0690   42.9050 C.2       1 BX7701      0.0000 
     33 C33         6.7680   31.5080   43.1930 C.2       1 BX7701      0.0000 
     34 C34         7.2780   31.8150   44.4230 C.2       1 BX7701      0.0000 
     35 H          -0.2733   31.2122   38.3401 H         1 BX7701      0.0000 
     36 H           1.0818   31.5975   44.4417 H         1 BX7701      0.0000 
     37 H          -5.0886   30.8355   42.4263 H         1 BX7701      0.0000 
     38 H           3.3026   33.1563   41.8530 H         1 BX7701      0.0000 
     39 H           2.6453   34.7507   35.6310 H         1 BX7701      0.0000 
     40 H           2.7835   35.8047   37.0487 H         1 BX7701      0.0000 
     41 H           2.9310   34.0149   38.4936 H         1 BX7701      0.0000 
     42 H           3.7117   33.3117   37.0667 H         1 BX7701      0.0000 
     43 H           1.7876   32.2496   36.3866 H         1 BX7701      0.0000 
     44 H           1.6913   32.0810   38.1479 H         1 BX7701      0.0000 
     45 H           0.5985   35.6950   37.4780 H         1 BX7701      0.0000 
     46 H           0.4352   35.0610   35.8314 H         1 BX7701      0.0000 
     47 H          -1.8464   31.7830   40.8284 H         1 BX7701      0.0000 
     48 H          -0.3473   33.6821   42.1816 H         1 BX7701      0.0000 
     49 H           0.7751   33.4810   40.8253 H         1 BX7701      0.0000 
     50 H          -3.1917   31.0932   36.9086 H         1 BX7701      0.0000 
     51 H           0.4428   31.2980   41.6292 H         1 BX7701      0.0000 
     52 H           2.0139   31.7977   42.2787 H         1 BX7701      0.0000 
     53 H           1.7469   35.2456   41.9978 H         1 BX7701      0.0000 
     54 H           1.2837   34.5776   43.5724 H         1 BX7701      0.0000 
     55 H          -5.3616   30.4511   37.7818 H         1 BX7701      0.0000 
     56 H          -5.7759   30.4706   40.1628 H         1 BX7701      0.0000 
     57 H          -3.2699   32.5395   46.2894 H         1 BX7701      0.0000 
     58 H           5.0668   31.9429   42.0640 H         1 BX7701      0.0000 
     59 H           7.2514   30.9104   42.5454 H         1 BX7701      0.0000 
     60 H           8.0396   31.6045   44.8934 H         1 BX7701      0.0000 
@<TRIPOS>BOND
     1   28    1 1    
     2   31    2 1    
     3   34    2 1    
     4   16    3 2    
     5   29    4 2    
     6   14    5 1    
     7   15    5 1    
     8   16    5 am   
     9   16    6 am   
    10   17    6 1    
    11   35    6 1    
    12   21    7 1    
    13   26    7 1    
    14   36    7 1    
    15   22    8 1    
    16   27    8 1    
    17   37    8 1    
    18   23    9 1    
    19   29    9 am   
    20   38    9 1    
    21   26   10 ar   
    22   27   10 ar   
    23   27   11 ar   
    24   30   11 ar   
    25   13   12 1    
    26   15   12 1    
    27   39   12 1    
    28   40   12 1    
    29   14   13 1    
    30   41   13 1    
    31   42   13 1    
    32   43   14 1    
    33   44   14 1    
    34   45   15 1    
    35   46   15 1    
    36   18   17 ar   
    37   20   17 ar   
    38   22   18 ar   
    39   47   18 1    
    40   21   19 1    
    41   23   19 1    
    42   48   19 1    
    43   49   19 1    
    44   24   20 ar   
    45   50   20 1    
    46   51   21 1    
    47   52   21 1    
    48   25   22 ar   
    49   53   23 1    
    50   54   23 1    
    51   25   24 ar   
    52   55   24 1    
    53   56   25 1    
    54   28   26 ar   
    55   30   28 ar   
    56   31   29 1    
    57   57   30 1    
    58   32   31 2    
    59   33   32 1    
    60   58   32 1    
    61   34   33 2    
    62   59   33 1    
    63   60   34 1    
@<TRIPOS>SUBSTRUCTURE
     1 BX7701      1 GROUP   
@<TRIPOS>SET

