#    Name: 2b7a_IZA_1_INTS_M
#    Modification time : Mon Mar 24 20:20:04 2014

@<TRIPOS>MOLECULE
2b7a_IZA_1_INTS_M
   62     0     9     0     0
SMALL
NO_CHARGES


@<TRIPOS>ATOM
      1 N         118.3690   68.6285   11.2850 N.am      2 SEC2        0.0000 
      2 N         117.7080   67.4770   10.8940 N.am      8 SEL2        0.0000 
      3 N         119.0300   69.7800   11.6760 N.am      5 SEP2        0.0000 
      4 O         119.4695   67.2740    8.9885 O.2       1 ALC1        0.0000 
      5 O         118.0910   66.7430    8.7980 O.2       7 ALL1        0.0000 
      6 O         120.8480   67.8050    9.1790 O.2       4 ALP1        0.0000 
      7 CA        118.5045   67.5645    6.6105 C.3       3 GLC5        0.0000 
      8 CA        117.6930   66.0990    7.6860 C.3       9 GLL5        0.0000 
      9 CA        119.3160   69.0300    5.5350 C.3       6 GLP5        0.0000 
     10 CA        118.4905   65.4070    6.1680 C.3       3 GLC5        0.0000 
     11 CA        119.2880   64.7150    4.6500 C.3       6 GLP5        0.0000 
     12 CA        117.6215   64.3940    6.5810 C.3       3 GLC5        0.0000 
     13 CA        116.4160   65.5460    7.5940 C.3       9 GLL5        0.0000 
     14 CA        118.8270   63.2420    5.5680 C.3       6 GLP5        0.0000 
     15 CA        117.8235   65.3105   10.0640 C.3       3 GLC5        0.0000 
     16 CA        115.9050   66.2890    9.8350 C.3       9 GLL5        0.0000 
     17 CA        119.7420   64.3320   10.2930 C.3       6 GLP5        0.0000 
     18 CA        116.2190   67.3995   14.8115 C.3       3 GLC5        0.0000 
     19 CA        114.4580   67.6720   14.4460 C.3       9 GLL5        0.0000 
     20 CA        117.9800   67.1270   15.1770 C.3       6 GLP5        0.0000 
     21 O         114.4390   64.2370    6.2805 O.2       1 ALC1        0.0000 
     22 O         113.7040   64.4150    7.5220 O.2       7 ALL1        0.0000 
     23 O         115.1740   64.0590    5.0390 O.2       4 ALP1        0.0000 
     24 CA        110.6460   61.8650    9.5740 C.3       3 GLC5        0.0000 
     25 CA        110.3510   62.7540    7.9250 C.3       9 GLL5        0.0000 
     26 CA        110.9410   60.9760   11.2230 C.3       6 GLP5        0.0000 
     27 CA        110.0985   60.6775    8.1965 C.3       3 GLC5        0.0000 
     28 CA        109.8460   58.6010    8.4680 C.3       6 GLP5        0.0000 
     29 CA        110.6465   60.8070    5.5625 C.3       3 GLC5        0.0000 
     30 CA        112.1570   62.2180    6.3120 C.3       9 GLL5        0.0000 
     31 CA        109.1360   59.3960    4.8130 C.3       6 GLP5        0.0000 
     32 CA        110.2115   66.1015    4.9250 C.3       3 GLC5        0.0000 
     33 CA        110.8870   64.3320    6.0960 C.3       9 GLL5        0.0000 
     34 CA        109.5360   67.8710    3.7540 C.3       6 GLP5        0.0000 
     35 CA        111.9655   64.5675    4.2365 C.3       3 GLC5        0.0000 
     36 CA        113.0440   64.8030    2.3770 C.3       6 GLP5        0.0000 
     37 CA        118.3983   65.0772    8.9665 C.3       3 GLC5        0.0000 
     38 CA        116.3033   67.3673    7.4150 C.3       3 GLC5        0.0000 
     39 CA        115.5520   68.9120    7.1900 C.3       6 GLP5        0.0000 
     40 CA        115.6317   67.4365    8.2190 C.3       3 GLC5        0.0000 
     41 CA        115.5180   65.6330    8.6610 C.3       9 GLL5        0.0000 
     42 CA        113.5622   66.8762    8.7115 C.3       3 GLC5        0.0000 
     43 CA        114.2420   65.0750    8.5710 C.3       9 GLL5        0.0000 
     44 CA        113.3500   68.6460    8.3400 C.3       6 GLP5        0.0000 
     45 CA        116.0974   63.8728    9.3886 C.3       3 GLC5        0.0000 
     46 CA        116.6900   61.9350    9.6850 C.3       6 GLP5        0.0000 
     47 CA        116.0215   65.2495   12.2894 C.3       3 GLC5        0.0000 
     48 CA        116.7340   63.8280   13.2880 C.3       6 GLP5        0.0000 
     49 CA        113.5475   68.6745   13.1516 C.3       3 GLC5        0.0000 
     50 CA        112.5140   70.0070   12.7490 C.3       6 GLP5        0.0000 
     51 CA        114.4101   65.5273   14.2785 C.3       3 GLC5        0.0000 
     52 CA        114.2050   67.0160   13.1460 C.3       9 GLL5        0.0000 
     53 CA        115.1690   64.1810   15.2130 C.3       6 GLP5        0.0000 
     54 CA        112.6773   68.0588   12.5388 C.3       3 GLC5        0.0000 
     55 CA        112.9710   66.4030   12.8920 C.3       9 GLL5        0.0000 
     56 CA        113.8317   64.2410   12.2812 C.3       3 GLC5        0.0000 
     57 CA        112.7100   65.8180   11.7650 C.3       9 GLL5        0.0000 
     58 CA        114.5200   62.6910   13.2760 C.3       6 GLP5        0.0000 
     59 CA        113.4153   67.2954    9.8335 C.3       3 GLC5        0.0000 
     60 CA        113.5375   61.9525    7.2615 C.3       3 GLC5        0.0000 
     61 CA        111.4810   63.3400    7.0880 C.3       9 GLL5        0.0000 
     62 CA        115.2560   61.1260    7.8230 C.3       6 GLP5        0.0000 
@<TRIPOS>BOND
@<TRIPOS>SUBSTRUCTURE
     1 ALC1        4 GROUP        1 X    ALC  0     ROOT ALC X 1
     2 SEC2        1 GROUP        1 X    SEC  0     **** SEC X 2
     3 GLC5        7 GROUP        1 X    GLC  0     **** GLC X 6
     4 ALP1        6 GROUP        1 Y    ALP  0     ROOT ALP Y 8
     5 SEP2        3 GROUP        1 Y    SEP  0     **** SEP Y 9
     6 GLP5        9 GROUP        1 Y    GLP  0     **** GLP Y 13
     7 ALL1        5 GROUP        1 Z    ALL  0     ROOT ALL Z 15
     8 SEL2        2 GROUP        1 Z    SEL  0     **** SEL Z 16
     9 GLL5        8 GROUP        1 Z    GLL  0     **** GLL Z 20
@<TRIPOS>SET

