#    Name: 2b7a_IZA_1_ligand
#    Modification time : Mon Mar 24 20:20:04 2014

@<TRIPOS>MOLECULE
2b7a_IZA_1_ligand
   39    42     1     0     0
SMALL
NO_CHARGES


@<TRIPOS>ATOM
      1 O0        117.7080   67.4770   10.8940 O.2       1 IZA2001     0.0000 
      2 C11       117.2770   66.8780    9.8800 C.2       1 IZA2001     0.0000 
      3 N2        118.0910   66.7430    8.7980 N.am      1 IZA2001     0.0000 
      4 C12       117.6930   66.0990    7.6860 C.2       1 IZA2001     0.0000 
      5 C13       116.4160   65.5460    7.5940 C.2       1 IZA2001     0.0000 
      6 C9        115.5180   65.6330    8.6610 C.ar      1 IZA2001     0.0000 
      7 C1        114.2420   65.0750    8.5710 C.ar      1 IZA2001     0.0000 
      8 C10       115.9050   66.2890    9.8350 C.ar      1 IZA2001     0.0000 
      9 C8        114.9250   66.3790   10.9700 C.ar      1 IZA2001     0.0000 
     10 C7        115.2030   67.0080   12.1790 C.ar      1 IZA2001     0.0000 
     11 C6        114.2050   67.0160   13.1460 C.ar      1 IZA2001     0.0000 
     12 F1        114.4580   67.6720   14.4460 F         1 IZA2001     0.0000 
     13 C5        112.9710   66.4030   12.8920 C.ar      1 IZA2001     0.0000 
     14 C4        112.7100   65.8180   11.7650 C.ar      1 IZA2001     0.0000 
     15 C3        113.5770   65.7640   10.8080 C.ar      1 IZA2001     0.0000 
     16 C0        113.3070   65.1380    9.5950 C.ar      1 IZA2001     0.0000 
     17 N1        112.1720   64.5120    9.2100 N.2       1 IZA2001     0.0000 
     18 C2        112.4660   64.0890    7.9580 C.2       1 IZA2001     0.0000 
     19 N0        113.7040   64.4150    7.5220 N.pl3     1 IZA2001     0.0000 
     20 C14       111.4810   63.3400    7.0880 C.3       1 IZA2001     0.0000 
     21 C17       110.3510   62.7540    7.9250 C.3       1 IZA2001     0.0000 
     22 C16       112.1570   62.2180    6.3120 C.3       1 IZA2001     0.0000 
     23 C15       110.8870   64.3320    6.0960 C.3       1 IZA2001     0.0000 
     24 H         119.0590   67.1568    8.8388 H         1 IZA2001     0.0000 
     25 H         118.3327   66.0002    6.8689 H         1 IZA2001     0.0000 
     26 H         116.1291   65.0655    6.7260 H         1 IZA2001     0.0000 
     27 H         116.1004   67.4442   12.3479 H         1 IZA2001     0.0000 
     28 H         112.2590   66.4431   13.6736 H         1 IZA2001     0.0000 
     29 H         111.7474   65.3668   11.6245 H         1 IZA2001     0.0000 
     30 H         114.0929   64.2283    6.6943 H         1 IZA2001     0.0000 
     31 H         110.6921   62.1133    8.6129 H         1 IZA2001     0.0000 
     32 H         109.8429   63.4642    8.4123 H         1 IZA2001     0.0000 
     33 H         109.6916   62.2559    7.3620 H         1 IZA2001     0.0000 
     34 H         112.8767   62.5640    5.7100 H         1 IZA2001     0.0000 
     35 H         112.5814   61.5483    6.9214 H         1 IZA2001     0.0000 
     36 H         111.5076   61.7207    5.7367 H         1 IZA2001     0.0000 
     37 H         111.5901   64.7431    5.5157 H         1 IZA2001     0.0000 
     38 H         110.2229   63.8968    5.4881 H         1 IZA2001     0.0000 
     39 H         110.4137   65.0816    6.5587 H         1 IZA2001     0.0000 
@<TRIPOS>BOND
     1    2    1 2    
     2    3    2 am   
     3    8    2 1    
     4    4    3 1    
     5   24    3 1    
     6    5    4 2    
     7   25    4 1    
     8    6    5 1    
     9   26    5 1    
    10    7    6 ar   
    11    8    6 ar   
    12   16    7 ar   
    13   19    7 1    
    14    9    8 ar   
    15   10    9 ar   
    16   15    9 ar   
    17   11   10 ar   
    18   27   10 1    
    19   12   11 1    
    20   13   11 ar   
    21   14   13 ar   
    22   28   13 1    
    23   15   14 ar   
    24   29   14 1    
    25   16   15 ar   
    26   17   16 1    
    27   18   17 2    
    28   19   18 1    
    29   20   18 1    
    30   30   19 1    
    31   21   20 1    
    32   22   20 1    
    33   23   20 1    
    34   31   21 1    
    35   32   21 1    
    36   33   21 1    
    37   34   22 1    
    38   35   22 1    
    39   36   22 1    
    40   37   23 1    
    41   38   23 1    
    42   39   23 1    
@<TRIPOS>SUBSTRUCTURE
     1 IZA2001     1 GROUP   
@<TRIPOS>SET

