#    Name: 3ha5_SFG_1_INTS_M
#    Modification time : Tue Mar 25 13:47:49 2014

@<TRIPOS>MOLECULE
3ha5_SFG_1_INTS_M
   58     0     9     0     0
SMALL
NO_CHARGES


@<TRIPOS>ATOM
      1 O          25.6555   -6.5025   11.7460 O.2       1 ALC1        0.0000 
      2 O          24.4420   -6.7220   12.4410 O.2       7 ALL1        0.0000 
      3 O          26.8690   -6.2830   11.0510 O.2       4 ALP1        0.0000 
      4 O          24.7065   -6.1395   13.8330 O.2       1 ALC1        0.0000 
      5 O          24.9710   -5.5570   15.2250 O.2       4 ALP1        0.0000 
      6 N          21.7405   -8.2015   14.9780 N.am      2 SEC2        0.0000 
      7 N          22.4720   -8.1400   13.9450 N.am      8 SEL2        0.0000 
      8 N          21.0090   -8.2630   16.0110 N.am      5 SEP2        0.0000 
      9 N          22.4580  -11.0850   13.8705 N.am      2 SEC2        0.0000 
     10 N          22.9760  -10.0050   13.0350 N.am      8 SEL2        0.0000 
     11 N          21.9400  -12.1650   14.7060 N.am      5 SEP2        0.0000 
     12 CA         29.0025   -6.8925   15.4910 C.3       3 GLC5        0.0000 
     13 CA         28.6960   -8.7140   14.7810 C.3       9 GLL5        0.0000 
     14 CA         29.3090   -5.0710   16.2010 C.3       6 GLP5        0.0000 
     15 CA         30.2405   -8.3695   16.1465 C.3       3 GLC5        0.0000 
     16 CA         31.7850   -8.0250   17.5120 C.3       6 GLP5        0.0000 
     17 CA         29.1070   -6.9460   12.1115 C.3       3 GLC5        0.0000 
     18 CA         29.1530   -8.4450   13.3520 C.3       9 GLL5        0.0000 
     19 CA         29.0610   -5.4470   10.8710 C.3       6 GLP5        0.0000 
     20 CA         29.3465   -6.4805   14.0630 C.3       3 GLC5        0.0000 
     21 CA         29.5400   -4.5160   14.7740 C.3       6 GLP5        0.0000 
     22 N          29.4785  -10.4910   10.1345 N.am      2 SEC2        0.0000 
     23 N          29.4220   -9.3710   11.1450 N.am      8 SEL2        0.0000 
     24 N          29.5350  -11.6110    9.1240 N.am      5 SEP2        0.0000 
     25 N          32.8585   -9.3120   10.1015 N.am      2 SEC2        0.0000 
     26 N          32.0750   -9.6440   11.5410 N.am      8 SEL2        0.0000 
     27 N          33.6420   -8.9800    8.6620 N.am      5 SEP2        0.0000 
     28 CA         30.1485   -6.5725   11.7625 C.3       3 GLC5        0.0000 
     29 CA         31.2360   -7.6980   12.6540 C.3       9 GLL5        0.0000 
     30 CA         30.3880   -6.1070   13.7140 C.3       3 GLC5        0.0000 
     31 CA         35.2190   -6.8260   12.6555 C.3       3 GLC5        0.0000 
     32 CA         34.0730   -5.4290   13.1200 C.3       9 GLL5        0.0000 
     33 CA         36.3650   -8.2230   12.1910 C.3       6 GLP5        0.0000 
     34 CA         35.2605   -6.1390   11.7020 C.3       3 GLC5        0.0000 
     35 CA         34.7900   -4.2490   12.5410 C.3       9 GLL5        0.0000 
     36 CA         35.7310   -8.0290   10.8630 C.3       6 GLP5        0.0000 
     37 CA         35.6755   -3.7600   10.8230 C.3       3 GLC5        0.0000 
     38 CA         36.5610   -3.2710    9.1050 C.3       6 GLP5        0.0000 
     39 O          36.8690   -2.7030   12.3970 O.2       1 ALC1        0.0000 
     40 O          35.8790   -3.7080   13.1050 O.2       7 ALL1        0.0000 
     41 O          37.8590   -1.6980   11.6890 O.2       4 ALP1        0.0000 
     42 N          34.9300   -2.4390   10.5710 N.am      2 SEC2        0.0000 
     43 N          34.3130   -3.7100   11.4120 N.am      8 SEL2        0.0000 
     44 N          35.5470   -1.1680    9.7300 N.am      5 SEP2        0.0000 
     45 CA         32.0795   -2.6740   11.1610 C.3       3 GLC5        0.0000 
     46 CA         33.2350   -4.2170   10.7810 C.3       9 GLL5        0.0000 
     47 CA         30.9240   -1.1310   11.5410 C.3       6 GLP5        0.0000 
     48 CA         31.1480   -4.8320   10.8260 C.3       3 GLC5        0.0000 
     49 CA         32.5705   -3.7075    8.8650 C.3       3 GLC5        0.0000 
     50 CA         31.9060   -3.1980    6.9490 C.3       6 GLP5        0.0000 
     51 CA         34.8980   -3.7440    9.9430 C.3       3 GLC5        0.0000 
     52 CA         30.9865   -5.6830   11.6285 C.3       3 GLC5        0.0000 
     53 CA         32.9120   -5.9190   12.3860 C.3       9 GLL5        0.0000 
     54 CA         34.3215   -6.9740   11.6245 C.3       3 GLC5        0.0000 
     55 CA         31.2260   -5.2175   13.5800 C.3       3 GLC5        0.0000 
     56 CA         25.6848   -9.3565   11.0302 C.3       3 GLC5        0.0000 
     57 CA         25.7750   -8.8060   13.0290 C.3       9 GLL5        0.0000 
     58 CA         26.2570  -10.2090    9.2860 C.3       6 GLP5        0.0000 
@<TRIPOS>BOND
@<TRIPOS>SUBSTRUCTURE
     1 ALC1        1 GROUP        1 X    ALC  0     ROOT ALC X 1
     2 SEC2        6 GROUP        1 X    SEC  0     **** SEC X 2
     3 GLC5       12 GROUP        1 X    GLC  0     **** GLC X 6
     4 ALP1        3 GROUP        1 Y    ALP  0     ROOT ALP Y 8
     5 SEP2        8 GROUP        1 Y    SEP  0     **** SEP Y 9
     6 GLP5       14 GROUP        1 Y    GLP  0     **** GLP Y 13
     7 ALL1        2 GROUP        1 Z    ALL  0     ROOT ALL Z 15
     8 SEL2        7 GROUP        1 Z    SEL  0     **** SEL Z 16
     9 GLL5       13 GROUP        1 Z    GLL  0     **** GLL Z 20
@<TRIPOS>SET

