#    Name: 3ha5_SFG_1_ligand
#    Modification time : Tue Mar 25 13:47:49 2014

@<TRIPOS>MOLECULE
3ha5_SFG_1_ligand
   48    50     1     0     0
SMALL
NO_CHARGES


@<TRIPOS>ATOM
      1 N          24.4420   -6.7220   12.4410 N.4       1 SFG302      0.0000 
      2 CA         24.4500   -8.2020   12.5200 C.3       1 SFG302      0.0000 
      3 C          23.2400   -8.8010   13.2260 C.2       1 SFG302      0.0000 
      4 O          22.4720   -8.1400   13.9450 O.co2     1 SFG302      0.0000 
      5 OXT        22.9760  -10.0050   13.0350 O.co2     1 SFG302      0.0000 
      6 CB         25.7750   -8.8060   13.0290 C.3       1 SFG302      0.0000 
      7 CG         26.0750   -8.5140   14.4900 C.3       1 SFG302      0.0000 
      8 CD         27.2920   -9.3050   14.9750 C.3       1 SFG302      0.0000 
      9 NE         27.2000   -9.3730   16.4220 N.3       1 SFG302      0.0000 
     10 C5'        28.6960   -8.7140   14.7810 C.3       1 SFG302      0.0000 
     11 C4'        29.1530   -8.4450   13.3520 C.3       1 SFG302      0.0000 
     12 O4'        30.1200   -7.3770   13.4520 O.3       1 SFG302      0.0000 
     13 C3'        29.8230   -9.5750   12.5520 C.3       1 SFG302      0.0000 
     14 O3'        29.4220   -9.3710   11.1450 O.3       1 SFG302      0.0000 
     15 C2'        31.3140   -9.2310   12.6940 C.3       1 SFG302      0.0000 
     16 O2'        32.0750   -9.6440   11.5410 O.3       1 SFG302      0.0000 
     17 C1'        31.2360   -7.6980   12.6540 C.3       1 SFG302      0.0000 
     18 N9         32.4300   -6.9490   13.0920 N.pl3     1 SFG302      0.0000 
     19 C8         33.1900   -7.1600   14.1770 C.2       1 SFG302      0.0000 
     20 N7         34.1760   -6.2440   14.2070 N.2       1 SFG302      0.0000 
     21 C5         34.0730   -5.4290   13.1200 C.ar      1 SFG302      0.0000 
     22 C6         34.7900   -4.2490   12.5410 C.ar      1 SFG302      0.0000 
     23 N6         35.8790   -3.7080   13.1050 N.pl3     1 SFG302      0.0000 
     24 N1         34.3130   -3.7100   11.4120 N.ar      1 SFG302      0.0000 
     25 C2         33.2350   -4.2170   10.7810 C.ar      1 SFG302      0.0000 
     26 N3         32.5430   -5.2870   11.2500 N.ar      1 SFG302      0.0000 
     27 C4         32.9120   -5.9190   12.3860 C.ar      1 SFG302      0.0000 
     28 H          24.3685   -8.5830   11.4337 H         1 SFG302      0.0000 
     29 H          26.5972   -8.4190   12.4035 H         1 SFG302      0.0000 
     30 H          25.7421   -9.8978   12.8747 H         1 SFG302      0.0000 
     31 H          25.2104   -8.7823   15.0992 H         1 SFG302      0.0000 
     32 H          26.2709   -7.4479   14.6147 H         1 SFG302      0.0000 
     33 H          27.2751  -10.3017   14.5888 H         1 SFG302      0.0000 
     34 H          29.4334   -9.3967   15.2700 H         1 SFG302      0.0000 
     35 H          28.7577   -7.7612   15.3618 H         1 SFG302      0.0000 
     36 H          28.3028   -8.0704   12.7784 H         1 SFG302      0.0000 
     37 H          29.6050  -10.4724   12.9393 H         1 SFG302      0.0000 
     38 H          31.6664   -9.5273   13.6029 H         1 SFG302      0.0000 
     39 H          30.9976   -7.4316   11.6058 H         1 SFG302      0.0000 
     40 H          33.0532   -7.8603   14.8366 H         1 SFG302      0.0000 
     41 H          35.9598   -3.8136   14.0961 H         1 SFG302      0.0000 
     42 H          36.5132   -3.2472   12.4842 H         1 SFG302      0.0000 
     43 H          32.9102   -3.7636    9.8793 H         1 SFG302      0.0000 
     44 H          25.2507   -6.3709   11.9690 H         1 SFG302      0.0000 
     45 H          23.6427   -6.3808   11.9463 H         1 SFG302      0.0000 
     46 H          24.4266   -6.3017   13.3483 H         1 SFG302      0.0000 
     47 H          30.2639   -9.1137   10.6707 H         1 SFG302      0.0000 
     48 H          33.0244   -9.4245   11.7655 H         1 SFG302      0.0000 
@<TRIPOS>BOND
     1    2    1 1    
     2   44    1 1    
     3   45    1 1    
     4   46    1 1    
     5    3    2 1    
     6    6    2 1    
     7   28    2 1    
     8    4    3 ar   
     9    5    3 ar   
    10    7    6 1    
    11   29    6 1    
    12   30    6 1    
    13    8    7 1    
    14   31    7 1    
    15   32    7 1    
    16    9    8 1    
    17   10    8 1    
    18   33    8 1    
    19   11   10 1    
    20   34   10 1    
    21   35   10 1    
    22   12   11 1    
    23   13   11 1    
    24   36   11 1    
    25   17   12 1    
    26   14   13 1    
    27   15   13 1    
    28   37   13 1    
    29   47   14 1    
    30   16   15 1    
    31   17   15 1    
    32   38   15 1    
    33   48   16 1    
    34   18   17 1    
    35   39   17 1    
    36   19   18 1    
    37   27   18 1    
    38   20   19 2    
    39   40   19 1    
    40   21   20 1    
    41   22   21 ar   
    42   27   21 ar   
    43   23   22 1    
    44   24   22 ar   
    45   41   23 1    
    46   42   23 1    
    47   25   24 ar   
    48   26   25 ar   
    49   43   25 1    
    50   27   26 ar   
@<TRIPOS>SUBSTRUCTURE
     1 SFG302      1 GROUP   
@<TRIPOS>SET

