#    Name: 4bfy_ZVY_2_INTS_M
#    Modification time : Tue Mar 25 07:40:15 2014

@<TRIPOS>MOLECULE
4bfy_ZVY_2_INTS_M
   57     0     9     0     0
SMALL
NO_CHARGES


@<TRIPOS>ATOM
      1 N         -72.4165  -12.3865   22.1395 N.am      1 SEC2        0.0000 
      2 N         -71.7470  -12.4850   20.9660 N.am      7 SEL2        0.0000 
      3 N         -73.0860  -12.2880   23.3130 N.am      4 SEP2        0.0000 
      4 NZ        -70.9780  -14.3290   18.6020 N.4       2 LYC4        0.0000 
      5 NZ        -71.6090  -13.1440   18.8760 N.4       8 LYL4        0.0000 
      6 NZ        -70.9070  -16.6310   17.8730 N.4       5 LYP4        0.0000 
      7 N         -71.3595  -11.7185   17.9530 N.am      1 SEC2        0.0000 
      8 N         -71.6090  -13.1440   18.8760 N.am      7 SEL2        0.0000 
      9 N         -71.1100  -10.2930   17.0300 N.am      4 SEP2        0.0000 
     10 N         -70.9780  -14.3290   18.6020 N.am      1 SEC2        0.0000 
     11 N         -70.3470  -15.5140   18.3280 N.am      4 SEP2        0.0000 
     12 CA        -64.9125  -11.7825   24.2810 C.3       3 GLC5        0.0000 
     13 CA        -64.9220  -13.7290   23.4800 C.3       9 GLL5        0.0000 
     14 CA        -64.9030   -9.8360   25.0820 C.3       6 GLP5        0.0000 
     15 CA        -66.1705  -10.4315   23.5415 C.3       3 GLC5        0.0000 
     16 CA        -67.4380  -11.0270   22.0010 C.3       9 GLL5        0.0000 
     17 CA        -72.0930  -11.1760   17.6155 C.3       3 GLC5        0.0000 
     18 CA        -72.9940  -11.2720   19.3120 C.3       9 GLL5        0.0000 
     19 CA        -71.1920  -11.0800   15.9190 C.3       6 GLP5        0.0000 
     20 CA        -74.2595  -10.7310   18.3135 C.3       3 GLC5        0.0000 
     21 CA        -75.5250  -10.1900   17.3150 C.3       6 GLP5        0.0000 
     22 CA        -74.0500  -12.9935   19.7860 C.3       3 GLC5        0.0000 
     23 CA        -75.1060  -14.7150   20.2600 C.3       6 GLP5        0.0000 
     24 CA        -74.8740  -11.0515   20.3195 C.3       3 GLC5        0.0000 
     25 CA        -76.7540  -10.8310   21.3270 C.3       6 GLP5        0.0000 
     26 CA        -68.1070   -6.4915   19.3735 C.3       3 GLC5        0.0000 
     27 CA        -68.8980   -8.1700   20.1860 C.3       9 GLL5        0.0000 
     28 CA        -67.3160   -4.8130   18.5610 C.3       6 GLP5        0.0000 
     29 CA        -68.7660   -5.3460   20.0270 C.3       3 GLC5        0.0000 
     30 CA        -70.2160   -5.8790   21.4930 C.3       9 GLL5        0.0000 
     31 CA        -63.3370  -13.3300   24.6242 C.3       3 GLC5        0.0000 
     32 CA        -62.3460  -12.7440   26.0920 C.3       6 GLP5        0.0000 
     33 CA        -62.1045  -11.8357   21.2103 C.3       3 GLC5        0.0000 
     34 CA        -63.2800  -13.3840   21.7260 C.3       9 GLL5        0.0000 
     35 CA        -60.5390  -10.8270   20.9200 C.3       6 GLP5        0.0000 
     36 CA        -62.4575  -13.3357   20.0472 C.3       3 GLC5        0.0000 
     37 CA        -61.2450  -13.8270   18.5940 C.3       6 GLP5        0.0000 
     38 CA        -64.1410  -10.8575   22.9642 C.3       3 GLC5        0.0000 
     39 CA        -64.0600  -12.3050   21.2750 C.3       9 GLL5        0.0000 
     40 CA        -63.6190   -9.5820   24.3260 C.3       6 GLP5        0.0000 
     41 CA        -66.3164   -3.1326   21.6599 C.3       3 GLC5        0.0000 
     42 CA        -68.1290   -4.6310   21.5100 C.3       9 GLL5        0.0000 
     43 CA        -64.3930   -2.4460   21.4490 C.3       6 GLP5        0.0000 
     44 CA        -69.4053  -10.8870   23.0945 C.3       3 GLC5        0.0000 
     45 CA        -68.0750   -9.6610   21.8870 C.3       9 GLL5        0.0000 
     46 CA        -71.0540  -11.4300   24.2450 C.3       6 GLP5        0.0000 
     47 CA        -65.6545   -8.3175   18.9432 C.3       3 GLC5        0.0000 
     48 CA        -66.8340   -9.2670   19.8020 C.3       9 GLL5        0.0000 
     49 CA        -64.8900   -6.7370   17.9540 C.3       6 GLP5        0.0000 
     50 CA        -70.1646   -7.6690   18.7460 C.3       3 GLC5        0.0000 
     51 CA        -70.4960   -6.8930   17.1760 C.3       6 GLP5        0.0000 
     52 CA        -67.9591   -4.5901   20.1459 C.3       3 GLC5        0.0000 
     53 CA        -72.9186   -7.1073   19.5203 C.3       3 GLC5        0.0000 
     54 CA        -72.3070   -7.0660   21.5190 C.3       9 GLL5        0.0000 
     55 CA        -73.2240   -5.7560   18.0240 C.3       6 GLP5        0.0000 
     56 CA        -70.5392   -6.6745   19.2587 C.3       3 GLC5        0.0000 
     57 CA        -70.9490   -7.0330   21.1900 C.3       9 GLL5        0.0000 
@<TRIPOS>BOND
@<TRIPOS>SUBSTRUCTURE
     1 SEC2        1 GROUP        1 X    SEC  0     ROOT SEC X 2
     2 LYC4        4 GROUP        1 X    LYC  0     **** LYC X 4
     3 GLC5       12 GROUP        1 X    GLC  0     **** GLC X 6
     4 SEP2        3 GROUP        1 Y    SEP  0     ROOT SEP Y 9
     5 LYP4        6 GROUP        1 Y    LYP  0     **** LYP Y 11
     6 GLP5       14 GROUP        1 Y    GLP  0     **** GLP Y 13
     7 SEL2        2 GROUP        1 Z    SEL  0     ROOT SEL Z 16
     8 LYL4        5 GROUP        1 Z    LYL  0     **** LYL Z 18
     9 GLL5       13 GROUP        1 Z    GLL  0     **** GLL Z 20
@<TRIPOS>SET

