#    Name: 4bfy_ZVY_2_ligand
#    Modification time : Tue Mar 25 07:40:15 2014

@<TRIPOS>MOLECULE
4bfy_ZVY_2_ligand
   56    59     1     0     0
SMALL
NO_CHARGES


@<TRIPOS>ATOM
      1 NAA       -67.3400   -1.5660   22.6720 N.1       1 ZVY501      0.0000 
      2 OAB       -71.7470  -12.4850   20.9660 O.co2     1 ZVY501      0.0000 
      3 OAC       -71.6090  -13.1440   18.8760 O.co2     1 ZVY501      0.0000 
      4 CAD       -68.0000   -2.4820   22.3710 C.1       1 ZVY501      0.0000 
      5 CAE       -63.7340  -14.1030   22.8330 C.ar      1 ZVY501      0.0000 
      6 CAF       -63.2800  -13.3840   21.7260 C.ar      1 ZVY501      0.0000 
      7 CAG       -64.9220  -13.7290   23.4800 C.ar      1 ZVY501      0.0000 
      8 CAH       -64.0600  -12.3050   21.2750 C.ar      1 ZVY501      0.0000 
      9 CAI       -70.0450   -3.6270   22.3710 C.ar      1 ZVY501      0.0000 
     10 CAJ       -68.1290   -4.6310   21.5100 C.ar      1 ZVY501      0.0000 
     11 CAK       -73.0960   -8.1800   21.2510 C.ar      1 ZVY501      0.0000 
     12 CAL       -70.7860   -4.7770   22.0770 C.ar      1 ZVY501      0.0000 
     13 CAM       -68.8780   -5.7720   21.2290 C.ar      1 ZVY501      0.0000 
     14 CAN       -72.3070   -7.0660   21.5190 C.ar      1 ZVY501      0.0000 
     15 CAO       -71.1660   -9.2770   20.3110 C.ar      1 ZVY501      0.0000 
     16 CAP       -68.0750   -9.6610   21.8870 C.3       1 ZVY501      0.0000 
     17 CAQ       -66.8340   -9.2670   19.8020 C.3       1 ZVY501      0.0000 
     18 CAR       -67.4380  -11.0270   22.0010 C.3       1 ZVY501      0.0000 
     19 CAS       -66.0040  -10.5290   20.0630 C.3       1 ZVY501      0.0000 
     20 CAT       -72.9940  -11.2720   19.3120 C.3       1 ZVY501      0.0000 
     21 CAU       -68.8980   -8.1700   20.1860 C.3       1 ZVY501      0.0000 
     22 NAV       -65.6380  -12.6760   23.0290 N.ar      1 ZVY501      0.0000 
     23 OAW       -73.3130  -10.3890   20.3860 O.3       1 ZVY501      0.0000 
     24 CAX       -72.0540  -12.3720   19.7510 C.2       1 ZVY501      0.0000 
     25 CAY       -68.7010   -3.5330   22.0920 C.ar      1 ZVY501      0.0000 
     26 CAZ       -72.5250   -9.2940   20.6480 C.ar      1 ZVY501      0.0000 
     27 CBA       -70.2160   -5.8790   21.4930 C.ar      1 ZVY501      0.0000 
     28 CBB       -70.3710   -8.1630   20.5810 C.ar      1 ZVY501      0.0000 
     29 CBC       -65.2660  -11.9610   21.9300 C.ar      1 ZVY501      0.0000 
     30 CBD       -70.9490   -7.0330   21.1900 C.ar      1 ZVY501      0.0000 
     31 NBE       -68.1710   -9.4030   20.4420 N.4       1 ZVY501      0.0000 
     32 NBF       -66.0650  -10.8700   21.5180 N.3       1 ZVY501      0.0000 
     33 H         -63.1992  -14.9090   23.1779 H         1 ZVY501      0.0000 
     34 H         -62.4171  -13.6282   21.2596 H         1 ZVY501      0.0000 
     35 H         -65.2301  -14.2758   24.3019 H         1 ZVY501      0.0000 
     36 H         -63.7545  -11.7579   20.4614 H         1 ZVY501      0.0000 
     37 H         -70.5363   -2.8206   22.8158 H         1 ZVY501      0.0000 
     38 H         -67.1173   -4.6250   21.2686 H         1 ZVY501      0.0000 
     39 H         -74.0910   -8.1783   21.4968 H         1 ZVY501      0.0000 
     40 H         -71.8028   -4.7844   22.3141 H         1 ZVY501      0.0000 
     41 H         -68.3772   -6.5908   20.7895 H         1 ZVY501      0.0000 
     42 H         -72.7351   -6.2368   21.9748 H         1 ZVY501      0.0000 
     43 H         -70.7472  -10.1045   19.8548 H         1 ZVY501      0.0000 
     44 H         -67.4444   -8.9352   22.3649 H         1 ZVY501      0.0000 
     45 H         -69.0493   -9.6859   22.3375 H         1 ZVY501      0.0000 
     46 H         -66.9397   -9.1370   18.7268 H         1 ZVY501      0.0000 
     47 H         -66.3025   -8.4107   20.2123 H         1 ZVY501      0.0000 
     48 H         -67.9862  -11.7237   21.3882 H         1 ZVY501      0.0000 
     49 H         -67.4518  -11.3372   23.0329 H         1 ZVY501      0.0000 
     50 H         -64.9777  -10.3401   19.7638 H         1 ZVY501      0.0000 
     51 H         -66.4089  -11.3424   19.4689 H         1 ZVY501      0.0000 
     52 H         -72.5155  -10.7302   18.4745 H         1 ZVY501      0.0000 
     53 H         -73.9034  -11.7471   18.8983 H         1 ZVY501      0.0000 
     54 H         -68.4042   -7.3118   20.7115 H         1 ZVY501      0.0000 
     55 H         -68.8394   -7.9033   19.0988 H         1 ZVY501      0.0000 
     56 H         -68.6962  -10.2267   19.9576 H         1 ZVY501      0.0000 
@<TRIPOS>BOND
     1    4    1 3    
     2   24    2 ar   
     3   24    3 ar   
     4   25    4 1    
     5    6    5 ar   
     6    7    5 ar   
     7   33    5 1    
     8    8    6 ar   
     9   34    6 1    
    10   22    7 ar   
    11   35    7 1    
    12   29    8 ar   
    13   36    8 1    
    14   12    9 ar   
    15   25    9 ar   
    16   37    9 1    
    17   13   10 ar   
    18   25   10 ar   
    19   38   10 1    
    20   14   11 ar   
    21   26   11 ar   
    22   39   11 1    
    23   27   12 ar   
    24   40   12 1    
    25   27   13 ar   
    26   41   13 1    
    27   30   14 ar   
    28   42   14 1    
    29   26   15 ar   
    30   28   15 ar   
    31   43   15 1    
    32   18   16 1    
    33   31   16 1    
    34   44   16 1    
    35   45   16 1    
    36   19   17 1    
    37   31   17 1    
    38   46   17 1    
    39   47   17 1    
    40   32   18 1    
    41   48   18 1    
    42   49   18 1    
    43   32   19 1    
    44   50   19 1    
    45   51   19 1    
    46   23   20 1    
    47   24   20 1    
    48   52   20 1    
    49   53   20 1    
    50   28   21 1    
    51   31   21 1    
    52   54   21 1    
    53   55   21 1    
    54   29   22 ar   
    55   26   23 1    
    56   30   27 1    
    57   30   28 ar   
    58   32   29 1    
    59   56   31 1    
@<TRIPOS>SUBSTRUCTURE
     1 ZVY501      1 GROUP   
@<TRIPOS>SET

