#    Name: 3q8h_AO9_1_INTS_M
#    Modification time : Tue Mar 25 09:03:48 2014

@<TRIPOS>MOLECULE
3q8h_AO9_1_INTS_M
   52     0     9     0     0
SMALL
NO_CHARGES


@<TRIPOS>ATOM
      1 N          11.3410  -26.8370  -27.8585 N.am      2 SEC2        0.0000 
      2 N          10.2600  -27.1390  -26.7480 N.am      8 SEL2        0.0000 
      3 N          12.4220  -26.5350  -28.9690 N.am      5 SEP2        0.0000 
      4 N          10.3650  -27.7670  -28.0245 N.am      2 SEC2        0.0000 
      5 N          10.4700  -28.3950  -29.3010 N.am      5 SEP2        0.0000 
      6 N          12.3290  -26.4780  -27.5290 N.am      2 SEC2        0.0000 
      7 N          12.2360  -26.4210  -26.0890 N.am      8 SEL2        0.0000 
      8 O          15.2745  -25.2705  -24.4425 O.2       1 ALC1        0.0000 
      9 O          14.2700  -25.5920  -25.4710 O.2       7 ALL1        0.0000 
     10 O          16.2790  -24.9490  -23.4140 O.2       4 ALP1        0.0000 
     11 O          14.5305  -24.9265  -26.7660 O.2       1 ALC1        0.0000 
     12 O          14.7910  -24.2610  -28.0610 O.2       4 ALP1        0.0000 
     13 O           8.5090  -31.1835  -23.6225 O.2       1 ALC1        0.0000 
     14 O           9.5410  -30.0190  -24.2760 O.2       7 ALL1        0.0000 
     15 O           7.4770  -32.3480  -22.9690 O.2       4 ALP1        0.0000 
     16 O           9.5230  -31.3180  -24.0115 O.2       1 ALC1        0.0000 
     17 O           9.5050  -32.6170  -23.7470 O.2       4 ALP1        0.0000 
     18 O           7.4305  -30.9650  -23.3000 O.2       1 ALC1        0.0000 
     19 O           7.3840  -29.5820  -23.6310 O.2       7 ALL1        0.0000 
     20 CA          5.6970  -29.1235  -19.8060 C.3       3 GLC5        0.0000 
     21 CA          6.3720  -28.0510  -18.1080 C.3       9 GLL5        0.0000 
     22 CA          5.0220  -30.1960  -21.5040 C.3       6 GLP5        0.0000 
     23 CA          4.3725  -26.1460  -17.4605 C.3       3 GLC5        0.0000 
     24 CA          3.6970  -27.9800  -17.7810 C.3       9 GLL5        0.0000 
     25 CA          5.0480  -24.3120  -17.1400 C.3       6 GLP5        0.0000 
     26 CA         12.5388  -28.4470  -24.3745 C.3       3 GLC5        0.0000 
     27 CA         11.5310  -26.8870  -23.5870 C.3       9 GLL5        0.0000 
     28 CA         12.9300  -30.2700  -25.0300 C.3       6 GLP5        0.0000 
     29 CA         12.9637  -27.7315  -22.2260 C.3       3 GLC5        0.0000 
     30 CA         13.7800  -28.8390  -20.7330 C.3       6 GLP5        0.0000 
     31 CA         12.6613  -25.2240  -22.4435 C.3       3 GLC5        0.0000 
     32 CA         12.7640  -26.3610  -23.8510 C.3       9 GLL5        0.0000 
     33 CA         13.1750  -23.8240  -21.1680 C.3       6 GLP5        0.0000 
     34 CA         11.1822  -29.2997  -24.4155 C.3       3 GLC5        0.0000 
     35 CA          9.3860  -27.7050  -24.2080 C.3       9 GLL5        0.0000 
     36 CA          6.3053  -26.5735  -16.8987 C.3       3 GLC5        0.0000 
     37 CA          5.7710  -24.9230  -16.1700 C.3       6 GLP5        0.0000 
     38 CA          7.0337  -30.0385  -17.8702 C.3       3 GLC5        0.0000 
     39 CA          7.2280  -31.8530  -18.1130 C.3       6 GLP5        0.0000 
     40 CA          5.1322  -30.5877  -15.6505 C.3       3 GLC5        0.0000 
     41 CA          5.3360  -28.5610  -16.2540 C.3       9 GLL5        0.0000 
     42 CA          5.6060  -32.5020  -15.4890 C.3       6 GLP5        0.0000 
     43 CA          2.3632  -29.7178  -14.8407 C.3       3 GLC5        0.0000 
     44 CA          3.9810  -28.7860  -15.3700 C.3       9 GLL5        0.0000 
     45 CA          1.2860  -30.9060  -13.6730 C.3       6 GLP5        0.0000 
     46 CA          4.5771  -26.9691  -15.5262 C.3       3 GLC5        0.0000 
     47 CA          2.9000  -28.2730  -16.6470 C.3       9 GLL5        0.0000 
     48 CA          5.3750  -25.4650  -14.8230 C.3       6 GLP5        0.0000 
     49 CA          1.9632  -29.5652  -17.6745 C.3       3 GLC5        0.0000 
     50 CA          0.6280  -31.0040  -18.1350 C.3       6 GLP5        0.0000 
     51 CA          6.4916  -28.8629  -21.7073 C.3       3 GLC5        0.0000 
     52 CA          7.9070  -26.8340  -21.2020 C.3       9 GLL5        0.0000 
@<TRIPOS>BOND
@<TRIPOS>SUBSTRUCTURE
     1 ALC1        8 GROUP        1 X    ALC  0     ROOT ALC X 1
     2 SEC2        1 GROUP        1 X    SEC  0     **** SEC X 2
     3 GLC5       20 GROUP        1 X    GLC  0     **** GLC X 6
     4 ALP1       10 GROUP        1 Y    ALP  0     ROOT ALP Y 8
     5 SEP2        3 GROUP        1 Y    SEP  0     **** SEP Y 9
     6 GLP5       22 GROUP        1 Y    GLP  0     **** GLP Y 13
     7 ALL1        9 GROUP        1 Z    ALL  0     ROOT ALL Z 15
     8 SEL2        2 GROUP        1 Z    SEL  0     **** SEL Z 16
     9 GLL5       21 GROUP        1 Z    GLL  0     **** GLL Z 20
@<TRIPOS>SET

