#    Name: 3q8h_AO9_1_ligand
#    Modification time : Tue Mar 25 09:03:48 2014

@<TRIPOS>MOLECULE
3q8h_AO9_1_ligand
   44    47     1     0     0
SMALL
NO_CHARGES


@<TRIPOS>ATOM
      1 N1         10.6920  -27.1610  -24.5350 N.am      1 AO9165      0.0000 
      2 C2         11.0360  -26.9040  -25.8430 C.2       1 AO9165      0.0000 
      3 O2         10.2600  -27.1390  -26.7480 O.2       1 AO9165      0.0000 
      4 N3         12.2360  -26.4210  -26.0890 N.2       1 AO9165      0.0000 
      5 C4         13.0950  -26.1120  -25.1480 C.2       1 AO9165      0.0000 
      6 N4         14.2700  -25.5920  -25.4710 N.pl3     1 AO9165      0.0000 
      7 C5         12.7640  -26.3610  -23.8510 C.2       1 AO9165      0.0000 
      8 C6         11.5310  -26.8870  -23.5870 C.2       1 AO9165      0.0000 
      9 C1'         9.3860  -27.7050  -24.2080 C.3       1 AO9165      0.0000 
     10 C2'         9.4830  -28.9540  -23.3940 C.3       1 AO9165      0.0000 
     11 O2'         9.5410  -30.0190  -24.2760 O.3       1 AO9165      0.0000 
     12 C3'         8.1980  -28.9620  -22.6810 C.3       1 AO9165      0.0000 
     13 O3'         7.3840  -29.5820  -23.6310 O.3       1 AO9165      0.0000 
     14 C30         6.4790  -27.6040  -19.4730 C.2       1 AO9165      0.0000 
     15 O31         5.5470  -27.1500  -20.0290 O.2       1 AO9165      0.0000 
     16 C32         6.3720  -28.0510  -18.1080 C.2       1 AO9165      0.0000 
     17 N33         5.0490  -28.1900  -17.4690 N.pl3     1 AO9165      0.0000 
     18 C34         5.3360  -28.5610  -16.2540 C.2       1 AO9165      0.0000 
     19 N35         6.6620  -28.7440  -16.0020 N.pl3     1 AO9165      0.0000 
     20 C36         7.3070  -28.3970  -17.1470 C.2       1 AO9165      0.0000 
     21 S37         3.9810  -28.7860  -15.3700 S.3       1 AO9165      0.0000 
     22 C38         2.9000  -28.2730  -16.6470 C.2       1 AO9165      0.0000 
     23 C39         3.6970  -27.9800  -17.7810 C.2       1 AO9165      0.0000 
     24 C4'         7.8330  -27.4890  -22.5570 C.3       1 AO9165      0.0000 
     25 O4'         8.7800  -26.8110  -23.3340 O.3       1 AO9165      0.0000 
     26 C5'         7.9070  -26.8340  -21.2020 C.3       1 AO9165      0.0000 
     27 N5'         7.6440  -27.6660  -20.0620 N.am      1 AO9165      0.0000 
     28 H          14.4231  -25.4214  -26.4444 H         1 AO9165      0.0000 
     29 H          14.8974  -25.4172  -24.7122 H         1 AO9165      0.0000 
     30 H          13.4216  -26.1597  -23.0903 H         1 AO9165      0.0000 
     31 H          11.2844  -27.0639  -22.5717 H         1 AO9165      0.0000 
     32 H           8.7995  -27.8804  -25.0615 H         1 AO9165      0.0000 
     33 H          10.2761  -28.8740  -22.7303 H         1 AO9165      0.0000 
     34 H           8.2704  -29.4186  -21.7857 H         1 AO9165      0.0000 
     35 H           7.0511  -29.0491  -15.1973 H         1 AO9165      0.0000 
     36 H           8.2591  -28.3884  -17.2826 H         1 AO9165      0.0000 
     37 H           2.0452  -28.2610  -16.4395 H         1 AO9165      0.0000 
     38 H           3.3612  -27.6873  -18.6190 H         1 AO9165      0.0000 
     39 H           6.8498  -27.3325  -22.9796 H         1 AO9165      0.0000 
     40 H           7.2034  -25.9520  -21.2128 H         1 AO9165      0.0000 
     41 H           8.9255  -26.3570  -21.1111 H         1 AO9165      0.0000 
     42 H           8.4084  -28.2898  -19.7543 H         1 AO9165      0.0000 
     43 H           9.4955  -30.8349  -23.6997 H         1 AO9165      0.0000 
     44 H           7.4210  -30.5559  -23.4072 H         1 AO9165      0.0000 
@<TRIPOS>BOND
     1    2    1 am   
     2    8    1 1    
     3    9    1 1    
     4    3    2 2    
     5    4    2 1    
     6    5    4 2    
     7    6    5 1    
     8    7    5 1    
     9   28    6 1    
    10   29    6 1    
    11    8    7 2    
    12   30    7 1    
    13   31    8 1    
    14   10    9 1    
    15   25    9 1    
    16   32    9 1    
    17   11   10 1    
    18   12   10 1    
    19   33   10 1    
    20   43   11 1    
    21   13   12 1    
    22   24   12 1    
    23   34   12 1    
    24   44   13 1    
    25   15   14 2    
    26   16   14 1    
    27   27   14 am   
    28   17   16 1    
    29   20   16 2    
    30   18   17 1    
    31   23   17 1    
    32   19   18 2    
    33   21   18 1    
    34   20   19 1    
    35   35   19 1    
    36   36   20 1    
    37   22   21 1    
    38   23   22 2    
    39   37   22 1    
    40   38   23 1    
    41   25   24 1    
    42   26   24 1    
    43   39   24 1    
    44   27   26 1    
    45   40   26 1    
    46   41   26 1    
    47   42   27 1    
@<TRIPOS>SUBSTRUCTURE
     1 AO9165      1 GROUP   
@<TRIPOS>SET

