#    Name: 3th8_TH9_1_INTS_M
#    Modification time : Mon Mar 24 20:05:46 2014

@<TRIPOS>MOLECULE
3th8_TH9_1_INTS_M
   56     0     9     0     0
SMALL
NO_CHARGES


@<TRIPOS>ATOM
      1 CA        -11.1755   -4.0065   -1.2275 C.3       3 GLC5        0.0000 
      2 CA        -13.0810   -4.1000   -0.2720 C.3       9 GLL5        0.0000 
      3 CA         -9.2700   -3.9130   -2.1830 C.3       6 GLP5        0.0000 
      4 CA        -14.1665   -4.2430   -2.2060 C.3       3 GLC5        0.0000 
      5 CA        -15.2520   -4.3860   -4.1400 C.3       6 GLP5        0.0000 
      6 NZ         -5.1225    9.7640   -1.9490 N.4       2 LYC4        0.0000 
      7 NZ         -3.6140    9.2780   -2.0070 N.4       8 LYL4        0.0000 
      8 NZ         -6.7250   11.3370   -2.6500 N.4       5 LYP4        0.0000 
      9 N          -3.6825    9.2795   -3.3650 N.am      1 SEC2        0.0000 
     10 N          -3.6140    9.2780   -2.0070 N.am      7 SEL2        0.0000 
     11 N          -3.7510    9.2810   -4.7230 N.am      4 SEP2        0.0000 
     12 N          -5.1225    9.7640   -1.9490 N.am      1 SEC2        0.0000 
     13 N          -6.6310   10.2500   -1.8910 N.am      4 SEP2        0.0000 
     14 CA         -5.0635    7.0235   -2.7690 C.3       3 GLC5        0.0000 
     15 CA         -5.4040    7.6160   -1.0690 C.3       9 GLL5        0.0000 
     16 CA         -4.7230    6.4310   -4.4690 C.3       6 GLP5        0.0000 
     17 CA         -9.6240    1.2260   -4.9225 C.3       3 GLC5        0.0000 
     18 CA         -9.5090    2.6680   -3.6940 C.3       9 GLL5        0.0000 
     19 CA         -9.7390   -0.2160   -6.1510 C.3       6 GLP5        0.0000 
     20 CA         -8.3140    0.8375   -0.1135 C.3       3 GLC5        0.0000 
     21 CA         -9.7260    1.7200   -1.4990 C.3       9 GLL5        0.0000 
     22 CA         -6.9020   -0.0450    1.2720 C.3       6 GLP5        0.0000 
     23 CA         -9.4325    2.1870    0.5215 C.3       3 GLC5        0.0000 
     24 CA         -9.1390    2.6540    2.5420 C.3       6 GLP5        0.0000 
     25 CA        -14.9315   -0.5480   -1.2015 C.3       3 GLC5        0.0000 
     26 CA        -13.4890   -1.6040    0.1180 C.3       9 GLL5        0.0000 
     27 CA        -16.3740    0.5080   -2.5210 C.3       6 GLP5        0.0000 
     28 CA         -5.6190    2.3460   -0.4130 C.3       3 GLC5        0.0000 
     29 CA         -7.2220    3.5680   -1.1820 C.3       9 GLL5        0.0000 
     30 CA         -4.0160    1.1240    0.3560 C.3       6 GLP5        0.0000 
     31 CA         -8.1805    3.1110    0.6800 C.3       3 GLC5        0.0000 
     32 CA         -8.8030    6.3505   -2.7505 C.3       3 GLC5        0.0000 
     33 CA         -8.0260    4.9030   -1.2260 C.3       9 GLL5        0.0000 
     34 CA         -9.5800    7.7980   -4.2750 C.3       6 GLP5        0.0000 
     35 CA         -7.2285    1.2415   -0.5155 C.3       3 GLC5        0.0000 
     36 CA         -7.5550    2.5280   -2.3030 C.3       9 GLL5        0.0000 
     37 CA         -5.8760    1.7205   -2.9660 C.3       3 GLC5        0.0000 
     38 CA         -4.1970    0.9130   -3.6290 C.3       6 GLP5        0.0000 
     39 CA         -3.7060    7.9895    1.7220 C.3       3 GLC5        0.0000 
     40 CA         -4.5970    8.4970   -0.1180 C.3       9 GLL5        0.0000 
     41 CA         -2.8150    7.4820    3.5620 C.3       6 GLP5        0.0000 
     42 CA        -12.4348   -3.8972    1.7657 C.3       3 GLC5        0.0000 
     43 CA        -11.3720   -4.2250    3.4280 C.3       6 GLP5        0.0000 
     44 CA         -9.8825    4.1372   -5.2025 C.3       3 GLC5        0.0000 
     45 CA        -10.8670    2.4850   -3.9440 C.3       9 GLL5        0.0000 
     46 CA         -9.5770    5.6980   -6.5860 C.3       6 GLP5        0.0000 
     47 CA        -11.2315    1.2127   -5.0055 C.3       3 GLC5        0.0000 
     48 CA        -11.1950    0.2290   -6.5550 C.3       6 GLP5        0.0000 
     49 CA        -10.5805    1.7123    1.7755 C.3       3 GLC5        0.0000 
     50 CA        -12.3450    0.2330    1.4530 C.3       9 GLL5        0.0000 
     51 CA        -12.5514   -1.1921    2.6921 C.3       3 GLC5        0.0000 
     52 CA        -12.5120   -1.8070    4.4250 C.3       6 GLP5        0.0000 
     53 CA         -7.4834    2.1963   -4.4985 C.3       3 GLC5        0.0000 
     54 CA         -6.5790    1.8850   -6.3000 C.3       6 GLP5        0.0000 
     55 CA         -8.2080    0.2607   -2.3021 C.3       3 GLC5        0.0000 
     56 CA         -7.9740   -1.7490   -2.4560 C.3       6 GLP5        0.0000 
@<TRIPOS>BOND
@<TRIPOS>SUBSTRUCTURE
     1 SEC2        9 GROUP        1 X    SEC  0     ROOT SEC X 2
     2 LYC4        6 GROUP        1 X    LYC  0     **** LYC X 4
     3 GLC5        1 GROUP        1 X    GLC  0     **** GLC X 6
     4 SEP2       11 GROUP        1 Y    SEP  0     ROOT SEP Y 9
     5 LYP4        8 GROUP        1 Y    LYP  0     **** LYP Y 11
     6 GLP5        3 GROUP        1 Y    GLP  0     **** GLP Y 13
     7 SEL2       10 GROUP        1 Z    SEL  0     ROOT SEL Z 16
     8 LYL4        7 GROUP        1 Z    LYL  0     **** LYL Z 18
     9 GLL5        2 GROUP        1 Z    GLL  0     **** GLL Z 20
@<TRIPOS>SET

