#    Name: 3th8_TH9_1_ligand
#    Modification time : Mon Mar 24 20:05:47 2014

@<TRIPOS>MOLECULE
3th8_TH9_1_ligand
   51    51     1     0     0
SMALL
NO_CHARGES


@<TRIPOS>ATOM
      1 CAA       -13.0810   -4.1000   -0.2720 C.3       1 TH9289      0.0000 
      2 OAB        -3.6140    9.2780   -2.0070 O.co2     1 TH9289      0.0000 
      3 OAC        -6.6200    6.6110    0.6770 O.2       1 TH9289      0.0000 
      4 OAD        -2.9090   10.1880   -0.1470 O.co2     1 TH9289      0.0000 
      5 OAE        -4.7130    8.5600    1.2270 O.3       1 TH9289      0.0000 
      6 CAF        -5.4040    7.6160   -1.0690 C.2       1 TH9289      0.0000 
      7 CAG       -10.8670    2.4850   -3.9440 C.ar      1 TH9289      0.0000 
      8 CAH        -9.5090    2.6680   -3.6940 C.ar      1 TH9289      0.0000 
      9 CAI       -11.6690    1.9080   -2.9680 C.ar      1 TH9289      0.0000 
     10 CAJ        -9.7260    1.7200   -1.4990 C.ar      1 TH9289      0.0000 
     11 CAK       -13.9140   -3.0390    0.4790 C.3       1 TH9289      0.0000 
     12 CAL       -13.4890   -1.6040    0.1180 C.3       1 TH9289      0.0000 
     13 CAM       -12.1840   -1.1710    0.8130 C.3       1 TH9289      0.0000 
     14 CAN       -12.3450    0.2330    1.4530 C.3       1 TH9289      0.0000 
     15 CAO        -7.2220    3.5680   -1.1820 C.3       1 TH9289      0.0000 
     16 CAP        -8.0260    4.9030   -1.2260 C.3       1 TH9289      0.0000 
     17 CAQ       -11.6990    1.3080    0.5650 C.3       1 TH9289      0.0000 
     18 CAR        -7.5550    2.5280   -2.3030 C.3       1 TH9289      0.0000 
     19 NAS        -7.0630    5.9830   -1.4660 N.am      1 TH9289      0.0000 
     20 OAT       -11.9400    0.9720   -0.8130 O.3       1 TH9289      0.0000 
     21 CAU        -3.6460    9.3780   -0.7900 C.2       1 TH9289      0.0000 
     22 CAV        -6.4510    6.6980   -0.5240 C.2       1 TH9289      0.0000 
     23 CAW        -4.5970    8.4970   -0.1180 C.2       1 TH9289      0.0000 
     24 CAX        -8.9320    2.3060   -2.4880 C.ar      1 TH9289      0.0000 
     25 CAY       -11.1000    1.5320   -1.7430 C.ar      1 TH9289      0.0000 
     26 H          -5.2247    7.6624   -2.0382 H         1 TH9289      0.0000 
     27 H         -11.2689    2.7741   -4.8406 H         1 TH9289      0.0000 
     28 H          -8.9130    3.0895   -4.4376 H         1 TH9289      0.0000 
     29 H         -12.6663    1.7562   -3.1355 H         1 TH9289      0.0000 
     30 H          -9.3206    1.4305   -0.6105 H         1 TH9289      0.0000 
     31 H         -13.7917   -3.1882    1.5534 H         1 TH9289      0.0000 
     32 H         -14.9677   -3.1733    0.2279 H         1 TH9289      0.0000 
     33 H         -14.2896   -0.9132    0.4034 H         1 TH9289      0.0000 
     34 H         -13.3535   -1.5350   -0.9667 H         1 TH9289      0.0000 
     35 H         -11.3833   -1.1349    0.0832 H         1 TH9289      0.0000 
     36 H         -11.9368   -1.8852    1.5900 H         1 TH9289      0.0000 
     37 H         -11.8657    0.2321    2.4253 H         1 TH9289      0.0000 
     38 H         -13.4015    0.4468    1.5679 H         1 TH9289      0.0000 
     39 H          -7.3914    3.0880   -0.2018 H         1 TH9289      0.0000 
     40 H          -6.1446    3.8047   -1.2371 H         1 TH9289      0.0000 
     41 H          -8.5244    5.0198   -0.2773 H         1 TH9289      0.0000 
     42 H          -8.7458    4.8288   -2.0250 H         1 TH9289      0.0000 
     43 H         -10.6344    1.3343    0.7944 H         1 TH9289      0.0000 
     44 H         -12.1398    2.2683    0.8300 H         1 TH9289      0.0000 
     45 H          -7.0094    1.5960   -2.0308 H         1 TH9289      0.0000 
     46 H          -7.0591    2.9019   -3.2275 H         1 TH9289      0.0000 
     47 H          -6.8722    6.1712   -2.4984 H         1 TH9289      0.0000 
     48 H         -12.1064   -4.0247   -0.0609 H         1 TH9289      0.0000 
     49 H         -13.3616   -5.0297   -0.0334 H         1 TH9289      0.0000 
     50 H         -13.1738   -4.0113   -1.2637 H         1 TH9289      0.0000 
     51 H          -4.9822    7.6385    1.5068 H         1 TH9289      0.0000 
@<TRIPOS>BOND
     1   11    1 1    
     2   48    1 1    
     3   49    1 1    
     4   50    1 1    
     5   21    2 ar   
     6   22    3 2    
     7   21    4 ar   
     8   23    5 1    
     9   51    5 1    
    10   22    6 1    
    11   23    6 2    
    12   26    6 1    
    13    8    7 ar   
    14    9    7 ar   
    15   27    7 1    
    16   24    8 ar   
    17   28    8 1    
    18   25    9 ar   
    19   29    9 1    
    20   24   10 ar   
    21   25   10 ar   
    22   30   10 1    
    23   12   11 1    
    24   31   11 1    
    25   32   11 1    
    26   13   12 1    
    27   33   12 1    
    28   34   12 1    
    29   14   13 1    
    30   35   13 1    
    31   36   13 1    
    32   17   14 1    
    33   37   14 1    
    34   38   14 1    
    35   16   15 1    
    36   18   15 1    
    37   39   15 1    
    38   40   15 1    
    39   19   16 1    
    40   41   16 1    
    41   42   16 1    
    42   20   17 1    
    43   43   17 1    
    44   44   17 1    
    45   24   18 1    
    46   45   18 1    
    47   46   18 1    
    48   22   19 am   
    49   47   19 1    
    50   25   20 1    
    51   23   21 1    
@<TRIPOS>SUBSTRUCTURE
     1 TH9289      1 GROUP   
@<TRIPOS>SET

