#    Name: 2ZFU_2_CAVITY_N1_ALL.mol2
#    Modification time : Tue Mar 11 05:40:25 2014

@<TRIPOS>MOLECULE
2ZFU_2_CAVITY_N1_ALL.mol2
   50     0     6     0     0
SMALL
NO_CHARGES


@<TRIPOS>ATOM
      1 CZ         17.7532    7.4122  -29.9705 C.ar      4 PHE5        0.0000 
      2 CZ         16.8017    6.3233  -30.3691 C.ar      4 PHE5        0.0000 
      3 CA         17.7825    5.8425  -31.3971 C.3       5 GLY6        0.0000 
      4 CA         16.8310    4.7536  -31.7957 C.3       5 GLY6        0.0000 
      5 CA         15.8794    3.6648  -32.1943 C.3       5 GLY6        0.0000 
      6 N          17.8008   12.3283  -32.2242 N.2       2 ALA2        0.0000 
      7 N          16.8492   11.2394  -32.6228 N.2       2 ALA2        0.0000 
      8 N          13.0138    8.4536  -32.7906 N.2       2 ALA2        0.0000 
      9 N          13.0431    6.8839  -34.2173 N.2       2 ALA2        0.0000 
     10 CZ         12.0915    5.7950  -34.6159 C.ar      4 PHE5        0.0000 
     11 N          18.0570   10.9835  -29.1622 N.2       2 ALA2        0.0000 
     12 N          19.0378   10.5027  -30.1902 N.2       2 ALA2        0.0000 
     13 NZ         17.1054    9.8946  -29.5608 N.2       3 LYS4        0.0000 
     14 CZ         18.0863    9.4139  -30.5888 C.ar      4 PHE5        0.0000 
     15 NZ         16.1539    8.8057  -29.9594 N.2       3 LYS4        0.0000 
     16 CA         17.1347    8.3250  -30.9874 C.3       5 GLY6        0.0000 
     17 CA         18.1155    7.8442  -32.0155 C.3       5 GLY6        0.0000 
     18 NZ         15.2023    7.7169  -30.3580 N.2       3 LYS4        0.0000 
     19 CA         16.1832    7.2361  -31.3861 C.3       5 GLY6        0.0000 
     20 CA         14.2508    6.6280  -30.7566 C.3       5 GLY6        0.0000 
     21 CA         15.2316    6.1472  -31.7847 C.3       5 GLY6        0.0000 
     22 CA         16.2124    5.6664  -32.8127 C.3       5 GLY6        0.0000 
     23 CA         14.2801    5.0583  -32.1833 C.3       5 GLY6        0.0000 
     24 CA         15.2609    4.5776  -33.2113 C.3       5 GLY6        0.0000 
     25 CA         16.2417    4.0968  -34.2394 C.3       5 GLY6        0.0000 
     26 CA         13.3285    3.9694  -32.5819 C.3       5 GLY6        0.0000 
     27 CA         14.3094    3.4887  -33.6099 C.3       5 GLY6        0.0000 
     28 CZ         19.3708   12.5044  -30.8086 C.ar      4 PHE5        0.0000 
     29 N          17.4385   11.8963  -30.1791 N.2       2 ALA2        0.0000 
     30 DU         18.4193   11.4155  -31.2072 H         6 CUB7        0.0000 
     31 OG         19.4001   10.9348  -32.2352 O.2       1 SER1        0.0000 
     32 N          16.4869   10.8074  -30.5778 N.2       2 ALA2        0.0000 
     33 N          17.4678   10.3267  -31.6058 N.2       2 ALA2        0.0000 
     34 OG         18.4486    9.8459  -32.6338 O.2       1 SER1        0.0000 
     35 CA         15.5354    9.7185  -30.9764 C.3       5 GLY6        0.0000 
     36 CA         16.5162    9.2378  -32.0044 C.3       5 GLY6        0.0000 
     37 CA         14.5838    8.6297  -31.3750 C.3       5 GLY6        0.0000 
     38 CA         15.5647    8.1489  -32.4030 C.3       5 GLY6        0.0000 
     39 CA         12.6515    8.0215  -30.7456 C.3       5 GLY6        0.0000 
     40 CA         13.6323    7.5408  -31.7736 C.3       5 GLY6        0.0000 
     41 N          14.6131    7.0600  -32.8017 N.2       2 ALA2        0.0000 
     42 CA         15.5939    6.5792  -33.8297 C.3       5 GLY6        0.0000 
     43 CA         11.6999    6.9327  -31.1442 C.3       5 GLY6        0.0000 
     44 CA         12.6808    6.4519  -32.1722 C.3       5 GLY6        0.0000 
     45 N          13.6616    5.9711  -33.2003 N.2       2 ALA2        0.0000 
     46 CA         14.6424    5.4903  -34.2283 C.3       5 GLY6        0.0000 
     47 CA         11.7292    5.3630  -32.5709 C.3       5 GLY6        0.0000 
     48 CZ         12.7100    4.8822  -33.5989 C.ar      4 PHE5        0.0000 
     49 O          13.6909    4.4015  -34.6269 O.2       2 ALA2        0.0000 
     50 CA         11.7585    3.7933  -33.9975 C.3       5 GLY6        0.0000 
@<TRIPOS>BOND
@<TRIPOS>SUBSTRUCTURE
     1 SER1       31 GROUP   
     2 ALA2        6 GROUP   
     3 LYS4       13 GROUP   
     4 PHE5        1 GROUP   
     5 GLY6        3 GROUP   
     6 CUB7       30 GROUP   
@<TRIPOS>SET

