#    Name: 2zfu_SAH_2_INTS_M
#    Modification time : Tue Mar 25 10:42:16 2014

@<TRIPOS>MOLECULE
2zfu_SAH_2_INTS_M
   77     0     9     0     0
SMALL
NO_CHARGES


@<TRIPOS>ATOM
      1 O          15.5630   13.9315  -30.4060 O.2       1 ALC1        0.0000 
      2 O          16.3450   15.0020  -30.7880 O.2       7 ALL1        0.0000 
      3 O          14.7810   12.8610  -30.0240 O.2       4 ALP1        0.0000 
      4 O          16.4570   14.9015  -32.2060 O.2       1 ALC1        0.0000 
      5 O          16.5690   14.8010  -33.6240 O.2       4 ALP1        0.0000 
      6 O          15.7430   16.1980  -30.3345 O.2       1 ALC1        0.0000 
      7 O          15.1410   17.3940  -29.8810 O.2       4 ALP1        0.0000 
      8 CA         15.7380   14.2765  -28.7055 C.3       3 GLC5        0.0000 
      9 CA         17.5130   14.8090  -29.9310 C.3       9 GLL5        0.0000 
     10 CA         13.9630   13.7440  -27.4800 C.3       6 GLP5        0.0000 
     11 CA         20.1330   13.4520  -30.3105 C.3       3 GLC5        0.0000 
     12 CA         18.0810   13.3990  -30.0960 C.3       9 GLL5        0.0000 
     13 CA         22.1850   13.5050  -30.5250 C.3       6 GLP5        0.0000 
     14 CA         18.6010   13.5075  -33.6065 C.3       3 GLC5        0.0000 
     15 CA         18.3790   12.9440  -31.5340 C.3       9 GLL5        0.0000 
     16 CA         18.8230   14.0710  -35.6790 C.3       6 GLP5        0.0000 
     17 CA         20.1920    9.5845  -31.1035 C.3       3 GLC5        0.0000 
     18 CA         19.2070   11.3250  -31.5740 C.3       9 GLL5        0.0000 
     19 CA         21.1770    7.8440  -30.6330 C.3       6 GLP5        0.0000 
     20 CA         16.3780   10.8090  -33.4920 C.3       3 GLC5        0.0000 
     21 CA         17.7620   10.4240  -32.1310 C.3       9 GLL5        0.0000 
     22 CA         14.9940   11.1940  -34.8530 C.3       6 GLP5        0.0000 
     23 CA         17.8545    8.7895  -33.3470 C.3       3 GLC5        0.0000 
     24 CA         17.9470    7.1550  -34.5630 C.3       6 GLP5        0.0000 
     25 CA         14.9310   10.6325  -30.5655 C.3       3 GLC5        0.0000 
     26 CA         16.8840    9.9950  -30.9730 C.3       9 GLL5        0.0000 
     27 CA         12.9780   11.2700  -30.1580 C.3       6 GLP5        0.0000 
     28 CA         15.4680   10.8345  -32.3605 C.3       3 GLC5        0.0000 
     29 CA         14.0520   11.6740  -33.7480 C.3       6 GLP5        0.0000 
     30 CA         19.3315    8.3475  -30.3930 C.3       3 GLC5        0.0000 
     31 CA         17.4860    8.8510  -30.1530 C.3       9 GLL5        0.0000 
     32 N          18.5295    9.2230  -28.0600 N.am      2 SEC2        0.0000 
     33 N          17.5140    9.1710  -28.7700 N.am      8 SEL2        0.0000 
     34 N          19.5450    9.2750  -27.3500 N.am      5 SEP2        0.0000 
     35 O          16.3280    9.4865  -28.1485 O.2       1 ALC1        0.0000 
     36 O          17.5140    9.1710  -28.7700 O.2       7 ALL1        0.0000 
     37 O          15.1420    9.8020  -27.5270 O.2       4 ALP1        0.0000 
     38 O          16.1685    8.4105  -28.0795 O.2       1 ALC1        0.0000 
     39 O          14.8230    7.6500  -27.3890 O.2       4 ALP1        0.0000 
     40 CA         17.2515    7.4245  -32.5040 C.3       3 GLC5        0.0000 
     41 CA         16.5560    7.6940  -30.4450 C.3       9 GLL5        0.0000 
     42 O          15.6030    7.2450  -28.3655 O.2       1 ALC1        0.0000 
     43 O          16.3830    6.8400  -29.3420 O.2       7 ALL1        0.0000 
     44 CA         14.1165    9.8375  -30.4890 C.3       3 GLC5        0.0000 
     45 CA         15.2550    8.4050  -30.8200 C.3       9 GLL5        0.0000 
     46 CA         13.2515    4.9435  -31.1015 C.3       3 GLC5        0.0000 
     47 CA         12.5400    6.3600  -32.1240 C.3       9 GLL5        0.0000 
     48 CA         13.9630    3.5270  -30.0790 C.3       6 GLP5        0.0000 
     49 CA         11.4245    4.6880  -30.5905 C.3       3 GLC5        0.0000 
     50 CA         11.2390    5.8950  -31.9680 C.3       9 GLL5        0.0000 
     51 CA         11.6100    3.4810  -29.2130 C.3       6 GLP5        0.0000 
     52 CA         10.0300    7.1940  -32.2940 C.3       3 GLC5        0.0000 
     53 CA          8.8210    8.4930  -32.6200 C.3       6 GLP5        0.0000 
     54 O           9.2355    4.5840  -32.5070 O.2       1 ALC1        0.0000 
     55 O          10.6430    5.0720  -32.8390 O.2       7 ALL1        0.0000 
     56 O           7.8280    4.0960  -32.1750 O.2       4 ALP1        0.0000 
     57 N           9.1015    6.3980  -30.6590 N.am      2 SEC2        0.0000 
     58 N          10.5380    6.3140  -30.8720 N.am      8 SEL2        0.0000 
     59 N           7.6650    6.4820  -30.4460 N.am      5 SEP2        0.0000 
     60 CA         11.5680    7.8205  -28.2785 C.3       3 GLC5        0.0000 
     61 CA         11.0870    7.1820  -29.9530 C.3       9 GLL5        0.0000 
     62 CA         12.0490    8.4590  -26.6040 C.3       6 GLP5        0.0000 
     63 CA         12.0360    5.6510  -29.5155 C.3       3 GLC5        0.0000 
     64 CA         12.9850    4.1200  -29.0780 C.3       6 GLP5        0.0000 
     65 CA          9.3915    5.7355  -29.6790 C.3       3 GLC5        0.0000 
     66 CA          7.6960    4.2890  -29.4050 C.3       6 GLP5        0.0000 
     67 CA          9.6170    7.9630  -30.6180 C.3       3 GLC5        0.0000 
     68 CA          8.1470    8.7440  -31.2830 C.3       6 GLP5        0.0000 
     69 CA         13.0275    9.2520  -30.6715 C.3       3 GLC5        0.0000 
     70 CA         13.0770    7.2340  -31.1850 C.3       9 GLL5        0.0000 
     71 CA         13.0310    5.6770  -30.1315 C.3       3 GLC5        0.0000 
     72 CA         17.5330   13.1470  -28.2208 C.3       3 GLC5        0.0000 
     73 CA         17.2690   12.1900  -26.4280 C.3       6 GLP5        0.0000 
     74 CA         20.3470   13.0038  -31.6930 C.3       3 GLC5        0.0000 
     75 CA         21.9010   13.8730  -31.8320 C.3       6 GLP5        0.0000 
     76 CA         11.5868    8.1090  -32.2343 C.3       3 GLC5        0.0000 
     77 CA         10.3650    9.4210  -32.8140 C.3       6 GLP5        0.0000 
@<TRIPOS>BOND
@<TRIPOS>SUBSTRUCTURE
     1 ALC1        1 GROUP        1 X    ALC  0     ROOT ALC X 1
     2 SEC2       32 GROUP        1 X    SEC  0     **** SEC X 2
     3 GLC5        8 GROUP        1 X    GLC  0     **** GLC X 6
     4 ALP1        3 GROUP        1 Y    ALP  0     ROOT ALP Y 8
     5 SEP2       34 GROUP        1 Y    SEP  0     **** SEP Y 9
     6 GLP5       10 GROUP        1 Y    GLP  0     **** GLP Y 13
     7 ALL1        2 GROUP        1 Z    ALL  0     ROOT ALL Z 15
     8 SEL2       33 GROUP        1 Z    SEL  0     **** SEL Z 16
     9 GLL5        9 GROUP        1 Z    GLL  0     **** GLL Z 20
@<TRIPOS>SET

