#    Name: 2zfu_SAH_2_ligand
#    Modification time : Tue Mar 25 10:42:16 2014

@<TRIPOS>MOLECULE
2zfu_SAH_2_ligand
   46    48     1     0     0
SMALL
NO_CHARGES


@<TRIPOS>ATOM
      1 N          16.3450   15.0020  -30.7880 N.4       1 SAH900      0.0000 
      2 CA         17.5130   14.8090  -29.9310 C.3       1 SAH900      0.0000 
      3 CB         18.0810   13.3990  -30.0960 C.3       1 SAH900      0.0000 
      4 CG         18.3790   12.9440  -31.5340 C.3       1 SAH900      0.0000 
      5 SD         19.2070   11.3250  -31.5740 S.3       1 SAH900      0.0000 
      6 C          18.6650   15.7700  -30.2160 C.2       1 SAH900      0.0000 
      7 O          18.7760   16.3680  -31.2890 O.co2     1 SAH900      0.0000 
      8 OXT        19.5510   15.8970  -29.3770 O.co2     1 SAH900      0.0000 
      9 C5'        17.7620   10.4240  -32.1310 C.3       1 SAH900      0.0000 
     10 C4'        16.8840    9.9950  -30.9730 C.3       1 SAH900      0.0000 
     11 O4'        15.6620    9.5550  -31.5180 O.3       1 SAH900      0.0000 
     12 C3'        17.4860    8.8510  -30.1530 C.3       1 SAH900      0.0000 
     13 O3'        17.5140    9.1710  -28.7700 O.3       1 SAH900      0.0000 
     14 C2'        16.5560    7.6940  -30.4450 C.3       1 SAH900      0.0000 
     15 O2'        16.3830    6.8400  -29.3420 O.3       1 SAH900      0.0000 
     16 C1'        15.2550    8.4050  -30.8200 C.3       1 SAH900      0.0000 
     17 N9         14.3410    7.5390  -31.5820 N.pl3     1 SAH900      0.0000 
     18 C8         14.5820    6.8530  -32.7380 C.2       1 SAH900      0.0000 
     19 N7         13.4790    6.1480  -33.0660 N.2       1 SAH900      0.0000 
     20 C5         12.5400    6.3600  -32.1240 C.ar      1 SAH900      0.0000 
     21 C6         11.2390    5.8950  -31.9680 C.ar      1 SAH900      0.0000 
     22 N6         10.6430    5.0720  -32.8390 N.pl3     1 SAH900      0.0000 
     23 N1         10.5380    6.3140  -30.8720 N.ar      1 SAH900      0.0000 
     24 C2         11.0870    7.1820  -29.9530 C.ar      1 SAH900      0.0000 
     25 N3         12.3750    7.6360  -30.1020 N.ar      1 SAH900      0.0000 
     26 C4         13.0770    7.2340  -31.1850 C.ar      1 SAH900      0.0000 
     27 H          17.2470   14.9171  -28.8796 H         1 SAH900      0.0000 
     28 H          17.3736   12.6730  -29.6374 H         1 SAH900      0.0000 
     29 H          19.0179   13.3194  -29.5012 H         1 SAH900      0.0000 
     30 H          19.0776   13.5713  -32.0416 H         1 SAH900      0.0000 
     31 H          17.5006   12.7666  -32.1138 H         1 SAH900      0.0000 
     32 H          18.1902    9.6027  -32.6713 H         1 SAH900      0.0000 
     33 H          17.2884   11.1233  -32.7916 H         1 SAH900      0.0000 
     34 H          16.7317   10.8401  -30.3223 H         1 SAH900      0.0000 
     35 H          18.4410    8.6265  -30.5646 H         1 SAH900      0.0000 
     36 H          16.9112    7.2033  -31.3289 H         1 SAH900      0.0000 
     37 H          14.7881    8.6929  -29.8692 H         1 SAH900      0.0000 
     38 H          15.4105    6.8750  -33.2334 H         1 SAH900      0.0000 
     39 H           9.7274    4.7561  -32.5901 H         1 SAH900      0.0000 
     40 H          11.1667    4.8468  -33.6606 H         1 SAH900      0.0000 
     41 H          10.5207    7.4943  -29.1418 H         1 SAH900      0.0000 
     42 H          15.6136   14.3559  -30.5699 H         1 SAH900      0.0000 
     43 H          15.9624   15.9210  -30.6929 H         1 SAH900      0.0000 
     44 H          16.5687   14.8762  -31.7545 H         1 SAH900      0.0000 
     45 H          16.5594    9.3391  -28.5240 H         1 SAH900      0.0000 
     46 H          15.7646    7.3315  -28.7288 H         1 SAH900      0.0000 
@<TRIPOS>BOND
     1    2    1 1    
     2   42    1 1    
     3   43    1 1    
     4   44    1 1    
     5    3    2 1    
     6    6    2 1    
     7   27    2 1    
     8    4    3 1    
     9   28    3 1    
    10   29    3 1    
    11    5    4 1    
    12   30    4 1    
    13   31    4 1    
    14    9    5 1    
    15    7    6 ar   
    16    8    6 ar   
    17   10    9 1    
    18   32    9 1    
    19   33    9 1    
    20   11   10 1    
    21   12   10 1    
    22   34   10 1    
    23   16   11 1    
    24   13   12 1    
    25   14   12 1    
    26   35   12 1    
    27   45   13 1    
    28   15   14 1    
    29   16   14 1    
    30   36   14 1    
    31   46   15 1    
    32   17   16 1    
    33   37   16 1    
    34   18   17 1    
    35   26   17 1    
    36   19   18 2    
    37   38   18 1    
    38   20   19 1    
    39   21   20 ar   
    40   26   20 ar   
    41   22   21 1    
    42   23   21 ar   
    43   39   22 1    
    44   40   22 1    
    45   24   23 ar   
    46   25   24 ar   
    47   41   24 1    
    48   26   25 ar   
@<TRIPOS>SUBSTRUCTURE
     1 SAH900      1 GROUP   
@<TRIPOS>SET

