#    Name: 4dw6_0MN_1_INTS_M
#    Modification time : Tue Mar 25 10:16:28 2014

@<TRIPOS>MOLECULE
4dw6_0MN_1_INTS_M
   64     0     9     0     0
SMALL
NO_CHARGES


@<TRIPOS>ATOM
      1 N          26.8090  -13.4990   -8.2990 N.am      2 SEC2        0.0000 
      2 N          27.9440  -12.9510   -7.6830 N.am      8 SEL2        0.0000 
      3 N          25.6740  -14.0470   -8.9150 N.am      5 SEP2        0.0000 
      4 CA         30.2255  -13.7770   -7.1335 C.3       3 GLC5        0.0000 
      5 CA         28.8200  -14.7220   -6.2870 C.3       9 GLL5        0.0000 
      6 CA         31.6310  -12.8320   -7.9800 C.3       6 GLP5        0.0000 
      7 CA         27.5205  -15.5690   -7.5675 C.3       3 GLC5        0.0000 
      8 CA         26.2210  -16.4160   -8.8480 C.3       6 GLP5        0.0000 
      9 CA         29.9660  -19.5885   -6.9905 C.3       3 GLC5        0.0000 
     10 CA         31.2750  -18.2280   -6.7730 C.3       9 GLL5        0.0000 
     11 CA         28.6570  -20.9490   -7.2080 C.3       6 GLP5        0.0000 
     12 CA         33.8700  -18.1225  -10.6785 C.3       3 GLC5        0.0000 
     13 CA         32.3690  -19.3590  -10.7620 C.3       9 GLL5        0.0000 
     14 CA         35.3710  -16.8860  -10.5950 C.3       6 GLP5        0.0000 
     15 CA         33.9840  -20.1720  -11.5935 C.3       3 GLC5        0.0000 
     16 CA         35.5990  -20.9850  -12.4250 C.3       6 GLP5        0.0000 
     17 CA         30.9170  -18.8470  -11.9880 C.3       3 GLC5        0.0000 
     18 CA         29.4650  -18.3350  -13.2140 C.3       6 GLP5        0.0000 
     19 CA         33.0790  -20.9120  -10.7420 C.3       3 GLC5        0.0000 
     20 CA         33.7890  -22.4650  -10.7220 C.3       6 GLP5        0.0000 
     21 O          27.6265  -13.8240   -4.3265 O.2       1 ALC1        0.0000 
     22 O          27.8460  -12.8050   -5.3720 O.2       7 ALL1        0.0000 
     23 O          27.4070  -14.8430   -3.2810 O.2       4 ALP1        0.0000 
     24 CA         28.1335   -7.8575   -6.9770 C.3       3 GLC5        0.0000 
     25 CA         27.4040   -9.2400   -5.8180 C.3       9 GLL5        0.0000 
     26 CA         28.8630   -6.4750   -8.1360 C.3       6 GLP5        0.0000 
     27 CA         26.4985   -4.5425   -0.9715 C.3       3 GLC5        0.0000 
     28 CA         27.4260   -4.0070   -2.3990 C.3       9 GLL5        0.0000 
     29 CA         25.5710   -5.0780    0.4560 C.3       6 GLP5        0.0000 
     30 CA         25.5490   -2.0130   -3.6550 C.3       3 GLC5        0.0000 
     31 CA         27.3520   -2.7450   -3.0500 C.3       9 GLL5        0.0000 
     32 CA         23.7460   -1.2810   -4.2600 C.3       6 GLP5        0.0000 
     33 CA         29.1030   -3.8375   -6.3080 C.3       3 GLC5        0.0000 
     34 CA         27.2460   -3.8280   -5.2170 C.3       9 GLL5        0.0000 
     35 CA         30.9600   -3.8470   -7.3990 C.3       6 GLP5        0.0000 
     36 CA         30.8038  -14.9242   -8.8918 C.3       3 GLC5        0.0000 
     37 CA         29.8830  -16.4480   -7.7060 C.3       9 GLL5        0.0000 
     38 CA         31.5200  -13.2020   -9.4500 C.3       6 GLP5        0.0000 
     39 CA         28.1543  -16.5312   -8.5907 C.3       3 GLC5        0.0000 
     40 CA         30.2920  -16.8450   -8.9610 C.3       9 GLL5        0.0000 
     41 CA         30.6962  -18.3365   -5.0072 C.3       3 GLC5        0.0000 
     42 CA         30.4440  -17.0920   -6.6060 C.3       9 GLL5        0.0000 
     43 CA         30.5330  -19.0130   -3.3250 C.3       6 GLP5        0.0000 
     44 CA         30.1752  -16.6653  -10.8422 C.3       3 GLC5        0.0000 
     45 CA         29.6240  -15.9350  -12.6360 C.3       6 GLP5        0.0000 
     46 CA         26.4875  -10.1013   -7.6617 C.3       3 GLC5        0.0000 
     47 CA         27.4780  -10.5690   -6.1790 C.3       9 GLL5        0.0000 
     48 CA         25.5340  -10.2980   -9.3250 C.3       6 GLP5        0.0000 
     49 CA         29.2658   -8.1235   -4.6895 C.3       3 GLC5        0.0000 
     50 CA         31.0820   -7.2420   -4.2250 C.3       6 GLP5        0.0000 
     51 CA         29.7375   -9.7310   -3.2060 C.3       3 GLC5        0.0000 
     52 CA         27.6790   -9.6620   -3.4610 C.3       9 GLL5        0.0000 
     53 CA         31.7330   -9.1240   -2.7790 C.3       6 GLP5        0.0000 
     54 CA         26.2485  -10.7625   -2.1705 C.3       3 GLC5        0.0000 
     55 CA         24.7550  -11.1870   -0.7080 C.3       6 GLP5        0.0000 
     56 CA         26.5033   -5.5125   -1.2255 C.3       3 GLC5        0.0000 
     57 CA         27.4470   -6.7230   -2.6260 C.3       9 GLL5        0.0000 
     58 CA         29.2356   -6.3827   -3.9918 C.3       3 GLC5        0.0000 
     59 CA         28.0787   -5.4695   -6.5247 C.3       3 GLC5        0.0000 
     60 CA         27.3430   -5.1000   -4.6100 C.3       9 GLL5        0.0000 
     61 CA         25.9027   -2.4155   -5.3455 C.3       3 GLC5        0.0000 
     62 CA         24.5500   -1.5960   -5.8590 C.3       6 GLP5        0.0000 
     63 CA         29.6313  -18.9250   -8.4609 C.3       3 GLC5        0.0000 
     64 CA         28.4390  -20.2880   -8.5960 C.3       6 GLP5        0.0000 
@<TRIPOS>BOND
@<TRIPOS>SUBSTRUCTURE
     1 ALC1       21 GROUP        1 X    ALC  0     ROOT ALC X 1
     2 SEC2        1 GROUP        1 X    SEC  0     **** SEC X 2
     3 GLC5        4 GROUP        1 X    GLC  0     **** GLC X 6
     4 ALP1       23 GROUP        1 Y    ALP  0     ROOT ALP Y 8
     5 SEP2        3 GROUP        1 Y    SEP  0     **** SEP Y 9
     6 GLP5        6 GROUP        1 Y    GLP  0     **** GLP Y 13
     7 ALL1       22 GROUP        1 Z    ALL  0     ROOT ALL Z 15
     8 SEL2        2 GROUP        1 Z    SEL  0     **** SEL Z 16
     9 GLL5        5 GROUP        1 Z    GLL  0     **** GLL Z 20
@<TRIPOS>SET

