#    Name: 4dw6_0MN_1_ligand
#    Modification time : Tue Mar 25 10:16:28 2014

@<TRIPOS>MOLECULE
4dw6_0MN_1_ligand
   46    49     1     0     0
SMALL
NO_CHARGES


@<TRIPOS>ATOM
      1 O3         27.9440  -12.9510   -7.6830 O.2       1 0MN301      0.0000 
      2 C8         28.1890  -13.3970   -6.5000 C.2       1 0MN301      0.0000 
      3 C7         28.8200  -14.7220   -6.2870 C.3       1 0MN301      0.0000 
      4 O2         29.0170  -15.3610   -7.5890 O.3       1 0MN301      0.0000 
      5 C6         29.8830  -16.4480   -7.7060 C.ar      1 0MN301      0.0000 
      6 C5         30.4440  -17.0920   -6.6060 C.ar      1 0MN301      0.0000 
      7 C4         31.2750  -18.2280   -6.7730 C.ar      1 0MN301      0.0000 
      8 C3         31.6780  -18.6870   -8.0500 C.ar      1 0MN301      0.0000 
      9 C22        30.2920  -16.8450   -8.9610 C.ar      1 0MN301      0.0000 
     10 C2         31.1610  -17.9460   -9.1360 C.ar      1 0MN301      0.0000 
     11 O1         31.4340  -18.2940  -10.4530 O.3       1 0MN301      0.0000 
     12 C1         32.3690  -19.3590  -10.7620 C.3       1 0MN301      0.0000 
     13 N1         27.8460  -12.8050   -5.3720 N.am      1 0MN301      0.0000 
     14 C9         27.7170  -11.4780   -5.1520 C.ar      1 0MN301      0.0000 
     15 C14        27.4780  -10.5690   -6.1790 C.ar      1 0MN301      0.0000 
     16 C13        27.4040   -9.2400   -5.8180 C.ar      1 0MN301      0.0000 
     17 C12        27.4950   -8.7700   -4.4900 C.ar      1 0MN301      0.0000 
     18 C11        27.6790   -9.6620   -3.4610 C.ar      1 0MN301      0.0000 
     19 C10        27.8050  -11.0140   -3.8050 C.ar      1 0MN301      0.0000 
     20 C15        27.4290   -7.3940   -4.2630 C.2       1 0MN301      0.0000 
     21 S          27.4470   -6.7230   -2.6260 S.3       1 0MN301      0.0000 
     22 C21        27.4240   -5.1710   -3.1880 C.ar      1 0MN301      0.0000 
     23 C16        27.3430   -5.1000   -4.6100 C.ar      1 0MN301      0.0000 
     24 N2         27.3250   -6.3790   -5.1720 N.2       1 0MN301      0.0000 
     25 C20        27.4260   -4.0070   -2.3990 C.ar      1 0MN301      0.0000 
     26 C19        27.3520   -2.7450   -3.0500 C.ar      1 0MN301      0.0000 
     27 C18        27.2650   -2.6420   -4.4470 C.ar      1 0MN301      0.0000 
     28 C17        27.2460   -3.8280   -5.2170 C.ar      1 0MN301      0.0000 
     29 H          28.1743  -15.3368   -5.6567 H         1 0MN301      0.0000 
     30 H          29.7779  -14.5929   -5.7792 H         1 0MN301      0.0000 
     31 H          30.2590  -16.7463   -5.6535 H         1 0MN301      0.0000 
     32 H          31.5978  -18.7389   -5.9321 H         1 0MN301      0.0000 
     33 H          32.2720  -19.4619   -8.1704 H         1 0MN301      0.0000 
     34 H          29.9646  -16.3365   -9.8019 H         1 0MN301      0.0000 
     35 H          27.6403  -13.4508   -4.5105 H         1 0MN301      0.0000 
     36 H          27.3662  -10.8716   -7.1312 H         1 0MN301      0.0000 
     37 H          27.2704   -8.5153   -6.5763 H         1 0MN301      0.0000 
     38 H          27.7231   -9.3689   -2.4966 H         1 0MN301      0.0000 
     39 H          27.9695  -11.7168   -3.0567 H         1 0MN301      0.0000 
     40 H          27.4786   -4.0585   -1.3916 H         1 0MN301      0.0000 
     41 H          27.3631   -1.8882   -2.4741 H         1 0MN301      0.0000 
     42 H          27.2165   -1.7368   -4.9002 H         1 0MN301      0.0000 
     43 H          27.1596   -3.7624   -6.2416 H         1 0MN301      0.0000 
     44 H          33.2824  -19.1671  -10.4029 H         1 0MN301      0.0000 
     45 H          32.0785  -20.2329  -10.3723 H         1 0MN301      0.0000 
     46 H          32.4643  -19.4950  -11.7481 H         1 0MN301      0.0000 
@<TRIPOS>BOND
     1    2    1 2    
     2    3    2 1    
     3   13    2 am   
     4    4    3 1    
     5   29    3 1    
     6   30    3 1    
     7    5    4 1    
     8    6    5 ar   
     9    9    5 ar   
    10    7    6 ar   
    11   31    6 1    
    12    8    7 ar   
    13   32    7 1    
    14   10    8 ar   
    15   33    8 1    
    16   10    9 ar   
    17   34    9 1    
    18   11   10 1    
    19   12   11 1    
    20   44   12 1    
    21   45   12 1    
    22   46   12 1    
    23   14   13 1    
    24   35   13 1    
    25   15   14 ar   
    26   19   14 ar   
    27   16   15 ar   
    28   36   15 1    
    29   17   16 ar   
    30   37   16 1    
    31   18   17 ar   
    32   20   17 1    
    33   19   18 ar   
    34   38   18 1    
    35   39   19 1    
    36   21   20 1    
    37   24   20 2    
    38   22   21 1    
    39   23   22 ar   
    40   25   22 ar   
    41   24   23 1    
    42   28   23 ar   
    43   26   25 ar   
    44   40   25 1    
    45   27   26 ar   
    46   41   26 1    
    47   28   27 ar   
    48   42   27 1    
    49   43   28 1    
@<TRIPOS>SUBSTRUCTURE
     1 0MN301      1 GROUP   
@<TRIPOS>SET

