#    Name: 4dae_6CR_1_INTS_M
#    Modification time : Mon Apr  7 22:27:20 2014

@<TRIPOS>MOLECULE
4dae_6CR_1_INTS_M
   45     0     9     0     0
SMALL
NO_CHARGES


@<TRIPOS>ATOM
      1 CA        -54.1450   22.8505   24.2330 C.3       3 GLC5        0.0000 
      2 CA        -52.0670   22.5060   24.3040 C.3       9 GLL5        0.0000 
      3 CA        -56.2230   23.1950   24.1620 C.3       6 GLP5        0.0000 
      4 CA        -53.2165   21.5590   22.8170 C.3       3 GLC5        0.0000 
      5 CA        -54.3660   20.6120   21.3300 C.3       6 GLP5        0.0000 
      6 CA        -52.1090   23.2330   22.3835 C.3       3 GLC5        0.0000 
      7 CA        -52.1510   23.9600   20.4630 C.3       6 GLP5        0.0000 
      8 CA        -52.6710   20.5370   22.5370 C.3       3 GLC5        0.0000 
      9 CA        -50.9760   20.4620   23.7440 C.3       9 GLL5        0.0000 
     10 CA        -54.0345   21.3395   26.1155 C.3       3 GLC5        0.0000 
     11 CA        -51.8870   20.9130   26.0270 C.3       9 GLL5        0.0000 
     12 CA        -56.1820   21.7660   26.2040 C.3       6 GLP5        0.0000 
     13 N         -50.7685   17.9725   26.3665 N.am      2 SEC2        0.0000 
     14 N         -50.6930   18.7640   25.2140 N.am      8 SEL2        0.0000 
     15 N         -50.8440   17.1810   27.5190 N.am      5 SEP2        0.0000 
     16 CA        -53.2700   19.3450   27.7135 C.3       3 GLC5        0.0000 
     17 CA        -52.1560   20.4710   27.7470 C.3       9 GLL5        0.0000 
     18 CA        -54.3840   18.2190   27.6800 C.3       6 GLP5        0.0000 
     19 CA        -53.5520   20.8105   28.8575 C.3       3 GLC5        0.0000 
     20 CA        -54.9480   21.1500   29.9680 C.3       6 GLP5        0.0000 
     21 CA        -52.3950   20.5660   21.0955 C.3       3 GLC5        0.0000 
     22 CA        -50.4240   20.5200   20.8610 C.3       9 GLL5        0.0000 
     23 CA        -51.2875   22.2400   20.6620 C.3       3 GLC5        0.0000 
     24 N         -52.3485   20.8125   19.5095 N.am      2 SEC2        0.0000 
     25 N         -51.1470   19.9720   19.7560 N.am      8 SEL2        0.0000 
     26 N         -53.5500   21.6530   19.2630 N.am      5 SEP2        0.0000 
     27 O         -50.4450   20.7640   18.4020 O.2       1 ALC1        0.0000 
     28 O         -51.1470   19.9720   19.7560 O.2       7 ALL1        0.0000 
     29 O         -49.7430   21.5560   17.0480 O.2       4 ALP1        0.0000 
     30 CA        -47.3685   21.9650   19.4385 C.3       3 GLC5        0.0000 
     31 CA        -49.2140   21.2820   20.3760 C.3       9 GLL5        0.0000 
     32 CA        -45.5230   22.6480   18.5010 C.3       6 GLP5        0.0000 
     33 O         -49.2660   21.0915   18.1115 O.2       1 ALC1        0.0000 
     34 O         -48.7890   20.6270   19.1750 O.2       7 ALL1        0.0000 
     35 CA        -48.6005   23.2775   23.7140 C.3       3 GLC5        0.0000 
     36 CA        -47.9280   22.1380   22.4040 C.3       9 GLL5        0.0000 
     37 CA        -49.2730   24.4170   25.0240 C.3       6 GLP5        0.0000 
     38 CA        -52.3615   18.5493   24.3092 C.3       3 GLC5        0.0000 
     39 CA        -53.6360   16.8710   24.1870 C.3       6 GLP5        0.0000 
     40 CA        -52.9633   19.3360   26.6265 C.3       3 GLC5        0.0000 
     41 CA        -51.1980   19.9930   25.1190 C.3       9 GLL5        0.0000 
     42 CA        -46.4995   22.3398   21.0450 C.3       3 GLC5        0.0000 
     43 CA        -44.9750   23.1090   20.1890 C.3       6 GLP5        0.0000 
     44 CA        -49.4552   23.1621   21.3573 C.3       3 GLC5        0.0000 
     45 CA        -50.6130   24.6840   21.0690 C.3       6 GLP5        0.0000 
@<TRIPOS>BOND
@<TRIPOS>SUBSTRUCTURE
     1 ALC1       27 GROUP        1 X    ALC  0     ROOT ALC X 1
     2 SEC2       13 GROUP        1 X    SEC  0     **** SEC X 2
     3 GLC5        1 GROUP        1 X    GLC  0     **** GLC X 6
     4 ALP1       29 GROUP        1 Y    ALP  0     ROOT ALP Y 8
     5 SEP2       15 GROUP        1 Y    SEP  0     **** SEP Y 9
     6 GLP5        3 GROUP        1 Y    GLP  0     **** GLP Y 13
     7 ALL1       28 GROUP        1 Z    ALL  0     ROOT ALL Z 15
     8 SEL2       14 GROUP        1 Z    SEL  0     **** SEL Z 16
     9 GLL5        2 GROUP        1 Z    GLL  0     **** GLL Z 20
@<TRIPOS>SET

