#    Name: 4dae_6CR_1_ligand
#    Modification time : Mon Apr  7 22:27:20 2014

@<TRIPOS>MOLECULE
4dae_6CR_1_ligand
   32    34     1     0     0
SMALL
NO_CHARGES


@<TRIPOS>ATOM
      1 N1        -52.2760   22.1160   25.5680 N.ar      1 6CR301      0.0000 
      2 C2        -52.0670   22.5060   24.3040 C.ar      1 6CR301      0.0000 
      3 N3        -51.4340   21.6940   23.4050 N.ar      1 6CR301      0.0000 
      4 C4        -50.9760   20.4620   23.7440 C.ar      1 6CR301      0.0000 
      5 C5        -51.1980   19.9930   25.1190 C.ar      1 6CR301      0.0000 
      6 C6        -51.8870   20.9130   26.0270 C.ar      1 6CR301      0.0000 
      7 N7        -50.6930   18.7640   25.2140 N.2       1 6CR301      0.0000 
      8 C8        -50.1760   18.4480   23.9980 C.2       1 6CR301      0.0000 
      9 N9        -50.3690   19.4520   23.1200 N.pl3     1 6CR301      0.0000 
     10 C1'       -49.8760   19.4130   21.7490 C.3       1 6CR301      0.0000 
     11 CL1       -52.1560   20.4710   27.7470 Cl        1 6CR301      0.0000 
     12 C2'       -50.4240   20.5200   20.8610 C.3       1 6CR301      0.0000 
     13 O2'       -51.1470   19.9720   19.7560 O.3       1 6CR301      0.0000 
     14 N20       -52.5080   23.7370   23.9690 N.pl3     1 6CR301      0.0000 
     15 C3'       -49.2140   21.2820   20.3760 C.3       1 6CR301      0.0000 
     16 O3'       -48.7890   20.6270   19.1750 O.3       1 6CR301      0.0000 
     17 C4'       -48.1200   21.0030   21.3980 C.3       1 6CR301      0.0000 
     18 O4'       -48.5300   19.8020   22.0680 O.3       1 6CR301      0.0000 
     19 C5'       -47.9280   22.1380   22.4040 C.3       1 6CR301      0.0000 
     20 O5'       -46.9040   21.7850   23.3360 O.3       1 6CR301      0.0000 
     21 H         -49.7249   17.6028   23.7932 H         1 6CR301      0.0000 
     22 H         -49.9130   18.4935   21.3324 H         1 6CR301      0.0000 
     23 H         -51.0169   21.1699   21.4628 H         1 6CR301      0.0000 
     24 H         -52.3278   24.0284   23.0295 H         1 6CR301      0.0000 
     25 H         -52.9757   24.2482   24.6901 H         1 6CR301      0.0000 
     26 H         -49.3953   22.2712   20.2854 H         1 6CR301      0.0000 
     27 H         -47.1987   20.8357   20.8667 H         1 6CR301      0.0000 
     28 H         -48.8888   22.3098   22.9014 H         1 6CR301      0.0000 
     29 H         -47.6720   23.0428   21.8421 H         1 6CR301      0.0000 
     30 H         -50.4942   19.9632   18.9985 H         1 6CR301      0.0000 
     31 H         -48.7672   21.3470   18.4814 H         1 6CR301      0.0000 
     32 H         -47.3424   21.1527   23.9747 H         1 6CR301      0.0000 
@<TRIPOS>BOND
     1    2    1 ar   
     2    6    1 ar   
     3    3    2 ar   
     4   14    2 1    
     5    4    3 ar   
     6    5    4 ar   
     7    9    4 1    
     8    6    5 ar   
     9    7    5 1    
    10   11    6 1    
    11    8    7 2    
    12    9    8 1    
    13   21    8 1    
    14   10    9 1    
    15   12   10 1    
    16   18   10 1    
    17   22   10 1    
    18   13   12 1    
    19   15   12 1    
    20   23   12 1    
    21   30   13 1    
    22   24   14 1    
    23   25   14 1    
    24   16   15 1    
    25   17   15 1    
    26   26   15 1    
    27   31   16 1    
    28   18   17 1    
    29   19   17 1    
    30   27   17 1    
    31   20   19 1    
    32   28   19 1    
    33   29   19 1    
    34   32   20 1    
@<TRIPOS>SUBSTRUCTURE
     1 6CR301      1 GROUP   
@<TRIPOS>SET

