#    Name: 2zfq_45U_1_INTS_M
#    Modification time : Tue Mar 25 10:41:30 2014

@<TRIPOS>MOLECULE
2zfq_45U_1_INTS_M
   65     0    12     0     0
SMALL
NO_CHARGES


@<TRIPOS>ATOM
      1 N          15.6735  -12.4470   23.8925 N.am      2 SEC2        0.0000 
      2 N          16.6940  -13.1530   22.7380 N.am     10 SEL2        0.0000 
      3 N          14.6530  -11.7410   25.0470 N.am      6 SEP2        0.0000 
      4 CA         20.8935  -14.2910   27.7360 C.3       4 GLC5        0.0000 
      5 CA         20.7190  -12.7680   26.2040 C.3      12 GLL5        0.0000 
      6 CA         21.0680  -15.8140   29.2680 C.3       8 GLP5        0.0000 
      7 CA         19.2030  -11.8835   26.6585 C.3       4 GLC5        0.0000 
      8 CA         17.6870  -10.9990   27.1130 C.3       8 GLP5        0.0000 
      9 CA         18.3065  -12.8405   26.4450 C.3       4 GLC5        0.0000 
     10 CA         19.5100  -13.4430   25.4970 C.3      12 GLL5        0.0000 
     11 CA         17.1030  -12.2380   27.3930 C.3       8 GLP5        0.0000 
     12 CA         17.8160  -11.1535   22.7465 C.3       4 GLC5        0.0000 
     13 CA         18.3090  -11.8020   20.9380 C.3      12 GLL5        0.0000 
     14 CA         17.3230  -10.5050   24.5550 C.3       8 GLP5        0.0000 
     15 O          16.6430   -9.6670   21.1360 O.2       1 ALC1        0.0000 
     16 O          16.2620  -10.8150   20.1350 O.2       9 ALL1        0.0000 
     17 O          17.0240   -8.5190   22.1370 O.2       5 ALP1        0.0000 
     18 CA         15.0970   -8.8850   18.4420 C.3       4 GLC5        0.0000 
     19 CA         14.9320  -10.7100   19.5330 C.3      12 GLL5        0.0000 
     20 CA         15.2620   -7.0600   17.3510 C.3       8 GLP5        0.0000 
     21 CA         10.6350   -8.3460   22.2940 C.3       4 GLC5        0.0000 
     22 CA         12.3200   -9.6270   22.2810 C.3      12 GLL5        0.0000 
     23 CA          8.9500   -7.0650   22.3070 C.3       8 GLP5        0.0000 
     24 OD1         9.0700  -10.5945   24.9435 O.co2     3 ASC3        0.0000 
     25 OD1        10.7850  -10.7020   24.0370 O.co2    11 ASL3        0.0000 
     26 OD1         8.0330   -9.3910   25.5540 O.co2     7 ASP3        0.0000 
     27 OD1         7.7350  -11.5650   25.6700 O.co2     7 ASP3        0.0000 
     28 O           9.3025   -9.4830   25.1300 O.2       1 ALC1        0.0000 
     29 O          10.5720   -9.5750   24.7060 O.2       9 ALL1        0.0000 
     30 O           8.0330   -9.3910   25.5540 O.2       5 ALP1        0.0000 
     31 O           9.0700  -10.5945   24.9435 O.2       1 ALC1        0.0000 
     32 O          10.1070  -11.7980   24.3330 O.2       9 ALL1        0.0000 
     33 O           8.9210  -11.6815   25.0015 O.2       1 ALC1        0.0000 
     34 O           7.7350  -11.5650   25.6700 O.2       5 ALP1        0.0000 
     35 O          10.2860  -13.2640   24.1730 O.2       1 ALC1        0.0000 
     36 O          10.4650  -14.7300   24.0130 O.2       5 ALP1        0.0000 
     37 CA         10.5725  -12.8935   21.7400 C.3       4 GLC5        0.0000 
     38 CA         12.4310  -11.8430   22.3400 C.3      12 GLL5        0.0000 
     39 CA          8.7140  -13.9440   21.1400 C.3       8 GLP5        0.0000 
     40 CA         22.7333  -12.1372   26.7305 C.3       4 GLC5        0.0000 
     41 CA         21.8940  -13.0850   25.3080 C.3      12 GLL5        0.0000 
     42 CA         24.1600  -11.3480   27.7050 C.3       8 GLP5        0.0000 
     43 CA         18.9635  -10.2175   19.2400 C.3       4 GLC5        0.0000 
     44 CA         19.0510   -8.7140   18.0410 C.3       8 GLP5        0.0000 
     45 CA         21.7413  -13.6668   20.0903 C.3       4 GLC5        0.0000 
     46 CA         20.2090  -12.9440   19.8110 C.3      12 GLL5        0.0000 
     47 CA         23.4920  -13.9370   19.8050 C.3       8 GLP5        0.0000 
     48 CA         19.2763  -14.4737   18.9078 C.3       4 GLC5        0.0000 
     49 CA         18.5620  -15.5510   17.4400 C.3       8 GLP5        0.0000 
     50 CA         20.1197  -11.1098   21.5690 C.3       4 GLC5        0.0000 
     51 CA         20.6970   -9.8870   23.0130 C.3       8 GLP5        0.0000 
     52 CA         14.7763  -10.0415   22.5577 C.3       4 GLC5        0.0000 
     53 CA         13.8980  -10.6990   20.6550 C.3      12 GLL5        0.0000 
     54 CA         15.9640   -9.9380   24.1690 C.3       8 GLP5        0.0000 
     55 CA         12.6513   -7.7560   21.4988 C.3       4 GLC5        0.0000 
     56 CA         13.2790   -9.5910   21.2380 C.3      12 GLL5        0.0000 
     57 CA         12.5030   -5.9030   21.2380 C.3       8 GLP5        0.0000 
     58 CA         14.0165  -10.0613   23.3843 C.3       4 GLC5        0.0000 
     59 CA         11.8180  -10.7420   22.9180 C.3      12 GLL5        0.0000 
     60 CA         12.9067  -11.8493   24.2590 C.3       4 GLC5        0.0000 
     61 CA         13.6890  -12.4060   25.8890 C.3       8 GLP5        0.0000 
     62 CA         10.6145  -10.9204   21.1749 C.3       4 GLC5        0.0000 
     63 CA          8.9790  -10.8270   19.8800 C.3       8 GLP5        0.0000 
     64 CA         14.4375  -10.8845   22.9935 C.3       4 GLC5        0.0000 
     65 CA         20.7858  -11.6075   24.1601 C.3       4 GLC5        0.0000 
@<TRIPOS>BOND
@<TRIPOS>SUBSTRUCTURE
     1 ALC1       15 GROUP        1 X    ALC  0     ROOT ALC X 1
     2 SEC2        1 GROUP        1 X    SEC  0     **** SEC X 2
     3 ASC3       24 GROUP        1 X    ASC  0     **** ASC X 3
     4 GLC5        4 GROUP        1 X    GLC  0     **** GLC X 6
     5 ALP1       17 GROUP        1 Y    ALP  0     ROOT ALP Y 8
     6 SEP2        3 GROUP        1 Y    SEP  0     **** SEP Y 9
     7 ASP3       26 GROUP        1 Y    ASP  0     **** ASP Y 10
     8 GLP5        6 GROUP        1 Y    GLP  0     **** GLP Y 13
     9 ALL1       16 GROUP        1 Z    ALL  0     ROOT ALL Z 15
    10 SEL2        2 GROUP        1 Z    SEL  0     **** SEL Z 16
    11 ASL3       25 GROUP        1 Z    ASL  0     **** ASL Z 17
    12 GLL5        5 GROUP        1 Z    GLL  0     **** GLL Z 20
@<TRIPOS>SET

