#    Name: 2zfq_45U_1_ligand
#    Modification time : Tue Mar 25 10:41:30 2014

@<TRIPOS>MOLECULE
2zfq_45U_1_ligand
   56    58     1     0     0
SMALL
NO_CHARGES


@<TRIPOS>ATOM
      1 O32        16.6940  -13.1530   22.7380 O.2       1 45U501      0.0000 
      2 C14        17.7570  -13.6670   22.4360 C.2       1 45U501      0.0000 
      3 C5         18.0110  -14.9520   23.2310 C.3       1 45U501      0.0000 
      4 O21        19.3630  -15.0530   23.5730 O.3       1 45U501      0.0000 
      5 C44        20.0840  -14.7060   24.7320 C.3       1 45U501      0.0000 
      6 C49        21.3750  -14.0160   24.2200 C.3       1 45U501      0.0000 
      7 C48        21.8940  -13.0850   25.3080 C.3       1 45U501      0.0000 
      8 C47        20.7190  -12.7680   26.2040 C.3       1 45U501      0.0000 
      9 C45        19.5100  -13.4430   25.4970 C.3       1 45U501      0.0000 
     10 N1         18.5620  -13.0970   21.5250 N.am      1 45U501      0.0000 
     11 C1         18.3090  -11.8020   20.9380 C.3       1 45U501      0.0000 
     12 C7         16.9730  -11.9080   20.2570 C.2       1 45U501      0.0000 
     13 O22        16.5310  -12.9690   19.8440 O.2       1 45U501      0.0000 
     14 C2         19.4430  -11.6400   19.9400 C.3       1 45U501      0.0000 
     15 C3         20.2090  -12.9440   19.8110 C.3       1 45U501      0.0000 
     16 C4         19.7720  -13.8490   20.9400 C.3       1 45U501      0.0000 
     17 N23        16.2620  -10.8150   20.1350 N.am      1 45U501      0.0000 
     18 C24        14.9320  -10.7100   19.5330 C.3       1 45U501      0.0000 
     19 C25        13.8980  -10.6990   20.6550 C.ar      1 45U501      0.0000 
     20 C30        13.2790   -9.5910   21.2380 C.ar      1 45U501      0.0000 
     21 C29        12.3200   -9.6270   22.2810 C.ar      1 45U501      0.0000 
     22 C28        11.8180  -10.7420   22.9180 C.ar      1 45U501      0.0000 
     23 C21        10.7850  -10.7020   24.0370 C.cat     1 45U501      0.0000 
     24 N47        10.5720   -9.5750   24.7060 N.pl3     1 45U501      0.0000 
     25 N46        10.1070  -11.7980   24.3330 N.pl3     1 45U501      0.0000 
     26 C27        12.4310  -11.8430   22.3400 C.ar      1 45U501      0.0000 
     27 C26        13.3910  -11.8190   21.2960 C.ar      1 45U501      0.0000 
     28 H          17.6705  -15.7929   22.6052 H         1 45U501      0.0000 
     29 H          17.3536  -14.9214   24.1151 H         1 45U501      0.0000 
     30 H          20.3424  -15.4159   25.3941 H         1 45U501      0.0000 
     31 H          21.1389  -13.4501   23.3338 H         1 45U501      0.0000 
     32 H          22.1107  -14.7726   24.0019 H         1 45U501      0.0000 
     33 H          22.2671  -12.1832   24.8598 H         1 45U501      0.0000 
     34 H          22.6603  -13.5842   25.8711 H         1 45U501      0.0000 
     35 H          20.5517  -11.7215   26.2446 H         1 45U501      0.0000 
     36 H          20.8477  -13.2100   27.1594 H         1 45U501      0.0000 
     37 H          18.8083  -13.7748   26.2213 H         1 45U501      0.0000 
     38 H          19.0908  -12.7763   24.7849 H         1 45U501      0.0000 
     39 H          18.3294  -11.0485   21.6455 H         1 45U501      0.0000 
     40 H          20.1155  -10.8573   20.2817 H         1 45U501      0.0000 
     41 H          19.0347  -11.3626   18.9715 H         1 45U501      0.0000 
     42 H          21.2675  -12.7496   19.8876 H         1 45U501      0.0000 
     43 H          19.9788  -13.4053   18.8632 H         1 45U501      0.0000 
     44 H          19.4538  -14.7831   20.5629 H         1 45U501      0.0000 
     45 H          20.5291  -13.9168   21.6735 H         1 45U501      0.0000 
     46 H          16.6400   -9.8733   20.4933 H         1 45U501      0.0000 
     47 H          14.7292  -11.5577   18.8854 H         1 45U501      0.0000 
     48 H          14.8332   -9.7905   18.9639 H         1 45U501      0.0000 
     49 H          13.5468   -8.6273   20.8707 H         1 45U501      0.0000 
     50 H          11.9498   -8.6662   22.6027 H         1 45U501      0.0000 
     51 H           9.8761   -9.6138   25.4230 H         1 45U501      0.0000 
     52 H          11.1268   -8.7893   24.4324 H         1 45U501      0.0000 
     53 H           9.4407  -11.7165   25.0742 H         1 45U501      0.0000 
     54 H          10.3220  -12.6089   23.7887 H         1 45U501      0.0000 
     55 H          12.1620  -12.8106   22.7089 H         1 45U501      0.0000 
     56 H          13.7570  -12.7773   20.9763 H         1 45U501      0.0000 
@<TRIPOS>BOND
     1    2    1 2    
     2    3    2 1    
     3   10    2 am   
     4    4    3 1    
     5   28    3 1    
     6   29    3 1    
     7    5    4 1    
     8    6    5 1    
     9    9    5 1    
    10   30    5 1    
    11    7    6 1    
    12   31    6 1    
    13   32    6 1    
    14    8    7 1    
    15   33    7 1    
    16   34    7 1    
    17    9    8 1    
    18   35    8 1    
    19   36    8 1    
    20   37    9 1    
    21   38    9 1    
    22   11   10 1    
    23   16   10 1    
    24   12   11 1    
    25   14   11 1    
    26   39   11 1    
    27   13   12 2    
    28   17   12 am   
    29   15   14 1    
    30   40   14 1    
    31   41   14 1    
    32   16   15 1    
    33   42   15 1    
    34   43   15 1    
    35   44   16 1    
    36   45   16 1    
    37   18   17 1    
    38   46   17 1    
    39   19   18 1    
    40   47   18 1    
    41   48   18 1    
    42   20   19 ar   
    43   27   19 ar   
    44   21   20 ar   
    45   49   20 1    
    46   22   21 ar   
    47   50   21 1    
    48   23   22 1    
    49   26   22 ar   
    50   24   23 ar   
    51   25   23 ar   
    52   51   24 1    
    53   52   24 1    
    54   53   25 1    
    55   54   25 1    
    56   27   26 ar   
    57   55   26 1    
    58   56   27 1    
@<TRIPOS>SUBSTRUCTURE
     1 45U501      1 GROUP   
@<TRIPOS>SET

