#    Name: 1mok_FAD_2_INTS_M
#    Modification time : Tue Mar 25 11:57:43 2014

@<TRIPOS>MOLECULE
1mok_FAD_2_INTS_M
  112     0     9     0     0
SMALL
NO_CHARGES


@<TRIPOS>ATOM
      1 N          26.8120  -25.8230   27.6240 N.am      2 SEC2        0.0000 
      2 N          27.0730  -26.6030   26.0960 N.am      8 SEL2        0.0000 
      3 N          26.5510  -25.0430   29.1520 N.am      5 SEP2        0.0000 
      4 CA         27.2045  -30.9790   26.1945 C.3       3 GLC5        0.0000 
      5 CA         25.4550  -29.9950   26.6370 C.3       9 GLL5        0.0000 
      6 CA         28.9540  -31.9630   25.7520 C.3       6 GLP5        0.0000 
      7 CA         22.7070  -30.8225   25.5475 C.3       3 GLC5        0.0000 
      8 CA         23.9490  -30.0580   26.7510 C.3       9 GLL5        0.0000 
      9 CA         21.4650  -31.5870   24.3440 C.3       6 GLP5        0.0000 
     10 CA         23.9440  -27.2280   27.8965 C.3       3 GLC5        0.0000 
     11 CA         23.3390  -29.3720   28.0080 C.3       9 GLL5        0.0000 
     12 CA         24.5490  -25.0840   27.7850 C.3       6 GLP5        0.0000 
     13 O          21.1465  -28.9495   27.2300 O.2       1 ALC1        0.0000 
     14 O          22.2180  -28.5950   27.5880 O.2       7 ALL1        0.0000 
     15 O          20.0750  -29.3040   26.8720 O.2       4 ALP1        0.0000 
     16 O          21.1145  -29.4575   28.2255 O.2       1 ALC1        0.0000 
     17 O          20.0110  -30.3200   28.8630 O.2       4 ALP1        0.0000 
     18 O          21.0285  -30.3360   29.3755 O.2       1 ALC1        0.0000 
     19 O          22.0460  -30.3520   29.8880 O.2       7 ALL1        0.0000 
     20 CA         22.0220  -31.5910   26.1275 C.3       3 GLC5        0.0000 
     21 CA         22.5790  -31.5950   27.9110 C.3       9 GLL5        0.0000 
     22 CA         23.1570  -33.3615   26.8165 C.3       3 GLC5        0.0000 
     23 CA         23.7350  -35.1280   25.7220 C.3       6 GLP5        0.0000 
     24 CA         19.1215  -36.0685   29.8805 C.3       3 GLC5        0.0000 
     25 CA         21.2120  -36.0870   29.1620 C.3       9 GLL5        0.0000 
     26 CA         17.0310  -36.0500   30.5990 C.3       6 GLP5        0.0000 
     27 N          18.6170  -36.3765   28.5645 N.am      2 SEC2        0.0000 
     28 N          19.8770  -35.8710   28.7910 N.am      8 SEL2        0.0000 
     29 N          17.3570  -36.8820   28.3380 N.am      5 SEP2        0.0000 
     30 CA         18.5420  -33.1050   28.0655 C.3       3 GLC5        0.0000 
     31 CA         19.4800  -34.6700   28.2840 C.3       9 GLL5        0.0000 
     32 CA         17.6040  -31.5400   27.8470 C.3       6 GLP5        0.0000 
     33 CA         19.5945  -34.2620   29.9715 C.3       3 GLC5        0.0000 
     34 CA         19.7090  -33.8540   31.6590 C.3       6 GLP5        0.0000 
     35 CA         18.2555  -35.3600   29.4415 C.3       3 GLC5        0.0000 
     36 CA         18.6075  -35.7865   27.0960 C.3       3 GLC5        0.0000 
     37 CA         17.7350  -36.9030   25.9080 C.3       6 GLP5        0.0000 
     38 N          19.2615  -32.6340   29.0310 N.am      2 SEC2        0.0000 
     39 N          20.3400  -33.5650   28.0870 N.am      8 SEL2        0.0000 
     40 N          18.1830  -31.7030   29.9750 N.am      5 SEP2        0.0000 
     41 CA         20.6910  -33.8780   30.0800 C.3       3 GLC5        0.0000 
     42 CA         21.6730  -33.9020   28.5010 C.3       9 GLL5        0.0000 
     43 N          34.0420  -22.4955   23.8660 N.am      2 SEC2        0.0000 
     44 N          34.5440  -22.2520   25.3800 N.am      8 SEL2        0.0000 
     45 N          33.5400  -22.7390   22.3520 N.am      5 SEP2        0.0000 
     46 N          34.1020  -21.8680   22.8965 N.am      2 SEC2        0.0000 
     47 N          34.6640  -20.9970   23.4410 N.am      8 SEL2        0.0000 
     48 O          35.0110  -18.5130   25.1970 O.2       1 ALC1        0.0000 
     49 O          35.1060  -19.9180   25.4100 O.2       7 ALL1        0.0000 
     50 O          34.9160  -17.1080   24.9840 O.2       4 ALP1        0.0000 
     51 N          36.2905  -18.3920   28.8640 N.am      2 SEC2        0.0000 
     52 N          35.5670  -18.7540   27.3710 N.am      8 SEL2        0.0000 
     53 N          37.0140  -18.0300   30.3570 N.am      5 SEP2        0.0000 
     54 CA         34.6005  -24.1775   34.7925 C.3       3 GLC5        0.0000 
     55 CA         35.0080  -23.3160   33.3520 C.3       9 GLL5        0.0000 
     56 CA         34.1930  -25.0390   36.2330 C.3       6 GLP5        0.0000 
     57 CA         35.6635  -22.1660   34.6975 C.3       3 GLC5        0.0000 
     58 CA         36.3190  -21.0160   36.0430 C.3       6 GLP5        0.0000 
     59 CA         33.9180  -25.2055   33.2245 C.3       3 GLC5        0.0000 
     60 CA         34.5120  -24.5930   31.1510 C.3       9 GLL5        0.0000 
     61 CA         33.3240  -25.8180   35.2980 C.3       6 GLP5        0.0000 
     62 CA         33.8460  -26.4950   33.3665 C.3       3 GLC5        0.0000 
     63 CA         34.2790  -25.8960   31.8790 C.3       9 GLL5        0.0000 
     64 CA         33.4130  -27.0940   34.8540 C.3       6 GLP5        0.0000 
     65 CA         34.7720  -24.3935   24.7780 C.3       3 GLC5        0.0000 
     66 CA         34.0950  -24.6200   26.8330 C.3       9 GLL5        0.0000 
     67 CA         35.4490  -24.1670   22.7230 C.3       6 GLP5        0.0000 
     68 CA         31.4545  -23.2310   25.3640 C.3       3 GLC5        0.0000 
     69 CA         32.7080  -24.6240   26.3190 C.3       9 GLL5        0.0000 
     70 CA         30.2010  -21.8380   24.4090 C.3       6 GLP5        0.0000 
     71 O          33.1375  -27.4900   24.4820 O.2       1 ALC1        0.0000 
     72 O          33.0740  -26.3850   24.6820 O.2       7 ALL1        0.0000 
     73 O          33.2010  -28.5950   24.2820 O.2       4 ALP1        0.0000 
     74 CA         30.5225  -23.8450   24.7455 C.3       3 GLC5        0.0000 
     75 CA         30.8440  -25.8520   25.0820 C.3       9 GLL5        0.0000 
     76 CA         31.6470  -29.0070   24.8720 C.3       3 GLC5        0.0000 
     77 CA         30.3660  -27.1810   24.6920 C.3       9 GLL5        0.0000 
     78 CA         32.9280  -30.8330   25.0520 C.3       6 GLP5        0.0000 
     79 N          26.6175  -27.1765   22.0365 N.am      2 SEC2        0.0000 
     80 N          27.0550  -28.0710   23.1390 N.am      8 SEL2        0.0000 
     81 N          26.1800  -26.2820   20.9340 N.am      5 SEP2        0.0000 
     82 N          30.4030  -30.1895   23.1035 N.am      2 SEC2        0.0000 
     83 N          29.2200  -29.4280   23.2100 N.am      8 SEL2        0.0000 
     84 N          31.5860  -30.9510   22.9970 N.am      5 SEP2        0.0000 
     85 CA         25.1060  -31.7458   25.9390 C.3       3 GLC5        0.0000 
     86 CA         25.5100  -33.4650   25.1840 C.3       6 GLP5        0.0000 
     87 CA         22.9898  -28.6155   29.8240 C.3       3 GLC5        0.0000 
     88 CA         22.8050  -27.2930   31.2030 C.3       6 GLP5        0.0000 
     89 CA         21.3450  -34.9580   30.6645 C.3       3 GLC5        0.0000 
     90 CA         22.1340  -35.0270   28.9940 C.3       9 GLL5        0.0000 
     91 CA         21.0170  -34.3590   32.2510 C.3       6 GLP5        0.0000 
     92 CA         22.7040  -34.9288   27.2557 C.3       3 GLC5        0.0000 
     93 CA         32.8963  -22.8852   30.0643 C.3       3 GLC5        0.0000 
     94 CA         34.5750  -23.4640   28.9730 C.3       9 GLL5        0.0000 
     95 CA         31.0340  -22.9470   30.8230 C.3       6 GLP5        0.0000 
     96 CA         33.7197  -20.7022   30.1647 C.3       3 GLC5        0.0000 
     97 CA         34.9420  -22.1830   29.6380 C.3       9 GLL5        0.0000 
     98 CA         32.4370  -19.2080   29.9870 C.3       6 GLP5        0.0000 
     99 CA         35.4188  -20.3598   30.6013 C.3       3 GLC5        0.0000 
    100 CA         35.8350  -18.5230   30.8600 C.3       6 GLP5        0.0000 
    101 CA         33.1189  -22.6070   32.2464 C.3       3 GLC5        0.0000 
    102 CA         35.0630  -22.2100   31.0470 C.3       9 GLL5        0.0000 
    103 CA         31.2540  -22.1570   32.0970 C.3       6 GLP5        0.0000 
    104 CA         36.6094  -23.5920   32.3619 C.3       3 GLC5        0.0000 
    105 CA         34.8560  -23.3860   31.8320 C.3       9 GLL5        0.0000 
    106 CA         38.2350  -24.1270   32.3280 C.3       6 GLP5        0.0000 
    107 CA         32.7382  -23.7782   30.6388 C.3       3 GLC5        0.0000 
    108 CA         36.3153  -24.6857   31.9215 C.3       3 GLC5        0.0000 
    109 CA         29.0695  -25.4402   23.7635 C.3       3 GLC5        0.0000 
    110 CA         27.5340  -24.3640   22.6400 C.3       6 GLP5        0.0000 
    111 CA         30.4220  -26.3682   22.9045 C.3       3 GLC5        0.0000 
    112 CA         30.2390  -26.2200   20.9220 C.3       6 GLP5        0.0000 
@<TRIPOS>BOND
@<TRIPOS>SUBSTRUCTURE
     1 ALC1       13 GROUP        1 X    ALC  0     ROOT ALC X 1
     2 SEC2        1 GROUP        1 X    SEC  0     **** SEC X 2
     3 GLC5        4 GROUP        1 X    GLC  0     **** GLC X 6
     4 ALP1       15 GROUP        1 Y    ALP  0     ROOT ALP Y 8
     5 SEP2        3 GROUP        1 Y    SEP  0     **** SEP Y 9
     6 GLP5        6 GROUP        1 Y    GLP  0     **** GLP Y 13
     7 ALL1       14 GROUP        1 Z    ALL  0     ROOT ALL Z 15
     8 SEL2        2 GROUP        1 Z    SEL  0     **** SEL Z 16
     9 GLL5        5 GROUP        1 Z    GLL  0     **** GLL Z 20
@<TRIPOS>SET

