#    Name: 1mok_FAD_2_ligand
#    Modification time : Tue Mar 25 11:57:44 2014

@<TRIPOS>MOLECULE
1mok_FAD_2_ligand
   84    89     1     0     0
SMALL
NO_CHARGES


@<TRIPOS>ATOM
      1 PA         27.2190  -28.0450   26.4920 P.3       1 FAD524      0.0000 
      2 O1A        27.9820  -28.2940   27.7530 O.co2     1 FAD524      0.0000 
      3 O2A        27.0730  -26.6030   26.0960 O.co2     1 FAD524      0.0000 
      4 O5B        25.7570  -28.6120   26.5770 O.3       1 FAD524      0.0000 
      5 C5B        25.4550  -29.9950   26.6370 C.3       1 FAD524      0.0000 
      6 C4B        23.9490  -30.0580   26.7510 C.3       1 FAD524      0.0000 
      7 O4B        23.4550  -31.4310   26.7990 O.3       1 FAD524      0.0000 
      8 C3B        23.3390  -29.3720   28.0080 C.3       1 FAD524      0.0000 
      9 O3B        22.2180  -28.5950   27.5880 O.3       1 FAD524      0.0000 
     10 C2B        23.0100  -30.5040   28.8820 C.3       1 FAD524      0.0000 
     11 O2B        22.0460  -30.3520   29.8880 O.3       1 FAD524      0.0000 
     12 C1B        22.5790  -31.5950   27.9110 C.3       1 FAD524      0.0000 
     13 N9A        22.6830  -32.9370   28.3920 N.pl3     1 FAD524      0.0000 
     14 C8A        23.7950  -33.6640   28.8910 C.2       1 FAD524      0.0000 
     15 N7A        23.5020  -34.8880   29.2500 N.2       1 FAD524      0.0000 
     16 C5A        22.1340  -35.0270   28.9940 C.ar      1 FAD524      0.0000 
     17 C6A        21.2120  -36.0870   29.1620 C.ar      1 FAD524      0.0000 
     18 N6A        21.5640  -37.2770   29.6550 N.pl3     1 FAD524      0.0000 
     19 N1A        19.8770  -35.8710   28.7910 N.ar      1 FAD524      0.0000 
     20 C2A        19.4800  -34.6700   28.2840 C.ar      1 FAD524      0.0000 
     21 N3A        20.3400  -33.5650   28.0870 N.ar      1 FAD524      0.0000 
     22 C4A        21.6730  -33.9020   28.5010 C.ar      1 FAD524      0.0000 
     23 N1         34.5440  -22.2520   25.3800 N.2       1 FAD524      0.0000 
     24 C2         34.7650  -21.0590   24.6850 C.2       1 FAD524      0.0000 
     25 O2         34.6640  -20.9970   23.4410 O.2       1 FAD524      0.0000 
     26 N3         35.1060  -19.9180   25.4100 N.am      1 FAD524      0.0000 
     27 C4         35.2510  -19.8480   26.8220 C.2       1 FAD524      0.0000 
     28 O4         35.5670  -18.7540   27.3710 O.2       1 FAD524      0.0000 
     29 C4X        35.0270  -21.0210   27.4890 C.2       1 FAD524      0.0000 
     30 N5         35.1690  -20.9680   28.9310 N.2       1 FAD524      0.0000 
     31 C5X        34.9420  -22.1830   29.6380 C.ar      1 FAD524      0.0000 
     32 C6         35.0630  -22.2100   31.0470 C.ar      1 FAD524      0.0000 
     33 C7         34.8560  -23.3860   31.8320 C.ar      1 FAD524      0.0000 
     34 C7M        35.0080  -23.3160   33.3520 C.3       1 FAD524      0.0000 
     35 C8         34.5120  -24.5930   31.1510 C.ar      1 FAD524      0.0000 
     36 C8M        34.2790  -25.8960   31.8790 C.3       1 FAD524      0.0000 
     37 C9         34.3730  -24.6260   29.7580 C.ar      1 FAD524      0.0000 
     38 C9A        34.5750  -23.4640   28.9730 C.ar      1 FAD524      0.0000 
     39 N10        34.4560  -23.3970   27.4750 N.pl3     1 FAD524      0.0000 
     40 C10        34.6760  -22.2180   26.7660 C.2       1 FAD524      0.0000 
     41 C1'        34.0950  -24.6200   26.8330 C.3       1 FAD524      0.0000 
     42 C2'        32.7080  -24.6240   26.3190 C.3       1 FAD524      0.0000 
     43 O2'        31.9200  -24.4090   27.4980 O.3       1 FAD524      0.0000 
     44 C3'        32.2200  -25.8930   25.7340 C.3       1 FAD524      0.0000 
     45 O3'        33.0740  -26.3850   24.6820 O.3       1 FAD524      0.0000 
     46 C4'        30.8440  -25.8520   25.0820 C.3       1 FAD524      0.0000 
     47 O4'        29.9320  -25.3470   26.1170 O.3       1 FAD524      0.0000 
     48 C5'        30.3660  -27.1810   24.6920 C.3       1 FAD524      0.0000 
     49 O5'        29.1060  -27.1100   24.0950 O.3       1 FAD524      0.0000 
     50 P          28.3240  -28.4110   23.8170 P.3       1 FAD524      0.0000 
     51 O1P        27.0550  -28.0710   23.1390 O.co2     1 FAD524      0.0000 
     52 O2P        29.2200  -29.4280   23.2100 O.co2     1 FAD524      0.0000 
     53 O3P        28.0410  -28.8060   25.3490 O.3       1 FAD524      0.0000 
     54 H          25.8829  -30.4705   27.5068 H         1 FAD524      0.0000 
     55 H          25.7512  -30.5184   25.7403 H         1 FAD524      0.0000 
     56 H          23.4945  -29.5629   25.8825 H         1 FAD524      0.0000 
     57 H          24.1229  -28.7882   28.4332 H         1 FAD524      0.0000 
     58 H          23.9716  -30.8915   29.3000 H         1 FAD524      0.0000 
     59 H          21.5671  -31.3603   27.5909 H         1 FAD524      0.0000 
     60 H          24.6903  -33.2323   28.9404 H         1 FAD524      0.0000 
     61 H          22.5323  -37.3927   29.8762 H         1 FAD524      0.0000 
     62 H          20.8276  -37.9456   29.7587 H         1 FAD524      0.0000 
     63 H          18.4646  -34.5347   28.0134 H         1 FAD524      0.0000 
     64 H          35.2741  -19.0182   24.8700 H         1 FAD524      0.0000 
     65 H          35.3161  -21.3293   31.5442 H         1 FAD524      0.0000 
     66 H          34.1194  -25.5079   29.2886 H         1 FAD524      0.0000 
     67 H          34.2154  -25.4805   27.5335 H         1 FAD524      0.0000 
     68 H          34.7874  -24.8364   25.9849 H         1 FAD524      0.0000 
     69 H          32.5576  -23.8089   25.6479 H         1 FAD524      0.0000 
     70 H          32.1678  -26.6719   26.5140 H         1 FAD524      0.0000 
     71 H          30.8620  -25.1825   24.2630 H         1 FAD524      0.0000 
     72 H          30.3503  -27.8309   25.5949 H         1 FAD524      0.0000 
     73 H          31.1134  -27.6394   24.0071 H         1 FAD524      0.0000 
     74 H          35.9277  -23.0297   33.6205 H         1 FAD524      0.0000 
     75 H          34.3677  -22.6650   33.7597 H         1 FAD524      0.0000 
     76 H          34.8393  -24.2023   33.7833 H         1 FAD524      0.0000 
     77 H          35.0898  -26.1882   32.3861 H         1 FAD524      0.0000 
     78 H          33.5308  -25.8243   32.5386 H         1 FAD524      0.0000 
     79 H          34.0445  -26.6365   31.2492 H         1 FAD524      0.0000 
     80 H          21.4171  -29.1165   27.8821 H         1 FAD524      0.0000 
     81 H          21.3040  -29.8365   29.4594 H         1 FAD524      0.0000 
     82 H          31.0039  -24.7311   27.2592 H         1 FAD524      0.0000 
     83 H          32.6265  -27.2166   24.3531 H         1 FAD524      0.0000 
     84 H          29.0703  -25.8297   25.9604 H         1 FAD524      0.0000 
@<TRIPOS>BOND
     1    2    1 ar   
     2    3    1 ar   
     3    4    1 1    
     4   53    1 1    
     5    5    4 1    
     6    6    5 1    
     7   54    5 1    
     8   55    5 1    
     9    7    6 1    
    10    8    6 1    
    11   56    6 1    
    12   12    7 1    
    13    9    8 1    
    14   10    8 1    
    15   57    8 1    
    16   80    9 1    
    17   11   10 1    
    18   12   10 1    
    19   58   10 1    
    20   81   11 1    
    21   13   12 1    
    22   59   12 1    
    23   14   13 1    
    24   22   13 1    
    25   15   14 2    
    26   60   14 1    
    27   16   15 1    
    28   17   16 ar   
    29   22   16 ar   
    30   18   17 1    
    31   19   17 ar   
    32   61   18 1    
    33   62   18 1    
    34   20   19 ar   
    35   21   20 ar   
    36   63   20 1    
    37   22   21 ar   
    38   24   23 1    
    39   40   23 2    
    40   25   24 2    
    41   26   24 am   
    42   27   26 am   
    43   64   26 1    
    44   28   27 2    
    45   29   27 1    
    46   30   29 2    
    47   40   29 1    
    48   31   30 1    
    49   32   31 ar   
    50   38   31 ar   
    51   33   32 ar   
    52   65   32 1    
    53   34   33 1    
    54   35   33 ar   
    55   74   34 1    
    56   75   34 1    
    57   76   34 1    
    58   36   35 1    
    59   37   35 ar   
    60   77   36 1    
    61   78   36 1    
    62   79   36 1    
    63   38   37 ar   
    64   66   37 1    
    65   39   38 1    
    66   40   39 1    
    67   41   39 1    
    68   42   41 1    
    69   67   41 1    
    70   68   41 1    
    71   43   42 1    
    72   44   42 1    
    73   69   42 1    
    74   82   43 1    
    75   45   44 1    
    76   46   44 1    
    77   70   44 1    
    78   83   45 1    
    79   47   46 1    
    80   48   46 1    
    81   71   46 1    
    82   84   47 1    
    83   49   48 1    
    84   72   48 1    
    85   73   48 1    
    86   50   49 1    
    87   51   50 ar   
    88   52   50 ar   
    89   53   50 1    
@<TRIPOS>SUBSTRUCTURE
     1 FAD524      1 GROUP   
@<TRIPOS>SET

