#    Name: 1m7q_DQO_1_INTS_M
#    Modification time : Tue Mar 25 11:26:45 2014

@<TRIPOS>MOLECULE
1m7q_DQO_1_INTS_M
   76     0     9     0     0
SMALL
NO_CHARGES


@<TRIPOS>ATOM
      1 O          43.3840   36.7100   32.0730 O.2       1 ALC1        0.0000 
      2 O          44.2620   35.5890   31.8680 O.2       7 ALL1        0.0000 
      3 O          42.5060   37.8310   32.2780 O.2       4 ALP1        0.0000 
      4 CA         41.7300   34.9590   31.9070 C.3       3 GLC5        0.0000 
      5 CA         43.3460   34.4680   31.7410 C.3       9 GLL5        0.0000 
      6 CA         40.1140   35.4500   32.0730 C.3       6 GLP5        0.0000 
      7 CA         43.9745   33.3260   33.2775 C.3       3 GLC5        0.0000 
      8 CA         44.6030   32.1840   34.8140 C.3       6 GLP5        0.0000 
      9 N          46.1055   37.7810   32.2300 N.am      2 SEC2        0.0000 
     10 N          46.2070   36.5930   31.8800 N.am      8 SEL2        0.0000 
     11 N          46.0040   38.9690   32.5800 N.am      5 SEP2        0.0000 
     12 N          47.3895   37.5355   31.8650 N.am      2 SEC2        0.0000 
     13 N          48.5720   38.4780   31.8500 N.am      5 SEP2        0.0000 
     14 CA         38.2295   30.9905   34.2775 C.3       3 GLC5        0.0000 
     15 CA         39.5880   31.4310   32.7000 C.3       9 GLL5        0.0000 
     16 CA         36.8710   30.5500   35.8550 C.3       6 GLP5        0.0000 
     17 CA         39.2010   30.3555   30.1685 C.3       3 GLC5        0.0000 
     18 CA         38.8120   31.9600   31.6220 C.3       9 GLL5        0.0000 
     19 CA         39.5900   28.7510   28.7150 C.3       6 GLP5        0.0000 
     20 CA         50.9185   32.8815   33.5420 C.3       3 GLC5        0.0000 
     21 CA         49.7750   33.8300   32.0280 C.3       9 GLL5        0.0000 
     22 CA         52.0620   31.9330   35.0560 C.3       6 GLP5        0.0000 
     23 CA         41.9855   31.7770   27.8355 C.3       3 GLC5        0.0000 
     24 CA         41.3250   32.9390   29.1860 C.3       9 GLL5        0.0000 
     25 CA         42.6460   30.6150   26.4850 C.3       6 GLP5        0.0000 
     26 CA         35.6830   32.7885   32.3115 C.3       3 GLC5        0.0000 
     27 CA         37.4810   31.9890   31.7250 C.3       9 GLL5        0.0000 
     28 CA         33.8850   33.5880   32.8980 C.3       6 GLP5        0.0000 
     29 CA         38.1575   33.9140   32.2280 C.3       3 GLC5        0.0000 
     30 CA         38.8340   35.8390   32.7310 C.3       6 GLP5        0.0000 
     31 CA         46.7025   34.9340   26.5120 C.3       3 GLC5        0.0000 
     32 CA         46.8400   34.9750   28.5960 C.3       9 GLL5        0.0000 
     33 CA         46.5650   34.8930   24.4280 C.3       6 GLP5        0.0000 
     34 CA         46.1830   36.8050   28.5465 C.3       3 GLC5        0.0000 
     35 CA         45.5260   38.6350   28.4970 C.3       6 GLP5        0.0000 
     36 CA         50.0125   32.6850   34.5185 C.3       3 GLC5        0.0000 
     37 CA         47.9630   33.4370   33.9810 C.3       9 GLL5        0.0000 
     38 CA         46.2830   32.8105   34.3975 C.3       3 GLC5        0.0000 
     39 CA         45.3925   27.9865   27.7500 C.3       3 GLC5        0.0000 
     40 CA         46.1520   28.9520   29.4020 C.3       9 GLL5        0.0000 
     41 CA         44.6330   27.0210   26.0980 C.3       6 GLP5        0.0000 
     42 CA         45.6220   26.6550   28.0300 C.3       3 GLC5        0.0000 
     43 CA         45.9120   27.4140   29.5260 C.3       9 GLL5        0.0000 
     44 CA         45.3320   25.8960   26.5340 C.3       6 GLP5        0.0000 
     45 CA         43.0265   35.0293   30.2280 C.3       3 GLC5        0.0000 
     46 CA         43.9700   33.1090   31.4590 C.3       9 GLL5        0.0000 
     47 CA         42.3950   36.2700   28.8560 C.3       6 GLP5        0.0000 
     48 CA         44.0838   32.3475   33.1007 C.3       3 GLC5        0.0000 
     49 CA         44.5607   31.4022   32.9123 C.3       3 GLC5        0.0000 
     50 CA         43.8110   30.6620   31.0680 C.3       9 GLL5        0.0000 
     51 CA         45.1560   32.2903   33.0080 C.3       3 GLC5        0.0000 
     52 CA         46.0080   31.7440   31.0740 C.3       9 GLL5        0.0000 
     53 CA         40.7248   33.5577   32.0403 C.3       3 GLC5        0.0000 
     54 CA         41.6580   31.9160   31.4240 C.3       9 GLL5        0.0000 
     55 CA         42.9693   31.9247   33.4108 C.3       3 GLC5        0.0000 
     56 CA         40.4218   32.5295   34.4477 C.3       3 GLC5        0.0000 
     57 CA         41.0130   31.4150   32.5910 C.3       9 GLL5        0.0000 
     58 CA         40.5430   33.6360   36.2500 C.3       6 GLP5        0.0000 
     59 CA         39.6570   33.5727   32.1170 C.3       3 GLC5        0.0000 
     60 CA         36.9378   30.8242   32.7272 C.3       3 GLC5        0.0000 
     61 CA         35.7290   29.6740   33.7810 C.3       6 GLP5        0.0000 
     62 CA         41.7373   34.4790   29.3117 C.3       3 GLC5        0.0000 
     63 CA         40.8340   32.4370   30.3490 C.3       9 GLL5        0.0000 
     64 CA         47.8938   34.4002   34.8590 C.3       3 GLC5        0.0000 
     65 CA         48.3920   33.8600   32.3530 C.3       9 GLL5        0.0000 
     66 CA         47.6100   35.1520   36.5510 C.3       6 GLP5        0.0000 
     67 CA         49.7822   36.4410   30.6367 C.3       3 GLC5        0.0000 
     68 CA         50.2240   34.1480   30.7010 C.3       9 GLL5        0.0000 
     69 CA         49.8040   38.5590   31.0870 C.3       6 GLP5        0.0000 
     70 CA         50.8899   35.0787   32.1724 C.3       3 GLC5        0.0000 
     71 CA         52.1260   36.1610   32.8990 C.3       6 GLP5        0.0000 
     72 CA         39.9296   31.6830   28.5526 C.3       3 GLC5        0.0000 
     73 CA         39.1320   30.6720   27.3140 C.3       6 GLP5        0.0000 
     74 CA         40.4206   34.0720   30.9321 C.3       3 GLC5        0.0000 
     75 CA         36.7049   31.7809   30.5295 C.3       3 GLC5        0.0000 
     76 CA         35.1100   31.4620   29.6800 C.3       6 GLP5        0.0000 
@<TRIPOS>BOND
@<TRIPOS>SUBSTRUCTURE
     1 ALC1        1 GROUP        1 X    ALC  0     ROOT ALC X 1
     2 SEC2        9 GROUP        1 X    SEC  0     **** SEC X 2
     3 GLC5        4 GROUP        1 X    GLC  0     **** GLC X 6
     4 ALP1        3 GROUP        1 Y    ALP  0     ROOT ALP Y 8
     5 SEP2       11 GROUP        1 Y    SEP  0     **** SEP Y 9
     6 GLP5        6 GROUP        1 Y    GLP  0     **** GLP Y 13
     7 ALL1        2 GROUP        1 Z    ALL  0     ROOT ALL Z 15
     8 SEL2       10 GROUP        1 Z    SEL  0     **** SEL Z 16
     9 GLL5        5 GROUP        1 Z    GLL  0     **** GLL Z 20
@<TRIPOS>SET

