#    Name: 1m7q_DQO_1_ligand
#    Modification time : Tue Mar 25 11:26:45 2014

@<TRIPOS>MOLECULE
1m7q_DQO_1_ligand
   52    56     1     0     0
SMALL
NO_CHARGES


@<TRIPOS>ATOM
      1 C1         43.9700   33.1090   31.4590 C.ar      1 DQO501      0.0000 
      2 C2         43.1590   31.9130   31.3160 C.ar      1 DQO501      0.0000 
      3 C3         43.8110   30.6620   31.0680 C.ar      1 DQO501      0.0000 
      4 C4         45.2260   30.5790   30.9530 C.ar      1 DQO501      0.0000 
      5 C5         46.0080   31.7440   31.0740 C.ar      1 DQO501      0.0000 
      6 C6         45.4100   33.0490   31.3300 C.ar      1 DQO501      0.0000 
      7 N9         45.9420   29.5640   30.7570 N.3       1 DQO501      0.0000 
      8 C10        41.6580   31.9160   31.4240 C.ar      1 DQO501      0.0000 
      9 N11        46.1960   34.2930   31.4760 N.am      1 DQO501      0.0000 
     10 C12        45.5900   35.5440   31.7460 C.2       1 DQO501      0.0000 
     11 N13        44.2620   35.5890   31.8680 N.am      1 DQO501      0.0000 
     12 C14        43.3460   34.4680   31.7410 C.3       1 DQO501      0.0000 
     13 O18        46.2070   36.5930   31.8800 O.2       1 DQO501      0.0000 
     14 C19        47.3830   34.2240   31.3460 C.ar      1 DQO501      0.0000 
     15 C20        41.0130   31.4150   32.5910 C.ar      1 DQO501      0.0000 
     16 C21        39.5880   31.4310   32.7000 C.ar      1 DQO501      0.0000 
     17 C22        38.8120   31.9600   31.6220 C.ar      1 DQO501      0.0000 
     18 C23        39.4250   32.4610   30.4440 C.ar      1 DQO501      0.0000 
     19 C24        40.8340   32.4370   30.3490 C.ar      1 DQO501      0.0000 
     20 C28        48.3920   33.8600   32.3530 C.ar      1 DQO501      0.0000 
     21 C29        49.7750   33.8300   32.0280 C.ar      1 DQO501      0.0000 
     22 C30        50.2240   34.1480   30.7010 C.ar      1 DQO501      0.0000 
     23 C31        49.2970   34.4980   29.6720 C.ar      1 DQO501      0.0000 
     24 C32        47.9020   34.5410   29.9590 C.ar      1 DQO501      0.0000 
     25 F36        41.3250   32.9390   29.1860 F         1 DQO501      0.0000 
     26 F37        37.4810   31.9890   31.7250 F         1 DQO501      0.0000 
     27 CL38       46.8400   34.9750   28.5960 Cl        1 DQO501      0.0000 
     28 CL39       47.9630   33.4370   33.9810 Cl        1 DQO501      0.0000 
     29 C40        46.1520   28.9520   29.4020 C.3       1 DQO501      0.0000 
     30 C41        45.9120   27.4140   29.5260 C.3       1 DQO501      0.0000 
     31 N42        46.6400   26.7970   30.6970 N.4       1 DQO501      0.0000 
     32 C43        46.3320   27.4280   32.0110 C.3       1 DQO501      0.0000 
     33 C44        46.5970   28.9550   31.9860 C.3       1 DQO501      0.0000 
     34 H          43.2437   29.8140   30.9724 H         1 DQO501      0.0000 
     35 H          47.0305   31.6951   30.9827 H         1 DQO501      0.0000 
     36 H          43.7792   36.5245   32.0808 H         1 DQO501      0.0000 
     37 H          42.7249   34.3680   32.6711 H         1 DQO501      0.0000 
     38 H          42.5963   34.6703   30.9298 H         1 DQO501      0.0000 
     39 H          41.5724   31.0402   33.3585 H         1 DQO501      0.0000 
     40 H          39.1347   31.0732   33.5280 H         1 DQO501      0.0000 
     41 H          38.8612   32.8273   29.6892 H         1 DQO501      0.0000 
     42 H          50.4622   33.5806   32.7404 H         1 DQO501      0.0000 
     43 H          51.2247   34.1224   30.4929 H         1 DQO501      0.0000 
     44 H          49.6329   34.7153   28.7390 H         1 DQO501      0.0000 
     45 H          47.1620   29.1100   29.0656 H         1 DQO501      0.0000 
     46 H          45.4462   29.3476   28.6923 H         1 DQO501      0.0000 
     47 H          46.2398   26.9441   28.5913 H         1 DQO501      0.0000 
     48 H          44.8331   27.2470   29.6255 H         1 DQO501      0.0000 
     49 H          46.9504   26.9896   32.7997 H         1 DQO501      0.0000 
     50 H          45.2818   27.2706   32.2737 H         1 DQO501      0.0000 
     51 H          46.1800   29.3945   32.8821 H         1 DQO501      0.0000 
     52 H          47.6654   29.1216   31.9552 H         1 DQO501      0.0000 
@<TRIPOS>BOND
     1    2    1 ar   
     2    6    1 ar   
     3   12    1 1    
     4    3    2 ar   
     5    8    2 1    
     6    4    3 ar   
     7   34    3 1    
     8    5    4 ar   
     9    7    4 1    
    10    6    5 ar   
    11   35    5 1    
    12    9    6 1    
    13   29    7 1    
    14   33    7 1    
    15   15    8 ar   
    16   19    8 ar   
    17   10    9 am   
    18   14    9 1    
    19   11   10 am   
    20   13   10 2    
    21   12   11 1    
    22   36   11 1    
    23   37   12 1    
    24   38   12 1    
    25   20   14 ar   
    26   24   14 ar   
    27   16   15 ar   
    28   39   15 1    
    29   17   16 ar   
    30   40   16 1    
    31   18   17 ar   
    32   26   17 1    
    33   19   18 ar   
    34   41   18 1    
    35   25   19 1    
    36   21   20 ar   
    37   28   20 1    
    38   22   21 ar   
    39   42   21 1    
    40   23   22 ar   
    41   43   22 1    
    42   24   23 ar   
    43   44   23 1    
    44   27   24 1    
    45   30   29 1    
    46   45   29 1    
    47   46   29 1    
    48   31   30 1    
    49   47   30 1    
    50   48   30 1    
    51   32   31 1    
    52   33   32 1    
    53   49   32 1    
    54   50   32 1    
    55   51   33 1    
    56   52   33 1    
@<TRIPOS>SUBSTRUCTURE
     1 DQO501      1 GROUP   
@<TRIPOS>SET

