#    Name: 1hvy_D16_3_INTS_M
#    Modification time : Tue Mar 25 06:19:25 2014

@<TRIPOS>MOLECULE
1hvy_D16_3_INTS_M
   50     0     6     0     0
SMALL
NO_CHARGES


@<TRIPOS>ATOM
      1 CA         32.8220   42.9375   43.9635 C.3       2 GLC5        0.0000 
      2 CA         31.6700   42.3090   42.7060 C.3       6 GLL5        0.0000 
      3 CA         33.9740   43.5660   45.2210 C.3       4 GLP5        0.0000 
      4 CA         29.9855   41.1445   42.8455 C.3       2 GLC5        0.0000 
      5 CA         28.3010   39.9800   42.9850 C.3       4 GLP5        0.0000 
      6 CA         30.5855   43.4400   43.9825 C.3       2 GLC5        0.0000 
      7 CA         29.5010   44.5710   45.2590 C.3       4 GLP5        0.0000 
      8 CA         33.0470   42.4985   41.3990 C.3       2 GLC5        0.0000 
      9 CA         34.4240   42.6880   40.0920 C.3       4 GLP5        0.0000 
     10 N          32.9620   40.0805   43.8070 N.am      1 SEC2        0.0000 
     11 N          32.5510   40.0570   42.4820 N.am      5 SEL2        0.0000 
     12 N          33.3730   40.1040   45.1320 N.am      3 SEP2        0.0000 
     13 CA         31.8535   36.4175   36.1980 C.3       2 GLC5        0.0000 
     14 CA         31.4270   35.9340   37.8500 C.3       6 GLL5        0.0000 
     15 CA         32.2800   36.9010   34.5460 C.3       4 GLP5        0.0000 
     16 CA         31.4530   32.0335   38.6420 C.3       2 GLC5        0.0000 
     17 CA         32.4290   33.0550   40.1300 C.3       6 GLL5        0.0000 
     18 CA         30.4770   31.0120   37.1540 C.3       4 GLP5        0.0000 
     19 CA         30.1420   33.3385   45.3735 C.3       2 GLC5        0.0000 
     20 CA         29.3110   31.7050   44.8170 C.3       6 GLL5        0.0000 
     21 CA         30.9730   34.9720   45.9300 C.3       4 GLP5        0.0000 
     22 CA         31.9340   32.6885   37.4125 C.3       2 GLC5        0.0000 
     23 CA         33.3910   34.3650   37.6710 C.3       6 GLL5        0.0000 
     24 CA         32.9350   34.9550   36.0730 C.3       2 GLC5        0.0000 
     25 CA         32.4790   35.5450   34.4750 C.3       4 GLP5        0.0000 
     26 CA         34.3675   36.2915   37.6405 C.3       2 GLC5        0.0000 
     27 CA         35.3440   38.2180   37.6100 C.3       4 GLP5        0.0000 
     28 CA         29.9322   39.0652   40.9262 C.3       2 GLC5        0.0000 
     29 CA         32.0440   38.6160   40.6080 C.3       6 GLL5        0.0000 
     30 CA         28.2180   38.9740   41.5070 C.3       4 GLP5        0.0000 
     31 CA         33.5463   39.8688   40.4192 C.3       2 GLC5        0.0000 
     32 CA         31.2490   39.6970   40.0830 C.3       6 GLL5        0.0000 
     33 CA         35.4460   40.5810   40.4930 C.3       4 GLP5        0.0000 
     34 CA         33.5595   37.7570   38.4423 C.3       2 GLC5        0.0000 
     35 CA         32.1300   37.3810   39.9020 C.3       6 GLL5        0.0000 
     36 CA         31.5065   39.7690   36.8350 C.3       2 GLC5        0.0000 
     37 CA         30.6500   38.2930   38.1300 C.3       6 GLL5        0.0000 
     38 CA         32.4060   40.6310   35.1850 C.3       4 GLP5        0.0000 
     39 CA         29.4125   38.9405   39.9960 C.3       2 GLC5        0.0000 
     40 CA         29.8925   32.0940   40.5250 C.3       2 GLC5        0.0000 
     41 CA         30.5990   33.3220   41.6290 C.3       6 GLL5        0.0000 
     42 CA         28.6230   31.2360   39.5510 C.3       4 GLP5        0.0000 
     43 CA         29.8300   33.2685   39.1907 C.3       2 GLC5        0.0000 
     44 CA         30.3630   34.5390   40.4640 C.3       6 GLL5        0.0000 
     45 CA         28.5890   32.2060   38.3790 C.3       4 GLP5        0.0000 
     46 CA         33.7000   31.9503   41.6093 C.3       2 GLC5        0.0000 
     47 CA         35.3230   31.0820   42.4690 C.3       4 GLP5        0.0000 
     48 CA         28.3155   28.8305   43.6380 C.3       2 GLC5        0.0000 
     49 CA         28.5810   30.3710   44.7070 C.3       6 GLL5        0.0000 
     50 CA         28.7530   27.3870   42.3270 C.3       4 GLP5        0.0000 
@<TRIPOS>BOND
@<TRIPOS>SUBSTRUCTURE
     1 SEC2       10 GROUP        1 X    SEC  0     ROOT SEC X 2
     2 GLC5        1 GROUP        1 X    GLC  0     **** GLC X 6
     3 SEP2       12 GROUP        1 Y    SEP  0     ROOT SEP Y 9
     4 GLP5        3 GROUP        1 Y    GLP  0     **** GLP Y 13
     5 SEL2       11 GROUP        1 Z    SEL  0     ROOT SEL Z 16
     6 GLL5        2 GROUP        1 Z    GLL  0     **** GLL Z 20
@<TRIPOS>SET

