#    Name: 1hvy_D16_3_ligand
#    Modification time : Tue Mar 25 06:19:25 2014

@<TRIPOS>MOLECULE
1hvy_D16_3_ligand
   52    54     1     0     0
SMALL
NO_CHARGES


@<TRIPOS>ATOM
      1 N1         31.1500   40.8690   40.7760 N.pl3     1 D16416      0.0000 
      2 C2         31.7850   41.0490   41.9630 C.2       1 D16416      0.0000 
      3 CM2        31.6700   42.3090   42.7060 C.3       1 D16416      0.0000 
      4 N3         32.5510   40.0570   42.4820 N.2       1 D16416      0.0000 
      5 C4         32.6960   38.8650   41.8430 C.2       1 D16416      0.0000 
      6 O4         33.5020   37.9320   42.4180 O.2       1 D16416      0.0000 
      7 C4A        32.0440   38.6160   40.6080 C.ar      1 D16416      0.0000 
      8 C5         32.1300   37.3810   39.9020 C.ar      1 D16416      0.0000 
      9 C6         31.4200   37.2110   38.6470 C.ar      1 D16416      0.0000 
     10 C7         30.6500   38.2930   38.1300 C.ar      1 D16416      0.0000 
     11 C8         30.5640   39.5210   38.8400 C.ar      1 D16416      0.0000 
     12 C8A        31.2490   39.6970   40.0830 C.ar      1 D16416      0.0000 
     13 C9         31.4270   35.9340   37.8500 C.3       1 D16416      0.0000 
     14 N10        32.1860   34.7790   38.4010 N.pl3     1 D16416      0.0000 
     15 C11        30.5990   33.3220   41.6290 C.2       1 D16416      0.0000 
     16 S13        30.3630   34.5390   40.4640 S.3       1 D16416      0.0000 
     17 C14        31.7790   34.1230   39.5410 C.2       1 D16416      0.0000 
     18 C15        32.4290   33.0550   40.1300 C.2       1 D16416      0.0000 
     19 C16        31.7250   32.5820   41.3690 C.2       1 D16416      0.0000 
     20 C          29.7320   33.0890   42.7670 C.2       1 D16416      0.0000 
     21 O          28.7340   33.8070   42.9240 O.2       1 D16416      0.0000 
     22 N          30.0570   32.0990   43.6060 N.am      1 D16416      0.0000 
     23 CA         29.3110   31.7050   44.8170 C.3       1 D16416      0.0000 
     24 CB         28.5810   30.3710   44.7070 C.3       1 D16416      0.0000 
     25 CG         27.1750   30.1770   45.1910 C.3       1 D16416      0.0000 
     26 CD         26.2880   29.9230   43.9770 C.2       1 D16416      0.0000 
     27 OE1        25.9080   30.8710   43.2820 O.co2     1 D16416      0.0000 
     28 OE2        25.9550   28.7710   43.7000 O.co2     1 D16416      0.0000 
     29 CT         30.3330   31.5860   45.9450 C.2       1 D16416      0.0000 
     30 O1         31.5160   31.2900   45.6710 O.co2     1 D16416      0.0000 
     31 O2         29.9620   31.7920   47.1030 O.co2     1 D16416      0.0000 
     32 CP1        33.3910   34.3650   37.6710 C.3       1 D16416      0.0000 
     33 H          30.5690   41.6470   40.3798 H         1 D16416      0.0000 
     34 H          32.6831   36.6150   40.2658 H         1 D16416      0.0000 
     35 H          30.1570   38.1834   37.2426 H         1 D16416      0.0000 
     36 H          30.0071   40.2898   38.4612 H         1 D16416      0.0000 
     37 H          31.8110   36.1646   36.8169 H         1 D16416      0.0000 
     38 H          30.3596   35.6206   37.6758 H         1 D16416      0.0000 
     39 H          33.2303   32.6255   39.8344 H         1 D16416      0.0000 
     40 H          32.0745   31.8462   41.8705 H         1 D16416      0.0000 
     41 H          30.9287   31.5071   43.4289 H         1 D16416      0.0000 
     42 H          28.6124   32.4721   45.0997 H         1 D16416      0.0000 
     43 H          29.2433   29.5789   45.2043 H         1 D16416      0.0000 
     44 H          28.6297   30.0463   43.6090 H         1 D16416      0.0000 
     45 H          26.8309   31.0652   45.7017 H         1 D16416      0.0000 
     46 H          27.1231   29.3239   45.8525 H         1 D16416      0.0000 
     47 H          32.1937   42.2871   43.5576 H         1 D16416      0.0000 
     48 H          32.0075   43.0858   42.1743 H         1 D16416      0.0000 
     49 H          30.7215   42.5109   42.9502 H         1 D16416      0.0000 
     50 H          34.0652   35.1018   37.6189 H         1 D16416      0.0000 
     51 H          33.8410   33.5863   38.1083 H         1 D16416      0.0000 
     52 H          33.1812   34.0928   36.7319 H         1 D16416      0.0000 
@<TRIPOS>BOND
     1    2    1 1    
     2   12    1 1    
     3   33    1 1    
     4    3    2 1    
     5    4    2 2    
     6   47    3 1    
     7   48    3 1    
     8   49    3 1    
     9    5    4 1    
    10    6    5 2    
    11    7    5 1    
    12    8    7 ar   
    13   12    7 ar   
    14    9    8 ar   
    15   34    8 1    
    16   10    9 ar   
    17   13    9 1    
    18   11   10 ar   
    19   35   10 1    
    20   12   11 ar   
    21   36   11 1    
    22   14   13 1    
    23   37   13 1    
    24   38   13 1    
    25   17   14 1    
    26   32   14 1    
    27   16   15 1    
    28   19   15 2    
    29   20   15 1    
    30   17   16 1    
    31   18   17 2    
    32   19   18 1    
    33   39   18 1    
    34   40   19 1    
    35   21   20 2    
    36   22   20 am   
    37   23   22 1    
    38   41   22 1    
    39   24   23 1    
    40   29   23 1    
    41   42   23 1    
    42   25   24 1    
    43   43   24 1    
    44   44   24 1    
    45   26   25 1    
    46   45   25 1    
    47   46   25 1    
    48   27   26 ar   
    49   28   26 ar   
    50   30   29 ar   
    51   31   29 ar   
    52   50   32 1    
    53   51   32 1    
    54   52   32 1    
@<TRIPOS>SUBSTRUCTURE
     1 D16416      1 GROUP   
@<TRIPOS>SET

