#    Name: 3kdc_JZP_1_INTS_M
#    Modification time : Mon Mar 24 19:17:31 2014

@<TRIPOS>MOLECULE
3kdc_JZP_1_INTS_M
  113     0     9     0     0
SMALL
NO_CHARGES


@<TRIPOS>ATOM
      1 CA         12.2025   19.6965   21.5210 C.3       3 GLC5        0.0000 
      2 CA         12.3610   17.6690   21.3570 C.3       9 GLL5        0.0000 
      3 CA         12.0440   21.7240   21.6850 C.3       6 GLP5        0.0000 
      4 CA         13.4820   17.3570   22.8245 C.3       3 GLC5        0.0000 
      5 CA         14.6030   17.0450   24.2920 C.3       6 GLP5        0.0000 
      6 CA         13.6815   16.1650   21.4325 C.3       3 GLC5        0.0000 
      7 CA         15.0020   14.6610   21.5080 C.3       6 GLP5        0.0000 
      8 CA         15.5610   18.5325   19.7175 C.3       3 GLC5        0.0000 
      9 CA         13.8830   18.8690   18.4160 C.3       9 GLL5        0.0000 
     10 CA         17.2390   18.1960   21.0190 C.3       6 GLP5        0.0000 
     11 CA         15.2365   18.4110   16.8860 C.3       3 GLC5        0.0000 
     12 CA         16.5900   17.9530   15.3560 C.3       6 GLP5        0.0000 
     13 CA         10.0465   16.4540   21.7965 C.3       3 GLC5        0.0000 
     14 CA         10.4720   16.3220   19.8200 C.3       9 GLL5        0.0000 
     15 CA          9.6210   16.5860   23.7730 C.3       6 GLP5        0.0000 
     16 CA         12.4310   15.5815   19.7595 C.3       3 GLC5        0.0000 
     17 CA         11.4100   17.3510   19.8710 C.3       9 GLL5        0.0000 
     18 CA         13.4520   13.8120   19.6480 C.3       6 GLP5        0.0000 
     19 CA         11.3250   20.0320   19.6120 C.3       3 GLC5        0.0000 
     20 CA         11.6040   18.2030   18.6760 C.3       9 GLL5        0.0000 
     21 CA         11.0460   21.8610   20.5480 C.3       6 GLP5        0.0000 
     22 N          15.2025   25.7195   17.1855 N.am      2 SEC2        0.0000 
     23 N          16.3310   25.1970   17.9420 N.am      8 SEL2        0.0000 
     24 N          14.0740   26.2420   16.4290 N.am      5 SEP2        0.0000 
     25 CA         12.9755   24.1605   18.4755 C.3       3 GLC5        0.0000 
     26 CA         15.0390   23.3230   18.5620 C.3       9 GLL5        0.0000 
     27 CA         10.9120   24.9980   18.3890 C.3       6 GLP5        0.0000 
     28 N          13.9955   25.2245   17.5265 N.am      2 SEC2        0.0000 
     29 N          13.9170   24.2070   18.6240 N.am      8 SEL2        0.0000 
     30 O          13.6770   24.8750   19.6735 O.2       1 ALC1        0.0000 
     31 O          13.9170   24.2070   18.6240 O.2       7 ALL1        0.0000 
     32 O          13.4370   25.5430   20.7230 O.2       4 ALP1        0.0000 
     33 CA         16.4125   22.1385   13.3480 C.3       3 GLC5        0.0000 
     34 CA         14.9490   21.2490   14.4360 C.3       9 GLL5        0.0000 
     35 CA         17.8760   23.0280   12.2600 C.3       6 GLP5        0.0000 
     36 CA         11.3170   23.4150   14.9230 C.3       3 GLC5        0.0000 
     37 CA         12.6140   21.7490   14.8250 C.3       9 GLL5        0.0000 
     38 CA         10.0200   25.0810   15.0210 C.3       6 GLP5        0.0000 
     39 CA         16.6820   20.1545   13.2725 C.3       3 GLC5        0.0000 
     40 CA         14.5820   20.2760   13.5060 C.3       9 GLL5        0.0000 
     41 CA         18.7820   20.0330   13.0390 C.3       6 GLP5        0.0000 
     42 CA         17.3530   20.2485   20.4150 C.3       3 GLC5        0.0000 
     43 CA         17.4670   22.3010   19.8110 C.3       9 GLL5        0.0000 
     44 CA         16.5515   21.5225   21.4440 C.3       3 GLC5        0.0000 
     45 CA         15.6360   20.7440   23.0770 C.3       6 GLP5        0.0000 
     46 CA         21.3570   22.5265   18.6890 C.3       3 GLC5        0.0000 
     47 CA         21.0490   23.9300   20.0560 C.3       9 GLL5        0.0000 
     48 CA         21.6650   21.1230   17.3220 C.3       6 GLP5        0.0000 
     49 CA         18.6880   25.7400   22.6425 C.3       3 GLC5        0.0000 
     50 CA         19.2370   24.5230   21.6310 C.3       9 GLL5        0.0000 
     51 CA         18.1390   26.9570   23.6540 C.3       6 GLP5        0.0000 
     52 CA         18.1170   23.8215   23.0330 C.3       3 GLC5        0.0000 
     53 CA         16.9970   23.1200   24.4350 C.3       6 GLP5        0.0000 
     54 CA         20.3775   21.6350   18.8870 C.3       3 GLC5        0.0000 
     55 CA         19.0900   22.1470   20.4520 C.3       9 GLL5        0.0000 
     56 CA         18.8500   20.0810   20.4305 C.3       3 GLC5        0.0000 
     57 CA         18.6100   18.0150   20.4090 C.3       6 GLP5        0.0000 
     58 CA         19.9315   22.8085   22.4130 C.3       3 GLC5        0.0000 
     59 CA         20.7730   23.4700   24.3740 C.3       6 GLP5        0.0000 
     60 O          19.1100   26.5885   18.6955 O.2       1 ALC1        0.0000 
     61 O          19.9230   25.5870   17.5570 O.2       7 ALL1        0.0000 
     62 O          18.2970   27.5900   19.8340 O.2       4 ALP1        0.0000 
     63 N          20.6545   28.9220   17.6210 N.am      2 SEC2        0.0000 
     64 N          21.6270   27.5140   17.8270 N.am      8 SEL2        0.0000 
     65 N          19.6820   30.3300   17.4150 N.am      5 SEP2        0.0000 
     66 CA         19.2615   27.3030   16.8995 C.3       3 GLC5        0.0000 
     67 CA         20.7920   25.7330   16.4030 C.3       9 GLL5        0.0000 
     68 CA         17.7310   28.8730   17.3960 C.3       6 GLP5        0.0000 
     69 CA         16.6950   25.7720   12.9845 C.3       3 GLC5        0.0000 
     70 CA         18.3920   26.5040   13.5630 C.3       9 GLL5        0.0000 
     71 CA         14.9980   25.0400   12.4060 C.3       6 GLP5        0.0000 
     72 CA         20.7790   29.9060   13.2195 C.3       3 GLC5        0.0000 
     73 CA         20.2490   28.1080   13.5820 C.3       9 GLL5        0.0000 
     74 CA         21.3090   31.7040   12.8570 C.3       6 GLP5        0.0000 
     75 CA         21.3915   28.8990   11.8505 C.3       3 GLC5        0.0000 
     76 CA         22.5340   29.6900   10.1190 C.3       6 GLP5        0.0000 
     77 CA         16.8685   27.8935   13.1815 C.3       3 GLC5        0.0000 
     78 CA         19.0570   27.6210   13.0310 C.3       9 GLL5        0.0000 
     79 CA         14.6800   28.1660   13.3320 C.3       6 GLP5        0.0000 
     80 CA         21.9660   29.5650   16.4755 C.3       3 GLC5        0.0000 
     81 CA         22.0080   27.7460   15.4610 C.3       9 GLL5        0.0000 
     82 CA         21.9240   31.3840   17.4900 C.3       6 GLP5        0.0000 
     83 CA         22.9975   26.7325   13.8680 C.3       3 GLC5        0.0000 
     84 CA         23.9870   25.7190   12.2750 C.3       6 GLP5        0.0000 
     85 CA         10.7532   17.0480   22.1935 C.3       3 GLC5        0.0000 
     86 CA          8.7807   17.3835   19.6540 C.3       3 GLC5        0.0000 
     87 CA          7.4630   18.5710   20.0650 C.3       6 GLP5        0.0000 
     88 CA         11.2093   14.7960   19.9145 C.3       3 GLC5        0.0000 
     89 CA          9.7250   16.0700   18.6660 C.3       9 GLL5        0.0000 
     90 CA         12.3200   13.3960   20.5860 C.3       6 GLP5        0.0000 
     91 CA          9.4850   18.1740   19.6692 C.3       3 GLC5        0.0000 
     92 CA          8.8987   17.9700   18.7790 C.3       3 GLC5        0.0000 
     93 CA          9.8770   16.8430   17.5100 C.3       9 GLL5        0.0000 
     94 CA         14.4545   19.6568   11.8068 C.3       3 GLC5        0.0000 
     95 CA         15.0010   19.1570   10.2410 C.3       6 GLP5        0.0000 
     96 CA         14.7741   23.4603   13.7125 C.3       3 GLC5        0.0000 
     97 CA         15.5092   19.3279   14.6301 C.3       3 GLC5        0.0000 
     98 CA         11.7759   21.1178   12.4622 C.3       3 GLC5        0.0000 
     99 CA         13.2340   20.0370   13.2390 C.3       9 GLL5        0.0000 
    100 CA         10.8740   21.1580   10.7280 C.3       6 GLP5        0.0000 
    101 CA         20.2706   23.8357   22.6425 C.3       3 GLC5        0.0000 
    102 CA         18.2363   27.3675   15.5228 C.3       3 GLC5        0.0000 
    103 CA         20.0660   26.2750   15.2420 C.3       9 GLL5        0.0000 
    104 CA         16.9970   28.6910   16.0870 C.3       6 GLP5        0.0000 
    105 CA         18.2572   24.5932   13.1895 C.3       3 GLC5        0.0000 
    106 CA         18.8850   25.8130   14.6750 C.3       9 GLL5        0.0000 
    107 CA         17.8607   27.8768   14.6920 C.3       3 GLC5        0.0000 
    108 CA         18.2118   26.8032   11.6570 C.3       3 GLC5        0.0000 
    109 CA         17.6990   26.5440   10.0170 C.3       6 GLP5        0.0000 
    110 CA         20.2512   26.3278   12.1175 C.3       3 GLC5        0.0000 
    111 CA         21.7780   25.5930   10.9380 C.3       6 GLP5        0.0000 
    112 CA         18.7505   28.2317   15.1100 C.3       3 GLC5        0.0000 
    113 CA         21.1410   26.6827   12.5355 C.3       3 GLC5        0.0000 
@<TRIPOS>BOND
@<TRIPOS>SUBSTRUCTURE
     1 ALC1       30 GROUP        1 X    ALC  0     ROOT ALC X 1
     2 SEC2       22 GROUP        1 X    SEC  0     **** SEC X 2
     3 GLC5        1 GROUP        1 X    GLC  0     **** GLC X 6
     4 ALP1       32 GROUP        1 Y    ALP  0     ROOT ALP Y 8
     5 SEP2       24 GROUP        1 Y    SEP  0     **** SEP Y 9
     6 GLP5        3 GROUP        1 Y    GLP  0     **** GLP Y 13
     7 ALL1       31 GROUP        1 Z    ALL  0     ROOT ALL Z 15
     8 SEL2       23 GROUP        1 Z    SEL  0     **** SEL Z 16
     9 GLL5        2 GROUP        1 Z    GLL  0     **** GLL Z 20
@<TRIPOS>SET

