#    Name: 3kdc_JZP_1_ligand
#    Modification time : Mon Mar 24 19:17:31 2014

@<TRIPOS>MOLECULE
3kdc_JZP_1_ligand
   80    84     1     0     0
SMALL
NO_CHARGES


@<TRIPOS>ATOM
      1 CL1        12.3610   17.6690   21.3570 Cl        1 JZP100      0.0000 
      2 O2         12.5220   19.2220   18.6710 O.3       1 JZP100      0.0000 
      3 CL2        10.9940   18.8880   16.0050 Cl        1 JZP100      0.0000 
      4 O8         15.9660   19.9430   18.2290 O.2       1 JZP100      0.0000 
      5 C12        14.7570   20.0670   18.1290 C.2       1 JZP100      0.0000 
      6 C21        13.8830   18.8690   18.4160 C.3       1 JZP100      0.0000 
      7 C40         9.7250   16.0700   18.6660 C.ar      1 JZP100      0.0000 
      8 C41        10.4720   16.3220   19.8200 C.ar      1 JZP100      0.0000 
      9 C42        11.4100   17.3510   19.8710 C.ar      1 JZP100      0.0000 
     10 C45        11.6040   18.2030   18.6760 C.ar      1 JZP100      0.0000 
     11 C46        10.7920   17.8950   17.4760 C.ar      1 JZP100      0.0000 
     12 C47         9.8770   16.8430   17.5100 C.ar      1 JZP100      0.0000 
     13 C16        16.3170   24.1220   18.5250 C.2       1 JZP100      0.0000 
     14 N2         14.1570   21.2080   17.7710 N.am      1 JZP100      0.0000 
     15 O3         16.3310   25.1970   17.9420 O.2       1 JZP100      0.0000 
     16 C14        15.0390   23.3230   18.5620 C.3       1 JZP100      0.0000 
     17 C22        13.9620   21.9860   15.0950 C.ar      1 JZP100      0.0000 
     18 C15        14.3410   23.0380   16.1090 C.3       1 JZP100      0.0000 
     19 C25        13.2340   20.0370   13.2390 C.ar      1 JZP100      0.0000 
     20 C13        14.9220   22.3780   17.3640 C.3       1 JZP100      0.0000 
     21 O5         13.9170   24.2070   18.6240 O.3       1 JZP100      0.0000 
     22 C23        14.9490   21.2490   14.4360 C.ar      1 JZP100      0.0000 
     23 C27        12.6140   21.7490   14.8250 C.ar      1 JZP100      0.0000 
     24 C24        14.5820   20.2760   13.5060 C.ar      1 JZP100      0.0000 
     25 C26        12.2490   20.7750   13.8970 C.ar      1 JZP100      0.0000 
     26 C20        19.3450   24.4260   17.8850 C.2       1 JZP100      0.0000 
     27 N3         17.3870   23.6120   19.1520 N.am      1 JZP100      0.0000 
     28 O4         19.3530   23.4370   17.1670 O.2       1 JZP100      0.0000 
     29 C17        18.6460   24.3770   19.2200 C.3       1 JZP100      0.0000 
     30 C18        19.5500   23.8300   20.3260 C.3       1 JZP100      0.0000 
     31 C19        17.4670   22.3010   19.8110 C.3       1 JZP100      0.0000 
     32 C29        21.0490   23.9300   20.0560 C.3       1 JZP100      0.0000 
     33 C30        19.2370   24.5230   21.6310 C.3       1 JZP100      0.0000 
     34 S1         19.0900   22.1470   20.4520 S.3       1 JZP100      0.0000 
     35 N4         19.9230   25.5870   17.5570 N.am      1 JZP100      0.0000 
     36 O7         21.6270   27.5140   17.8270 O.3       1 JZP100      0.0000 
     37 C31        20.7920   25.7330   16.4030 C.3       1 JZP100      0.0000 
     38 C32        20.0660   26.2750   15.2420 C.ar      1 JZP100      0.0000 
     39 C33        18.8850   25.8130   14.6750 C.ar      1 JZP100      0.0000 
     40 C34        18.3920   26.5040   13.5630 C.ar      1 JZP100      0.0000 
     41 C35        21.9070   26.7660   16.6410 C.3       1 JZP100      0.0000 
     42 C36        20.7590   27.4370   14.6840 C.ar      1 JZP100      0.0000 
     43 C37        20.2490   28.1080   13.5820 C.ar      1 JZP100      0.0000 
     44 C38        19.0570   27.6210   13.0310 C.ar      1 JZP100      0.0000 
     45 C39        22.0080   27.7460   15.4610 C.3       1 JZP100      0.0000 
     46 H          13.9608   18.1761   17.5511 H         1 JZP100      0.0000 
     47 H          14.3233   18.3256   19.2792 H         1 JZP100      0.0000 
     48 H           9.0406   15.2905   18.6661 H         1 JZP100      0.0000 
     49 H          10.3232   15.7278   20.6575 H         1 JZP100      0.0000 
     50 H           9.3076   16.6320   16.6780 H         1 JZP100      0.0000 
     51 H          13.1233   21.3127   17.7664 H         1 JZP100      0.0000 
     52 H          15.0662   22.6968   19.4664 H         1 JZP100      0.0000 
     53 H          13.4623   23.6148   16.3885 H         1 JZP100      0.0000 
     54 H          15.0862   23.7074   15.6854 H         1 JZP100      0.0000 
     55 H          12.9655   19.3170   12.5573 H         1 JZP100      0.0000 
     56 H          15.9530   22.0503   17.1189 H         1 JZP100      0.0000 
     57 H          15.9390   21.4231   14.6356 H         1 JZP100      0.0000 
     58 H          11.8903   22.2928   15.3106 H         1 JZP100      0.0000 
     59 H          15.3058   19.7348   13.0172 H         1 JZP100      0.0000 
     60 H          11.2577   20.6003   13.6974 H         1 JZP100      0.0000 
     61 H          18.3976   25.4221   19.5041 H         1 JZP100      0.0000 
     62 H          17.3888   21.4730   19.1514 H         1 JZP100      0.0000 
     63 H          16.8569   22.2061   20.6744 H         1 JZP100      0.0000 
     64 H          19.7724   26.4537   18.1255 H         1 JZP100      0.0000 
     65 H          21.2631   24.8133   16.1260 H         1 JZP100      0.0000 
     66 H          18.3986   25.0113   15.0469 H         1 JZP100      0.0000 
     67 H          17.5114   26.1846   13.1174 H         1 JZP100      0.0000 
     68 H          22.8433   26.2429   16.7223 H         1 JZP100      0.0000 
     69 H          20.7120   28.9125   13.1898 H         1 JZP100      0.0000 
     70 H          18.6508   28.0995   12.2033 H         1 JZP100      0.0000 
     71 H          22.8675   27.5183   14.8913 H         1 JZP100      0.0000 
     72 H          21.9840   28.7362   15.8272 H         1 JZP100      0.0000 
     73 H          21.5882   23.5613   20.8132 H         1 JZP100      0.0000 
     74 H          21.3130   23.4242   19.2347 H         1 JZP100      0.0000 
     75 H          21.3400   24.8774   19.9230 H         1 JZP100      0.0000 
     76 H          19.8116   24.1868   22.3772 H         1 JZP100      0.0000 
     77 H          19.3823   25.5106   21.5712 H         1 JZP100      0.0000 
     78 H          18.2862   24.3828   21.9072 H         1 JZP100      0.0000 
     79 H          14.1916   24.9295   19.2585 H         1 JZP100      0.0000 
     80 H          22.2827   28.2689   17.8175 H         1 JZP100      0.0000 
@<TRIPOS>BOND
     1    9    1 1    
     2    6    2 1    
     3   10    2 1    
     4   11    3 1    
     5    5    4 2    
     6    6    5 1    
     7   14    5 am   
     8   46    6 1    
     9   47    6 1    
    10    8    7 ar   
    11   12    7 ar   
    12   48    7 1    
    13    9    8 ar   
    14   49    8 1    
    15   10    9 ar   
    16   11   10 ar   
    17   12   11 ar   
    18   50   12 1    
    19   15   13 2    
    20   16   13 1    
    21   27   13 am   
    22   20   14 1    
    23   51   14 1    
    24   20   16 1    
    25   21   16 1    
    26   52   16 1    
    27   18   17 1    
    28   22   17 ar   
    29   23   17 ar   
    30   20   18 1    
    31   53   18 1    
    32   54   18 1    
    33   24   19 ar   
    34   25   19 ar   
    35   55   19 1    
    36   56   20 1    
    37   79   21 1    
    38   24   22 ar   
    39   57   22 1    
    40   25   23 ar   
    41   58   23 1    
    42   59   24 1    
    43   60   25 1    
    44   28   26 2    
    45   29   26 1    
    46   35   26 am   
    47   29   27 1    
    48   31   27 1    
    49   30   29 1    
    50   61   29 1    
    51   32   30 1    
    52   33   30 1    
    53   34   30 1    
    54   34   31 1    
    55   62   31 1    
    56   63   31 1    
    57   73   32 1    
    58   74   32 1    
    59   75   32 1    
    60   76   33 1    
    61   77   33 1    
    62   78   33 1    
    63   37   35 1    
    64   64   35 1    
    65   41   36 1    
    66   80   36 1    
    67   38   37 1    
    68   41   37 1    
    69   65   37 1    
    70   39   38 ar   
    71   42   38 ar   
    72   40   39 ar   
    73   66   39 1    
    74   44   40 ar   
    75   67   40 1    
    76   45   41 1    
    77   68   41 1    
    78   43   42 ar   
    79   45   42 1    
    80   44   43 ar   
    81   69   43 1    
    82   70   44 1    
    83   71   45 1    
    84   72   45 1    
@<TRIPOS>SUBSTRUCTURE
     1 JZP100      1 GROUP   
@<TRIPOS>SET

