#    Name: 2xk7_30E_1_INTS_M
#    Modification time : Tue Mar 25 06:08:28 2014

@<TRIPOS>MOLECULE
2xk7_30E_1_INTS_M
   68     0    12     0     0
SMALL
NO_CHARGES


@<TRIPOS>ATOM
      1 CA        -27.0120   24.3955  -15.6255 C.3       4 GLC5        0.0000 
      2 CA        -26.5980   22.7870  -14.3120 C.3      12 GLL5        0.0000 
      3 CA        -27.4260   26.0040  -16.9390 C.3       8 GLP5        0.0000 
      4 CA        -27.3130   23.4435  -12.6075 C.3       4 GLC5        0.0000 
      5 CA        -28.0280   24.1000  -10.9030 C.3       8 GLP5        0.0000 
      6 CA        -25.6375   22.3555  -11.9390 C.3       4 GLC5        0.0000 
      7 CA        -25.7130   21.7020  -13.6960 C.3      12 GLL5        0.0000 
      8 CA        -25.5620   23.0090  -10.1820 C.3       8 GLP5        0.0000 
      9 CA        -27.1975   21.3645  -16.2125 C.3       4 GLC5        0.0000 
     10 CA        -25.0880   20.7770  -16.0920 C.3      12 GLL5        0.0000 
     11 CA        -29.3070   21.9520  -16.3330 C.3       8 GLP5        0.0000 
     12 CA        -28.4320   21.9620  -20.2100 C.3       4 GLC5        0.0000 
     13 CA        -26.3000   21.3680  -20.2200 C.3      12 GLL5        0.0000 
     14 CA        -30.5640   22.5560  -20.2000 C.3       8 GLP5        0.0000 
     15 CA        -26.0160   17.1795  -23.4990 C.3       4 GLC5        0.0000 
     16 CA        -27.4550   15.7110  -23.1600 C.3      12 GLL5        0.0000 
     17 CA        -24.5770   18.6480  -23.8380 C.3       8 GLP5        0.0000 
     18 CA        -26.2650   14.0995  -23.6465 C.3       4 GLC5        0.0000 
     19 CA        -25.0750   12.4880  -24.1330 C.3       8 GLP5        0.0000 
     20 CA        -28.7525   22.3640  -24.0275 C.3       4 GLC5        0.0000 
     21 CA        -28.8360   20.4020  -24.6760 C.3      12 GLL5        0.0000 
     22 CA        -28.6690   24.3260  -23.3790 C.3       8 GLP5        0.0000 
     23 CA        -27.2615   24.2695  -20.0700 C.3       4 GLC5        0.0000 
     24 CA        -26.1090   22.6100  -20.9070 C.3      12 GLL5        0.0000 
     25 CA        -28.4140   25.9290  -19.2330 C.3       8 GLP5        0.0000 
     26 CA        -24.4255   23.0635  -21.6895 C.3       4 GLC5        0.0000 
     27 CA        -22.7420   23.5170  -22.4720 C.3       8 GLP5        0.0000 
     28 N         -25.0170   24.4170  -21.3075 N.am      2 SEC2        0.0000 
     29 N         -25.4710   23.6910  -20.2100 N.am     10 SEL2        0.0000 
     30 N         -24.5630   25.1430  -22.4050 N.am      6 SEP2        0.0000 
     31 CA        -26.2300   24.7775  -17.9185 C.3       4 GLC5        0.0000 
     32 CA        -25.0340   23.5510  -18.8980 C.3      12 GLL5        0.0000 
     33 CA        -25.3535   25.3330  -20.2295 C.3       4 GLC5        0.0000 
     34 CA        -25.6730   27.1150  -21.5610 C.3       8 GLP5        0.0000 
     35 CA        -23.8880   23.5340  -20.6850 C.3       4 GLC5        0.0000 
     36 O         -24.4050   25.9570  -18.6565 O.2       1 ALC1        0.0000 
     37 O         -24.4400   24.6920  -18.2330 O.2       9 ALL1        0.0000 
     38 O         -24.3700   27.2220  -19.0800 O.2       5 ALP1        0.0000 
     39 CA        -22.2755   24.4185  -16.5215 C.3       4 GLC5        0.0000 
     40 CA        -23.7740   22.9420  -16.3590 C.3      12 GLL5        0.0000 
     41 CA        -20.7770   25.8950  -16.6840 C.3       8 GLP5        0.0000 
     42 CA        -21.0590   23.1035  -16.6235 C.3       4 GLC5        0.0000 
     43 CA        -22.6530   22.2170  -15.5810 C.3      12 GLL5        0.0000 
     44 CA        -19.4650   23.9900  -17.6660 C.3       8 GLP5        0.0000 
     45 CA        -21.7920   20.8025  -16.4295 C.3       4 GLC5        0.0000 
     46 CA        -20.9310   19.3880  -17.2780 C.3       8 GLP5        0.0000 
     47 NZ        -23.7625   22.0755  -10.7360 N.4       3 LYC4        0.0000 
     48 NZ        -23.1770   20.9200  -12.1300 N.4      11 LYL4        0.0000 
     49 NZ        -24.3480   23.2310   -9.3420 N.4       7 LYP4        0.0000 
     50 CA        -27.7312   22.0983  -15.1685 C.3       4 GLC5        0.0000 
     51 CA        -25.5922   24.1088  -13.5200 C.3       4 GLC5        0.0000 
     52 CA        -25.0290   25.9730  -13.0360 C.3       8 GLP5        0.0000 
     53 CA        -28.7257   19.5220  -20.2415 C.3       4 GLC5        0.0000 
     54 CA        -26.7600   18.9610  -20.1670 C.3      12 GLL5        0.0000 
     55 CA        -30.6360   19.4420  -19.9740 C.3       8 GLP5        0.0000 
     56 CA        -25.6962   19.1250  -22.1735 C.3       4 GLC5        0.0000 
     57 CA        -29.1268   18.6155  -20.7180 C.3       4 GLC5        0.0000 
     58 CA        -27.3060   17.7420  -20.8060 C.3      12 GLL5        0.0000 
     59 CA        -26.0973   18.2185  -22.6500 C.3       4 GLC5        0.0000 
     60 CA        -27.9290   17.8360  -22.1180 C.3      12 GLL5        0.0000 
     61 CA        -29.1855   19.5842  -21.2325 C.3       4 GLC5        0.0000 
     62 CA        -28.0040   19.1100  -22.8100 C.3      12 GLL5        0.0000 
     63 CA        -26.1560   19.1872  -23.1645 C.3       4 GLC5        0.0000 
     64 CA        -23.7302   24.1653  -15.3035 C.3       4 GLC5        0.0000 
     65 CA        -24.2470   25.7510  -14.6370 C.3       8 GLP5        0.0000 
     66 CA        -23.0993   19.9236  -16.1296 C.3       4 GLC5        0.0000 
     67 CA        -23.2000   21.3250  -14.4400 C.3      12 GLL5        0.0000 
     68 CA        -22.1510   18.7380  -17.3600 C.3       8 GLP5        0.0000 
@<TRIPOS>BOND
@<TRIPOS>SUBSTRUCTURE
     1 ALC1       36 GROUP        1 X    ALC  0     ROOT ALC X 1
     2 SEC2       28 GROUP        1 X    SEC  0     **** SEC X 2
     3 LYC4       47 GROUP        1 X    LYC  0     **** LYC X 4
     4 GLC5        1 GROUP        1 X    GLC  0     **** GLC X 6
     5 ALP1       38 GROUP        1 Y    ALP  0     ROOT ALP Y 8
     6 SEP2       30 GROUP        1 Y    SEP  0     **** SEP Y 9
     7 LYP4       49 GROUP        1 Y    LYP  0     **** LYP Y 11
     8 GLP5        3 GROUP        1 Y    GLP  0     **** GLP Y 13
     9 ALL1       37 GROUP        1 Z    ALL  0     ROOT ALL Z 15
    10 SEL2       29 GROUP        1 Z    SEL  0     **** SEL Z 16
    11 LYL4       48 GROUP        1 Z    LYL  0     **** LYL Z 18
    12 GLL5        2 GROUP        1 Z    GLL  0     **** GLL Z 20
@<TRIPOS>SET

