#    Name: 2xk7_30E_1_ligand
#    Modification time : Tue Mar 25 06:08:28 2014

@<TRIPOS>MOLECULE
2xk7_30E_1_ligand
   57    59     1     0     0
SMALL
NO_CHARGES


@<TRIPOS>ATOM
      1 C01       -26.5980   22.7870  -14.3120 C.3       1 30E1280     0.0000 
      2 C02       -25.7130   21.7020  -13.6960 C.3       1 30E1280     0.0000 
      3 C03       -24.7020   21.0100  -14.6250 C.3       1 30E1280     0.0000 
      4 C04       -25.0880   20.7770  -16.0920 C.3       1 30E1280     0.0000 
      5 N05       -24.8130   22.0050  -16.8080 N.3       1 30E1280     0.0000 
      6 C06       -25.2160   22.2750  -18.2250 C.ar      1 30E1280     0.0000 
      7 N07       -25.8490   21.2130  -18.9070 N.ar      1 30E1280     0.0000 
      8 C08       -26.3000   21.3680  -20.2200 C.ar      1 30E1280     0.0000 
      9 C09       -26.8710   20.2430  -20.8510 C.ar      1 30E1280     0.0000 
     10 C10       -26.7600   18.9610  -20.1670 C.ar      1 30E1280     0.0000 
     11 C11       -27.3060   17.7420  -20.8060 C.ar      1 30E1280     0.0000 
     12 O12       -27.2070   16.4790  -20.1860 O.3       1 30E1280     0.0000 
     13 C13       -26.6950   16.3540  -18.8890 C.3       1 30E1280     0.0000 
     14 C14       -27.9290   17.8360  -22.1180 C.ar      1 30E1280     0.0000 
     15 O15       -28.4060   16.6550  -22.7090 O.3       1 30E1280     0.0000 
     16 C16       -27.4550   15.7110  -23.1600 C.3       1 30E1280     0.0000 
     17 C17       -28.0040   19.1100  -22.8100 C.ar      1 30E1280     0.0000 
     18 O18       -28.5570   19.1690  -24.0980 O.3       1 30E1280     0.0000 
     19 C19       -28.8360   20.4020  -24.6760 C.3       1 30E1280     0.0000 
     20 C20       -27.4660   20.3430  -22.1720 C.ar      1 30E1280     0.0000 
     21 C21       -26.1090   22.6100  -20.9070 C.ar      1 30E1280     0.0000 
     22 N22       -25.4710   23.6910  -20.2100 N.ar      1 30E1280     0.0000 
     23 C23       -25.0340   23.5510  -18.8980 C.ar      1 30E1280     0.0000 
     24 N24       -24.4400   24.6920  -18.2330 N.pl3     1 30E1280     0.0000 
     25 C25       -23.7740   22.9420  -16.3590 C.3       1 30E1280     0.0000 
     26 C26       -22.6530   22.2170  -15.5810 C.3       1 30E1280     0.0000 
     27 C27       -23.2000   21.3250  -14.4400 C.3       1 30E1280     0.0000 
     28 C28       -22.7540   21.5980  -13.0110 C.2       1 30E1280     0.0000 
     29 O29       -23.1770   20.9200  -12.1300 O.co2     1 30E1280     0.0000 
     30 O30       -21.8810   22.6490  -12.7270 O.co2     1 30E1280     0.0000 
     31 H         -26.3691   20.9195  -13.2469 H         1 30E1280     0.0000 
     32 H         -25.1547   22.1430  -12.8367 H         1 30E1280     0.0000 
     33 H         -24.7317   19.8516  -14.2020 H         1 30E1280     0.0000 
     34 H         -26.1393   20.5205  -16.1273 H         1 30E1280     0.0000 
     35 H         -24.4959   19.9529  -16.4695 H         1 30E1280     0.0000 
     36 H         -26.3202   18.8942  -19.2724 H         1 30E1280     0.0000 
     37 H         -27.5208   21.2089  -22.6538 H         1 30E1280     0.0000 
     38 H         -26.4144   22.7241  -21.8566 H         1 30E1280     0.0000 
     39 H         -23.9292   25.3241  -18.8156 H         1 30E1280     0.0000 
     40 H         -24.5898   24.7534  -17.2462 H         1 30E1280     0.0000 
     41 H         -24.1984   23.7090  -15.6997 H         1 30E1280     0.0000 
     42 H         -23.3134   23.4530  -17.2133 H         1 30E1280     0.0000 
     43 H         -21.9774   22.9620  -15.1542 H         1 30E1280     0.0000 
     44 H         -22.0844   21.5937  -16.2751 H         1 30E1280     0.0000 
     45 H         -22.7034   20.2626  -14.6929 H         1 30E1280     0.0000 
     46 H         -26.0565   23.5402  -14.6854 H         1 30E1280     0.0000 
     47 H         -27.1577   22.4296  -15.0596 H         1 30E1280     0.0000 
     48 H         -27.2243   23.1815  -13.6396 H         1 30E1280     0.0000 
     49 H         -25.7564   16.6932  -18.8259 H         1 30E1280     0.0000 
     50 H         -27.2376   16.8677  -18.2244 H         1 30E1280     0.0000 
     51 H         -26.6835   15.4016  -18.5844 H         1 30E1280     0.0000 
     52 H         -26.8520   16.0961  -23.8586 H         1 30E1280     0.0000 
     53 H         -26.8715   15.3869  -22.4154 H         1 30E1280     0.0000 
     54 H         -27.8921   14.9061  -23.5614 H         1 30E1280     0.0000 
     55 H         -28.0142   20.9647  -24.7655 H         1 30E1280     0.0000 
     56 H         -29.2248   20.3033  -25.5920 H         1 30E1280     0.0000 
     57 H         -29.4926   20.9263  -24.1338 H         1 30E1280     0.0000 
@<TRIPOS>BOND
     1    2    1 1    
     2   46    1 1    
     3   47    1 1    
     4   48    1 1    
     5    3    2 1    
     6   31    2 1    
     7   32    2 1    
     8    4    3 1    
     9   27    3 1    
    10   33    3 1    
    11    5    4 1    
    12   34    4 1    
    13   35    4 1    
    14    6    5 1    
    15   25    5 1    
    16    7    6 ar   
    17   23    6 ar   
    18    8    7 ar   
    19    9    8 1    
    20   21    8 ar   
    21   10    9 ar   
    22   20    9 ar   
    23   11   10 ar   
    24   36   10 1    
    25   12   11 1    
    26   14   11 ar   
    27   13   12 1    
    28   49   13 1    
    29   50   13 1    
    30   51   13 1    
    31   15   14 1    
    32   17   14 ar   
    33   16   15 1    
    34   52   16 1    
    35   53   16 1    
    36   54   16 1    
    37   18   17 1    
    38   20   17 ar   
    39   19   18 1    
    40   55   19 1    
    41   56   19 1    
    42   57   19 1    
    43   37   20 1    
    44   22   21 ar   
    45   38   21 1    
    46   23   22 ar   
    47   24   23 1    
    48   39   24 1    
    49   40   24 1    
    50   26   25 1    
    51   41   25 1    
    52   42   25 1    
    53   27   26 1    
    54   43   26 1    
    55   44   26 1    
    56   28   27 1    
    57   45   27 1    
    58   29   28 ar   
    59   30   28 ar   
@<TRIPOS>SUBSTRUCTURE
     1 30E1280     1 GROUP   
@<TRIPOS>SET

