#    Name: 4DE0_2_CAVITY_N1_6.mol2
#    Modification time : Mon Mar 10 13:47:48 2014

@<TRIPOS>MOLECULE
4DE0_2_CAVITY_N1_6.mol2
  100     0     6     0     0
SMALL
NO_CHARGES


@<TRIPOS>ATOM
      1 NZ         20.5069   86.2467   -1.9850 N.2       3 LYS4        0.0000 
      2 CA         19.8371   86.8755   -6.1270 C.3       5 GLY6        0.0000 
      3 NZ         24.2844   90.2522   -3.0742 N.2       3 LYS4        0.0000 
      4 O          24.3163   91.6386   -6.1282 O.2       2 ALA2        0.0000 
      5 DU         23.9495   90.5666   -5.1452 H         6 CUB7        0.0000 
      6 DU         23.5828   89.4946   -4.1622 H         6 CUB7        0.0000 
      7 NZ         23.2161   88.4226   -3.1792 N.2       3 LYS4        0.0000 
      8 NZ         22.8493   87.3506   -2.1962 N.2       3 LYS4        0.0000 
      9 CA         24.3481   93.0250   -9.1822 C.3       5 GLY6        0.0000 
     10 O          23.9814   91.9530   -8.1992 O.2       2 ALA2        0.0000 
     11 O          23.2479   89.8090   -6.2332 O.2       2 ALA2        0.0000 
     12 O          22.8812   88.7370   -5.2502 O.2       2 ALA2        0.0000 
     13 N          22.5144   87.6649   -4.2672 N.2       2 ALA2        0.0000 
     14 N          22.1477   86.5929   -3.2842 N.2       2 ALA2        0.0000 
     15 CA         22.1795   87.9793   -6.3382 C.3       5 GLY6        0.0000 
     16 N          21.8128   86.9073   -5.3552 N.2       2 ALA2        0.0000 
     17 N          21.4461   85.8353   -4.3722 N.2       2 ALA2        0.0000 
     18 CA         33.6541   94.6675   -3.9191 C.3       5 GLY6        0.0000 
     19 O          33.3192   94.9819   -5.9900 O.2       2 ALA2        0.0000 
     20 CA         32.9525   93.9099   -5.0070 C.3       5 GLY6        0.0000 
     21 CA         32.5858   92.8379   -4.0240 C.3       5 GLY6        0.0000 
     22 CA         33.3511   96.3683   -9.0440 C.3       5 GLY6        0.0000 
     23 O          32.9843   95.2963   -8.0610 O.2       2 ALA2        0.0000 
     24 DU         32.6176   94.2243   -7.0780 H         6 CUB7        0.0000 
     25 OG         32.2509   93.1523   -6.0950 O.2       1 SER1        0.0000 
     26 CA         33.0162   96.6827  -11.1150 C.3       5 GLY6        0.0000 
     27 CA         32.6495   95.6107  -10.1320 C.3       5 GLY6        0.0000 
     28 CA         32.2827   94.5387   -9.1490 C.3       5 GLY6        0.0000 
     29 DU         31.9160   93.4667   -8.1660 H         6 CUB7        0.0000 
     30 OG         31.5492   92.3947   -7.1830 O.2       1 SER1        0.0000 
     31 CA         31.9478   94.8531  -11.2200 C.3       5 GLY6        0.0000 
     32 CA         31.5811   93.7811  -10.2370 C.3       5 GLY6        0.0000 
     33 OG         31.2144   92.7091   -9.2540 O.2       1 SER1        0.0000 
     34 OG         30.8476   91.6370   -8.2710 O.2       1 SER1        0.0000 
     35 OG         30.4809   90.5650   -7.2880 O.2       1 SER1        0.0000 
     36 CA         30.5127   91.9514  -10.3420 C.3       5 GLY6        0.0000 
     37 OG         30.1460   90.8794   -9.3590 O.2       1 SER1        0.0000 
     38 OG         29.7792   89.8074   -8.3760 O.2       1 SER1        0.0000 
     39 OG         29.4444   90.1218  -10.4470 O.2       1 SER1        0.0000 
     40 CA         34.5933   94.2561   -6.3062 C.3       5 GLY6        0.0000 
     41 CA         34.2266   93.1841   -5.3232 C.3       5 GLY6        0.0000 
     42 N          33.8598   92.1121   -4.3402 N.2       2 ALA2        0.0000 
     43 N          34.2584   94.5705   -8.3772 N.2       2 ALA2        0.0000 
     44 OG         33.8917   93.4985   -7.3942 O.2       1 SER1        0.0000 
     45 CA         33.5249   92.4265   -6.4112 C.3       5 GLY6        0.0000 
     46 CA         33.5568   93.8129   -9.4652 C.3       5 GLY6        0.0000 
     47 OG         33.1900   92.7409   -8.4822 O.2       1 SER1        0.0000 
     48 OG         32.8233   91.6689   -7.4992 O.2       1 SER1        0.0000 
     49 CA         32.8551   93.0553  -10.5532 C.3       5 GLY6        0.0000 
     50 OG         32.4884   91.9832   -9.5702 O.2       1 SER1        0.0000 
     51 OG         32.1217   90.9112   -8.5872 O.2       1 SER1        0.0000 
     52 OG         26.6587   92.7424   -6.3394 O.2       1 SER1        0.0000 
     53 OG         26.2920   91.6704   -5.3564 O.2       1 SER1        0.0000 
     54 CA         25.9252   90.5984   -4.3734 C.3       5 GLY6        0.0000 
     55 DU         26.3238   93.0568   -8.4104 H         6 CUB7        0.0000 
     56 DU         25.9571   91.9848   -7.4274 H         6 CUB7        0.0000 
     57 DU         25.5903   90.9128   -6.4444 H         6 CUB7        0.0000 
     58 N          25.2236   89.8408   -5.4614 N.2       2 ALA2        0.0000 
     59 CA         24.8569   88.7688   -4.4784 C.3       5 GLY6        0.0000 
     60 N          24.4901   87.6968   -3.4954 N.2       2 ALA2        0.0000 
     61 CA         25.6222   92.2992   -9.4984 C.3       5 GLY6        0.0000 
     62 O          25.2554   91.2272   -8.5154 O.2       2 ALA2        0.0000 
     63 O          24.8887   90.1552   -7.5324 O.2       2 ALA2        0.0000 
     64 O          24.5220   89.0832   -6.5494 O.2       2 ALA2        0.0000 
     65 CA         24.1552   88.0112   -5.5664 C.3       5 GLY6        0.0000 
     66 O          24.5538   90.4696   -9.6034 O.2       2 ALA2        0.0000 
     67 DU         28.6662   94.1607   -8.6216 H         6 CUB7        0.0000 
     68 OG         28.2995   93.0886   -7.6386 O.2       1 SER1        0.0000 
     69 OG         27.9328   92.0166   -6.6556 O.2       1 SER1        0.0000 
     70 OG         27.5660   90.9446   -5.6726 O.2       1 SER1        0.0000 
     71 CZ         27.9646   93.4030   -9.7096 C.ar      4 PHE5        0.0000 
     72 DU         27.5979   92.3310   -8.7266 H         6 CUB7        0.0000 
     73 OG         27.2311   91.2590   -7.7436 O.2       1 SER1        0.0000 
     74 N          26.8644   90.1870   -6.7606 N.2       2 ALA2        0.0000 
     75 N          26.4977   89.1150   -5.7776 N.2       2 ALA2        0.0000 
     76 CA         26.8962   91.5734   -9.8146 C.3       5 GLY6        0.0000 
     77 O          26.5295   90.5014   -8.8316 O.2       2 ALA2        0.0000 
     78 O          26.1628   89.4294   -7.8486 O.2       2 ALA2        0.0000 
     79 O          25.7960   88.3574   -6.8656 O.2       2 ALA2        0.0000 
     80 CA         26.1946   90.8158  -10.9026 C.3       5 GLY6        0.0000 
     81 OG         32.3801   95.3933   -3.6028 O.2       1 SER1        0.0000 
     82 OG         31.6784   94.6357   -4.6908 O.2       1 SER1        0.0000 
     83 CA         31.3117   93.5637   -3.7078 C.3       5 GLY6        0.0000 
     84 DU         31.3436   94.9501   -6.7618 H         6 CUB7        0.0000 
     85 OG         30.9768   93.8781   -5.7788 O.2       1 SER1        0.0000 
     86 DU         31.0087   95.2645   -8.8328 H         6 CUB7        0.0000 
     87 OG         30.6419   94.1925   -7.8498 O.2       1 SER1        0.0000 
     88 OG         30.2752   93.1205   -6.8668 O.2       1 SER1        0.0000 
     89 OG         30.6738   95.5789  -10.9038 O.2       1 SER1        0.0000 
     90 OG         30.3070   94.5069   -9.9208 O.2       1 SER1        0.0000 
     91 DU         29.9403   93.4349   -8.9378 H         6 CUB7        0.0000 
     92 OG         29.5736   92.3628   -7.9548 O.2       1 SER1        0.0000 
     93 CZ         29.6054   93.7492  -11.0088 C.ar      4 PHE5        0.0000 
     94 CZ         29.2387   92.6772  -10.0258 C.ar      4 PHE5        0.0000 
     95 DU         28.8719   91.6052   -9.0428 H         6 CUB7        0.0000 
     96 OG         28.5052   90.5332   -8.0598 O.2       1 SER1        0.0000 
     97 CZ         28.5370   91.9196  -11.1138 C.ar      4 PHE5        0.0000 
     98 N          28.1703   90.8476  -10.1308 N.2       2 ALA2        0.0000 
     99 OG         27.8036   89.7756   -9.1478 O.2       1 SER1        0.0000 
    100 OG         27.4368   88.7036   -8.1648 O.2       1 SER1        0.0000 
@<TRIPOS>BOND
@<TRIPOS>SUBSTRUCTURE
     1 SER1       25 GROUP   
     2 ALA2        4 GROUP   
     3 LYS4        1 GROUP   
     4 PHE5       71 GROUP   
     5 GLY6        2 GROUP   
     6 CUB7        5 GROUP   
@<TRIPOS>SET

