#    Name: 4de0_0JB_2_INTS_M
#    Modification time : Tue Mar 25 09:37:45 2014

@<TRIPOS>MOLECULE
4de0_0JB_2_INTS_M
   37     0     9     0     0
SMALL
NO_CHARGES


@<TRIPOS>ATOM
      1 N          23.3670   89.4700   -8.5195 N.am      2 SEC2        0.0000 
      2 N          24.5820   88.8400   -8.1280 N.am      8 SEL2        0.0000 
      3 N          22.1520   90.1000   -8.9110 N.am      5 SEP2        0.0000 
      4 N          24.6865   88.5685   -9.5865 N.am      2 SEC2        0.0000 
      5 N          24.7910   88.2970  -11.0450 N.am      5 SEP2        0.0000 
      6 CA         24.5915   88.9840   -1.4070 C.3       3 GLC5        0.0000 
      7 CA         23.8650   89.5300   -3.4580 C.3       9 GLL5        0.0000 
      8 CA         25.3180   88.4380    0.6440 C.3       6 GLP5        0.0000 
      9 CA         22.2175   87.3805   -7.3340 C.3       3 GLC5        0.0000 
     10 CA         23.2470   88.1750   -5.7860 C.3       9 GLL5        0.0000 
     11 CA         21.1880   86.5860   -8.8820 C.3       6 GLP5        0.0000 
     12 CA         30.1720   90.9385  -11.4025 C.3       3 GLC5        0.0000 
     13 CA         28.7640   90.8960  -10.1180 C.3       9 GLL5        0.0000 
     14 CA         31.5800   90.9810  -12.6870 C.3       6 GLP5        0.0000 
     15 N          30.4795   91.6025   -6.0730 N.am      2 SEC2        0.0000 
     16 N          31.0940   91.5520   -7.2730 N.am      8 SEL2        0.0000 
     17 N          29.8650   91.6530   -4.8730 N.am      5 SEP2        0.0000 
     18 N          33.9330   91.5875   -8.3105 N.am      2 SEC2        0.0000 
     19 N          32.4740   91.6450   -7.3770 N.am      8 SEL2        0.0000 
     20 N          35.3920   91.5300   -9.2440 N.am      5 SEP2        0.0000 
     21 N          34.0930   91.4065   -8.9510 N.am      2 SEC2        0.0000 
     22 N          32.7940   91.2830   -8.6580 N.am      8 SEL2        0.0000 
     23 O          31.6095   90.3945  -10.5645 O.2       1 ALC1        0.0000 
     24 O          31.6280   90.9310   -9.3090 O.2       7 ALL1        0.0000 
     25 O          31.5910   89.8580  -11.8200 O.2       4 ALP1        0.0000 
     26 CA         25.1107   87.6270   -5.1138 C.3       3 GLC5        0.0000 
     27 CA         24.2500   89.1390   -5.7990 C.3       9 GLL5        0.0000 
     28 CA         25.8000   85.7880   -5.0220 C.3       6 GLP5        0.0000 
     29 CA         25.8610   89.0408   -3.2510 C.3       3 GLC5        0.0000 
     30 CA         24.5930   89.7930   -4.6120 C.3       9 GLL5        0.0000 
     31 CA         27.4930   88.4200   -2.4670 C.3       6 GLP5        0.0000 
     32 CA         24.5742   87.4232   -4.2332 C.3       3 GLC5        0.0000 
     33 CA         24.3477   86.9127   -5.1085 C.3       3 GLC5        0.0000 
     34 CA         22.5440   87.9000   -4.6040 C.3       9 GLL5        0.0000 
     35 CA         25.8517   91.5777  -11.0780 C.3       3 GLC5        0.0000 
     36 CA         26.5280   90.4480   -9.4210 C.3       9 GLL5        0.0000 
     37 CA         24.7180   92.5910  -12.2190 C.3       6 GLP5        0.0000 
@<TRIPOS>BOND
@<TRIPOS>SUBSTRUCTURE
     1 ALC1       23 GROUP        1 X    ALC  0     ROOT ALC X 1
     2 SEC2        1 GROUP        1 X    SEC  0     **** SEC X 2
     3 GLC5        6 GROUP        1 X    GLC  0     **** GLC X 6
     4 ALP1       25 GROUP        1 Y    ALP  0     ROOT ALP Y 8
     5 SEP2        3 GROUP        1 Y    SEP  0     **** SEP Y 9
     6 GLP5        8 GROUP        1 Y    GLP  0     **** GLP Y 13
     7 ALL1       24 GROUP        1 Z    ALL  0     ROOT ALL Z 15
     8 SEL2        2 GROUP        1 Z    SEL  0     **** SEL Z 16
     9 GLL5        7 GROUP        1 Z    GLL  0     **** GLL Z 20
@<TRIPOS>SET

