#    Name: 4de0_0JB_2_ligand
#    Modification time : Tue Mar 25 09:37:45 2014

@<TRIPOS>MOLECULE
4de0_0JB_2_ligand
   34    37     1     0     0
SMALL
NO_CHARGES


@<TRIPOS>ATOM
      1 O14        24.5820   88.8400   -8.1280 O.2       1 0JB301      0.0000 
      2 C13        24.9910   89.3550   -7.0800 C.2       1 0JB301      0.0000 
      3 C15        24.2500   89.1390   -5.7990 C.ar      1 0JB301      0.0000 
      4 C20        24.5930   89.7930   -4.6120 C.ar      1 0JB301      0.0000 
      5 N21        25.4630   90.7890   -4.3290 N.pl3     1 0JB301      0.0000 
      6 C22        25.3070   91.1320   -3.0300 C.2       1 0JB301      0.0000 
      7 N23        24.3520   90.3640   -2.4910 N.2       1 0JB301      0.0000 
      8 C19        23.8650   89.5300   -3.4580 C.ar      1 0JB301      0.0000 
      9 C18        22.8320   88.5870   -3.4310 C.ar      1 0JB301      0.0000 
     10 C17        22.5440   87.9000   -4.6040 C.ar      1 0JB301      0.0000 
     11 C16        23.2470   88.1750   -5.7860 C.ar      1 0JB301      0.0000 
     12 N12        26.0820   90.1600   -7.0330 N.am      1 0JB301      0.0000 
     13 C8         26.9620   90.4430   -8.0940 C.ar      1 0JB301      0.0000 
     14 C7         28.2930   90.6300   -7.7710 C.ar      1 0JB301      0.0000 
     15 C9         26.5280   90.4480   -9.4210 C.ar      1 0JB301      0.0000 
     16 C10        27.4430   90.6810  -10.4530 C.ar      1 0JB301      0.0000 
     17 C11        28.7640   90.8960  -10.1180 C.ar      1 0JB301      0.0000 
     18 C6         29.1860   90.9000   -8.7860 C.ar      1 0JB301      0.0000 
     19 C2         30.6070   91.1280   -8.4530 C.2       1 0JB301      0.0000 
     20 N3         31.0940   91.5520   -7.2730 N.2       1 0JB301      0.0000 
     21 N4         32.4740   91.6450   -7.3770 N.2       1 0JB301      0.0000 
     22 N5         32.7940   91.2830   -8.6580 N.2       1 0JB301      0.0000 
     23 N1         31.6280   90.9310   -9.3090 N.pl3     1 0JB301      0.0000 
     24 H          26.0869   91.1861   -4.9466 H         1 0JB301      0.0000 
     25 H          25.8093   91.8233   -2.5709 H         1 0JB301      0.0000 
     26 H          22.3117   88.4132   -2.5790 H         1 0JB301      0.0000 
     27 H          21.8064   87.1791   -4.6114 H         1 0JB301      0.0000 
     28 H          23.0161   87.6586   -6.6451 H         1 0JB301      0.0000 
     29 H          26.3147   90.6405   -6.0965 H         1 0JB301      0.0000 
     30 H          28.6065   90.5691   -6.8005 H         1 0JB301      0.0000 
     31 H          25.5403   90.2813   -9.6399 H         1 0JB301      0.0000 
     32 H          27.1340   90.6899  -11.4214 H         1 0JB301      0.0000 
     33 H          29.4657   91.0591  -10.8665 H         1 0JB301      0.0000 
     34 H          31.5762   90.6077  -10.2063 H         1 0JB301      0.0000 
@<TRIPOS>BOND
     1    2    1 2    
     2    3    2 1    
     3   12    2 am   
     4    4    3 ar   
     5   11    3 ar   
     6    5    4 1    
     7    8    4 ar   
     8    6    5 1    
     9   24    5 1    
    10    7    6 2    
    11   25    6 1    
    12    8    7 1    
    13    9    8 ar   
    14   10    9 ar   
    15   26    9 1    
    16   11   10 ar   
    17   27   10 1    
    18   28   11 1    
    19   13   12 1    
    20   29   12 1    
    21   14   13 ar   
    22   15   13 ar   
    23   18   14 ar   
    24   30   14 1    
    25   16   15 ar   
    26   31   15 1    
    27   17   16 ar   
    28   32   16 1    
    29   18   17 ar   
    30   33   17 1    
    31   19   18 1    
    32   20   19 2    
    33   23   19 1    
    34   21   20 1    
    35   22   21 2    
    36   23   22 1    
    37   34   23 1    
@<TRIPOS>SUBSTRUCTURE
     1 0JB301      1 GROUP   
@<TRIPOS>SET

