#    Name: 2psu_MUU_1_INTS_M
#    Modification time : Mon Mar 24 19:19:59 2014

@<TRIPOS>MOLECULE
2psu_MUU_1_INTS_M
   86     0     9     0     0
SMALL
NO_CHARGES


@<TRIPOS>ATOM
      1 CA         15.4330   36.7600   15.8885 C.3       3 GLC5        0.0000 
      2 CA         16.6970   35.4830   17.0750 C.3       9 GLL5        0.0000 
      3 CA         14.1690   38.0370   14.7020 C.3       6 GLP5        0.0000 
      4 CA         14.9390   38.0825   17.0710 C.3       3 GLC5        0.0000 
      5 CA         16.5380   37.6470   18.2600 C.3       9 GLL5        0.0000 
      6 CA         13.3400   38.5180   15.8820 C.3       6 GLP5        0.0000 
      7 CA         14.3285   35.3475   16.0620 C.3       3 GLC5        0.0000 
      8 CA         15.6190   34.8970   17.7490 C.3       9 GLL5        0.0000 
      9 CA         13.0380   35.7980   14.3750 C.3       6 GLP5        0.0000 
     10 CA         15.2670   31.0495   15.5485 C.3       3 GLC5        0.0000 
     11 CA         16.0940   32.7910   16.6790 C.3       9 GLL5        0.0000 
     12 CA         14.4400   29.3080   14.4180 C.3       6 GLP5        0.0000 
     13 CA         24.1990   33.9535   17.2225 C.3       3 GLC5        0.0000 
     14 CA         22.7920   33.2120   16.2430 C.3       9 GLL5        0.0000 
     15 CA         25.6060   34.6950   18.2020 C.3       6 GLP5        0.0000 
     16 CA         17.6590   30.6150   17.9545 C.3       3 GLC5        0.0000 
     17 CA         19.0940   30.5310   16.4100 C.3       9 GLL5        0.0000 
     18 CA         16.2240   30.6990   19.4990 C.3       6 GLP5        0.0000 
     19 N          19.4355   27.7465   17.8965 N.am      2 SEC2        0.0000 
     20 N          19.9780   28.2750   16.6280 N.am      8 SEL2        0.0000 
     21 N          18.8930   27.2180   19.1650 N.am      5 SEP2        0.0000 
     22 O          20.8250   27.9370   17.4835 O.2       1 ALC1        0.0000 
     23 O          19.9780   28.2750   16.6280 O.2       7 ALL1        0.0000 
     24 O          21.6720   27.5990   18.3390 O.2       4 ALP1        0.0000 
     25 O          21.5450   28.6415   17.0250 O.2       1 ALC1        0.0000 
     26 O          23.1120   29.0080   17.4220 O.2       4 ALP1        0.0000 
     27 CA         18.9660   26.6005   15.6615 C.3       3 GLC5        0.0000 
     28 CA         18.2550   28.2500   14.3090 C.3       9 GLL5        0.0000 
     29 CA         19.6770   24.9510   17.0140 C.3       6 GLP5        0.0000 
     30 CA         17.2515   25.3225   13.6875 C.3       3 GLC5        0.0000 
     31 CA         18.1700   26.5430   12.4570 C.3       9 GLL5        0.0000 
     32 CA         16.3330   24.1020   14.9180 C.3       6 GLP5        0.0000 
     33 CA         17.1850   30.2465   10.1025 C.3       3 GLC5        0.0000 
     34 CA         17.2930   28.4230   10.6550 C.3       9 GLL5        0.0000 
     35 CA         17.0770   32.0700    9.5500 C.3       6 GLP5        0.0000 
     36 CA         17.0735   30.7005   11.4545 C.3       3 GLC5        0.0000 
     37 CA         17.5190   28.7950   11.9680 C.3       9 GLL5        0.0000 
     38 CA         16.6280   32.6060   10.9410 C.3       6 GLP5        0.0000 
     39 O          20.4270   26.7310   14.2340 O.2       1 ALC1        0.0000 
     40 O          20.6400   28.1910   13.7550 O.2       7 ALL1        0.0000 
     41 O          20.2140   25.2710   14.7130 O.2       4 ALP1        0.0000 
     42 CA         23.6440   29.3035   11.7925 C.3       3 GLC5        0.0000 
     43 CA         22.4730   27.6930   12.1880 C.3       9 GLL5        0.0000 
     44 CA         24.8150   30.9140   11.3970 C.3       6 GLP5        0.0000 
     45 N          23.6260   24.1625   12.6160 N.am      2 SEC2        0.0000 
     46 N          23.6570   25.1260   11.5870 N.am      8 SEL2        0.0000 
     47 N          23.5950   23.1990   13.6450 N.am      5 SEP2        0.0000 
     48 N          24.9565   24.2235   12.3250 N.am      2 SEC2        0.0000 
     49 N          26.2560   23.3210   13.0630 N.am      5 SEP2        0.0000 
     50 O          22.4265   26.7860    8.7955 O.2       1 ALC1        0.0000 
     51 O          23.1030   25.6580    9.4670 O.2       7 ALL1        0.0000 
     52 O          21.7500   27.9140    8.1240 O.2       4 ALP1        0.0000 
     53 CA         24.0600   23.1915   10.3495 C.3       3 GLC5        0.0000 
     54 CA         24.1110   24.8000    8.8660 C.3       9 GLL5        0.0000 
     55 CA         24.0090   21.5830   11.8330 C.3       6 GLP5        0.0000 
     56 CA         25.1195   26.1000    7.7515 C.3       3 GLC5        0.0000 
     57 CA         26.1280   27.4000    6.6370 C.3       6 GLP5        0.0000 
     58 CA         15.5868   32.9715   14.3972 C.3       3 GLC5        0.0000 
     59 CA         17.1650   33.3670   15.9940 C.3       9 GLL5        0.0000 
     60 CA         14.5440   32.8640   12.4580 C.3       6 GLP5        0.0000 
     61 CA         13.9090   34.6835   18.8978 C.3       3 GLC5        0.0000 
     62 CA         15.3250   33.5550   17.5580 C.3       9 GLL5        0.0000 
     63 CA         12.3460   35.1410   20.1420 C.3       6 GLP5        0.0000 
     64 CA         15.9667   31.9360   18.3087 C.3       3 GLC5        0.0000 
     65 CA         13.8745   33.2022   16.6351 C.3       3 GLC5        0.0000 
     66 CA         11.9660   32.8960   16.1040 C.3       6 GLP5        0.0000 
     67 CA         23.2285   34.4860   14.8287 C.3       3 GLC5        0.0000 
     68 CA         22.4180   32.2840   15.0960 C.3       9 GLL5        0.0000 
     69 CA         23.8520   36.2240   13.9880 C.3       6 GLP5        0.0000 
     70 CA         24.2710   31.9360   16.5282 C.3       3 GLC5        0.0000 
     71 CA         25.9370   31.1240   17.3870 C.3       6 GLP5        0.0000 
     72 CA         16.2695   26.6492   12.2460 C.3       3 GLC5        0.0000 
     73 CA         17.9680   27.8560   12.8810 C.3       9 GLL5        0.0000 
     74 CA         14.4700   26.0990   11.8230 C.3       6 GLP5        0.0000 
     75 CA         16.0853   26.3738   11.2578 C.3       3 GLC5        0.0000 
     76 CA         17.9270   26.1740   11.1450 C.3       9 GLL5        0.0000 
     77 CA         16.0998   28.0720    9.0868 C.3       3 GLC5        0.0000 
     78 CA         14.8160   28.3710    7.7260 C.3       6 GLP5        0.0000 
     79 CA         15.9380   27.3540   11.5673 C.3       3 GLC5        0.0000 
     80 CA         18.8606   29.2535   10.0124 C.3       3 GLC5        0.0000 
     81 CA         17.4740   27.1230   10.2400 C.3       9 GLL5        0.0000 
     82 CA         20.2700   30.2230    8.8170 C.3       6 GLP5        0.0000 
     83 CA         16.1276   28.8660   13.5998 C.3       3 GLC5        0.0000 
     84 CA         22.5640   26.1075   13.4207 C.3       3 GLC5        0.0000 
     85 CA         21.8470   26.6510   11.2930 C.3       9 GLL5        0.0000 
     86 CA         22.9680   25.0430   15.1010 C.3       6 GLP5        0.0000 
@<TRIPOS>BOND
@<TRIPOS>SUBSTRUCTURE
     1 ALC1       22 GROUP        1 X    ALC  0     ROOT ALC X 1
     2 SEC2       19 GROUP        1 X    SEC  0     **** SEC X 2
     3 GLC5        1 GROUP        1 X    GLC  0     **** GLC X 6
     4 ALP1       24 GROUP        1 Y    ALP  0     ROOT ALP Y 8
     5 SEP2       21 GROUP        1 Y    SEP  0     **** SEP Y 9
     6 GLP5        3 GROUP        1 Y    GLP  0     **** GLP Y 13
     7 ALL1       23 GROUP        1 Z    ALL  0     ROOT ALL Z 15
     8 SEL2       20 GROUP        1 Z    SEL  0     **** SEL Z 16
     9 GLL5        2 GROUP        1 Z    GLL  0     **** GLL Z 20
@<TRIPOS>SET

