#    Name: 2psu_MUU_1_ligand
#    Modification time : Mon Mar 24 19:19:59 2014

@<TRIPOS>MOLECULE
2psu_MUU_1_ligand
   71    73     1     0     0
SMALL
NO_CHARGES


@<TRIPOS>ATOM
      1 O10        17.2920   31.4310   14.3860 O.2       1 MUU200      0.0000 
      2 S8         18.0940   32.4720   14.9510 S.o2      1 MUU200      0.0000 
      3 O9         18.6180   33.3620   13.9520 O.2       1 MUU200      0.0000 
      4 C5         17.1650   33.3670   15.9940 C.ar      1 MUU200      0.0000 
      5 C6         17.4560   34.7120   16.2010 C.ar      1 MUU200      0.0000 
      6 C7         16.6970   35.4830   17.0750 C.ar      1 MUU200      0.0000 
      7 O19        17.0410   36.8120   17.2240 O.3       1 MUU200      0.0000 
      8 C18        16.5380   37.6470   18.2600 C.3       1 MUU200      0.0000 
      9 C2         15.6190   34.8970   17.7490 C.ar      1 MUU200      0.0000 
     10 C3         15.3250   33.5550   17.5580 C.ar      1 MUU200      0.0000 
     11 C4         16.0940   32.7910   16.6790 C.ar      1 MUU200      0.0000 
     12 N11        19.3830   31.7780   15.6630 N.pl3     1 MUU200      0.0000 
     13 C12        20.2230   32.7280   16.4250 C.3       1 MUU200      0.0000 
     14 C13        21.6600   32.1990   16.4240 C.3       1 MUU200      0.0000 
     15 C15        22.7920   33.2120   16.2430 C.3       1 MUU200      0.0000 
     16 C14        22.4180   32.2840   15.0960 C.3       1 MUU200      0.0000 
     17 C16        19.0940   30.5310   16.4100 C.3       1 MUU200      0.0000 
     18 C17        19.9810   29.4260   15.7850 C.3       1 MUU200      0.0000 
     19 O18        19.9780   28.2750   16.6280 O.3       1 MUU200      0.0000 
     20 C19        19.5790   29.0160   14.3550 C.3       1 MUU200      0.0000 
     21 C32        18.2550   28.2500   14.3090 C.3       1 MUU200      0.0000 
     22 C38        17.9680   27.8560   12.8810 C.ar      1 MUU200      0.0000 
     23 C33        18.1700   26.5430   12.4570 C.ar      1 MUU200      0.0000 
     24 C34        17.9270   26.1740   11.1450 C.ar      1 MUU200      0.0000 
     25 C35        17.4740   27.1230   10.2400 C.ar      1 MUU200      0.0000 
     26 C36        17.2930   28.4230   10.6550 C.ar      1 MUU200      0.0000 
     27 C37        17.5190   28.7950   11.9680 C.ar      1 MUU200      0.0000 
     28 N20        20.6400   28.1910   13.7550 N.am      1 MUU200      0.0000 
     29 C21        21.4040   28.5930   12.7310 C.2       1 MUU200      0.0000 
     30 O22        21.3000   29.6940   12.2220 O.2       1 MUU200      0.0000 
     31 C23        22.4730   27.6930   12.1880 C.3       1 MUU200      0.0000 
     32 C24        21.8470   26.6510   11.2930 C.3       1 MUU200      0.0000 
     33 C25        22.9450   25.7490   10.7890 C.2       1 MUU200      0.0000 
     34 O26        23.6570   25.1260   11.5870 O.2       1 MUU200      0.0000 
     35 N27        23.1030   25.6580    9.4670 N.am      1 MUU200      0.0000 
     36 C28        24.1110   24.8000    8.8660 C.3       1 MUU200      0.0000 
     37 H          18.2495   35.1450   15.6966 H         1 MUU200      0.0000 
     38 H          15.0475   35.4674   18.3856 H         1 MUU200      0.0000 
     39 H          14.5419   33.1198   18.0618 H         1 MUU200      0.0000 
     40 H          15.8700   31.7967   16.5350 H         1 MUU200      0.0000 
     41 H          19.8827   32.8042   17.4499 H         1 MUU200      0.0000 
     42 H          20.2137   33.7060   15.9609 H         1 MUU200      0.0000 
     43 H          22.0124   31.4615   16.8988 H         1 MUU200      0.0000 
     44 H          23.5612   32.8563   16.6630 H         1 MUU200      0.0000 
     45 H          22.3954   34.0539   16.0742 H         1 MUU200      0.0000 
     46 H          21.8785   32.7734   14.4932 H         1 MUU200      0.0000 
     47 H          23.0443   31.5758   15.0820 H         1 MUU200      0.0000 
     48 H          18.0650   30.2431   16.2985 H         1 MUU200      0.0000 
     49 H          19.3576   30.6313   17.4467 H         1 MUU200      0.0000 
     50 H          21.0063   29.8316   15.7293 H         1 MUU200      0.0000 
     51 H          19.4622   29.9268   13.7671 H         1 MUU200      0.0000 
     52 H          17.4640   28.8878   14.6822 H         1 MUU200      0.0000 
     53 H          18.3365   27.3650   14.9270 H         1 MUU200      0.0000 
     54 H          18.5063   25.8378   13.1359 H         1 MUU200      0.0000 
     55 H          18.0806   25.2050   10.8424 H         1 MUU200      0.0000 
     56 H          17.2765   26.8527    9.2685 H         1 MUU200      0.0000 
     57 H          16.9804   29.1415    9.9704 H         1 MUU200      0.0000 
     58 H          17.3542   29.7660   12.2656 H         1 MUU200      0.0000 
     59 H          20.7628   27.2430   14.1922 H         1 MUU200      0.0000 
     60 H          22.9915   27.2002   13.0081 H         1 MUU200      0.0000 
     61 H          23.1906   28.2771   11.6151 H         1 MUU200      0.0000 
     62 H          21.3597   27.1345   10.4576 H         1 MUU200      0.0000 
     63 H          21.1287   26.0717   11.8565 H         1 MUU200      0.0000 
     64 H          22.5096   26.1992    8.8008 H         1 MUU200      0.0000 
     65 H          16.7766   37.2987   19.1665 H         1 MUU200      0.0000 
     66 H          16.9022   38.5762   18.1978 H         1 MUU200      0.0000 
     67 H          15.5412   37.7201   18.2271 H         1 MUU200      0.0000 
     68 H          25.0343   25.0527    9.1553 H         1 MUU200      0.0000 
     69 H          23.9783   23.8406    9.1147 H         1 MUU200      0.0000 
     70 H          24.0930   24.8491    7.8674 H         1 MUU200      0.0000 
     71 H          20.8970   28.2395   17.0206 H         1 MUU200      0.0000 
@<TRIPOS>BOND
     1    2    1 2    
     2    3    2 2    
     3    4    2 1    
     4   12    2 1    
     5    5    4 ar   
     6   11    4 ar   
     7    6    5 ar   
     8   37    5 1    
     9    7    6 1    
    10    9    6 ar   
    11    8    7 1    
    12   65    8 1    
    13   66    8 1    
    14   67    8 1    
    15   10    9 ar   
    16   38    9 1    
    17   11   10 ar   
    18   39   10 1    
    19   40   11 1    
    20   13   12 1    
    21   17   12 1    
    22   14   13 1    
    23   41   13 1    
    24   42   13 1    
    25   15   14 1    
    26   16   14 1    
    27   43   14 1    
    28   16   15 1    
    29   44   15 1    
    30   45   15 1    
    31   46   16 1    
    32   47   16 1    
    33   18   17 1    
    34   48   17 1    
    35   49   17 1    
    36   19   18 1    
    37   20   18 1    
    38   50   18 1    
    39   71   19 1    
    40   21   20 1    
    41   28   20 1    
    42   51   20 1    
    43   22   21 1    
    44   52   21 1    
    45   53   21 1    
    46   23   22 ar   
    47   27   22 ar   
    48   24   23 ar   
    49   54   23 1    
    50   25   24 ar   
    51   55   24 1    
    52   26   25 ar   
    53   56   25 1    
    54   27   26 ar   
    55   57   26 1    
    56   58   27 1    
    57   29   28 am   
    58   59   28 1    
    59   30   29 2    
    60   31   29 1    
    61   32   31 1    
    62   60   31 1    
    63   61   31 1    
    64   33   32 1    
    65   62   32 1    
    66   63   32 1    
    67   34   33 2    
    68   35   33 am   
    69   36   35 1    
    70   64   35 1    
    71   68   36 1    
    72   69   36 1    
    73   70   36 1    
@<TRIPOS>SUBSTRUCTURE
     1 MUU200      1 GROUP   
@<TRIPOS>SET

