#    Name: 2gq3_COA_1_INTS_M
#    Modification time : Tue Mar 25 14:56:16 2014

@<TRIPOS>MOLECULE
2gq3_COA_1_INTS_M
  108     0    12     0     0
SMALL
NO_CHARGES


@<TRIPOS>ATOM
      1 CA         51.9120   20.7880   80.3280 C.3       4 GLC5        0.0000 
      2 CA         50.9890   19.7620   78.6920 C.3      12 GLL5        0.0000 
      3 CA         52.8350   21.8140   81.9640 C.3       8 GLP5        0.0000 
      4 CA         51.3255   18.7105   80.2855 C.3       4 GLC5        0.0000 
      5 CA         51.6620   17.6590   81.8790 C.3       8 GLP5        0.0000 
      6 CA         51.4460   18.2210   78.3060 C.3       4 GLC5        0.0000 
      7 CA         51.9030   16.6800   77.9200 C.3       8 GLP5        0.0000 
      8 CA         52.7345   19.8580   77.8635 C.3       4 GLC5        0.0000 
      9 CA         54.4800   19.9540   77.0350 C.3       8 GLP5        0.0000 
     10 CA         50.1330   20.3635   77.3145 C.3       4 GLC5        0.0000 
     11 CA         49.2770   20.9650   75.9370 C.3       8 GLP5        0.0000 
     12 N          49.7340   17.6330   78.2155 N.am      2 SEC2        0.0000 
     13 N          49.7470   19.1850   78.7560 N.am     10 SEL2        0.0000 
     14 N          49.7210   16.0810   77.6750 N.am      6 SEP2        0.0000 
     15 CA         50.8090   23.3055   78.0150 C.3       4 GLC5        0.0000 
     16 CA         50.1460   21.8300   79.5390 C.3      12 GLL5        0.0000 
     17 CA         51.4720   24.7810   76.4910 C.3       8 GLP5        0.0000 
     18 CA         51.4905   21.8220   80.7515 C.3       4 GLC5        0.0000 
     19 O          49.2815   23.9640   79.3775 O.2       1 ALC1        0.0000 
     20 O          50.4620   23.0660   79.9470 O.2       9 ALL1        0.0000 
     21 O          48.1010   24.8620   78.8080 O.2       5 ALP1        0.0000 
     22 NZ         47.7170   13.0740   81.3460 N.4       3 LYC4        0.0000 
     23 NZ         47.6800   13.7810   80.1490 N.4      11 LYL4        0.0000 
     24 NZ         46.9410   11.3350   82.7940 N.4       7 LYP4        0.0000 
     25 NZ         48.7950   13.6060   79.8060 N.4       3 LYC4        0.0000 
     26 NZ         50.3210   12.5000   78.6060 N.4       7 LYP4        0.0000 
     27 N          47.7170   13.0740   81.3460 N.am      2 SEC2        0.0000 
     28 N          47.6800   13.7810   80.1490 N.am     10 SEL2        0.0000 
     29 N          47.7540   12.3670   82.5430 N.am      6 SEP2        0.0000 
     30 N          48.7950   13.6060   79.8060 N.am      2 SEC2        0.0000 
     31 N          49.9100   13.4310   79.4630 N.am      6 SEP2        0.0000 
     32 NZ         45.8985   11.9360   78.1375 N.4       3 LYC4        0.0000 
     33 NZ         47.0160   13.0920   77.8040 N.4      11 LYL4        0.0000 
     34 NZ         44.7810   10.7800   78.4710 N.4       7 LYP4        0.0000 
     35 NZ         48.4630   13.2615   78.6335 N.4       3 LYC4        0.0000 
     36 N          45.8985   11.9360   78.1375 N.am      2 SEC2        0.0000 
     37 N          47.0160   13.0920   77.8040 N.am     10 SEL2        0.0000 
     38 N          44.7810   10.7800   78.4710 N.am      6 SEP2        0.0000 
     39 N          48.2480   12.5010   77.7805 N.am      2 SEC2        0.0000 
     40 N          49.4800   11.9100   77.7570 N.am      6 SEP2        0.0000 
     41 N          48.4630   13.2615   78.6335 N.am      2 SEC2        0.0000 
     42 NZ         45.7120   12.0595   80.7230 N.4       3 LYC4        0.0000 
     43 NZ         45.3930   13.1380   79.5800 N.4      11 LYL4        0.0000 
     44 NZ         45.0870   11.9590   79.0255 N.4       3 LYC4        0.0000 
     45 N          45.7120   12.0595   80.7230 N.am      2 SEC2        0.0000 
     46 N          45.3930   13.1380   79.5800 N.am     10 SEL2        0.0000 
     47 N          46.0310   10.9810   81.8660 N.am      6 SEP2        0.0000 
     48 N          45.0870   11.9590   79.0255 N.am      2 SEC2        0.0000 
     49 CA         45.6240   18.1100   82.2845 C.3       4 GLC5        0.0000 
     50 CA         44.3660   17.8220   80.8990 C.3      12 GLL5        0.0000 
     51 CA         46.8820   18.3980   83.6700 C.3       8 GLP5        0.0000 
     52 NZ         40.7160   21.5375   80.6700 N.4       3 LYC4        0.0000 
     53 NZ         41.7850   20.6550   80.4850 N.4      11 LYL4        0.0000 
     54 NZ         39.6470   22.4200   80.8550 N.4       7 LYP4        0.0000 
     55 N          40.7160   21.5375   80.6700 N.am      2 SEC2        0.0000 
     56 N          41.7850   20.6550   80.4850 N.am     10 SEL2        0.0000 
     57 N          39.6470   22.4200   80.8550 N.am      6 SEP2        0.0000 
     58 CA         41.9755   23.6095   82.4305 C.3       4 GLC5        0.0000 
     59 CA         44.0580   22.9230   82.6500 C.3      12 GLL5        0.0000 
     60 CA         39.8930   24.2960   82.2110 C.3       8 GLP5        0.0000 
     61 CA         44.4055   24.5540   86.3440 C.3       4 GLC5        0.0000 
     62 CA         45.3340   23.5400   84.7400 C.3      12 GLL5        0.0000 
     63 CA         43.4770   25.5680   87.9480 C.3       8 GLP5        0.0000 
     64 CA         43.5425   26.0705   81.4545 C.3       4 GLC5        0.0000 
     65 CA         44.5260   25.2580   83.1360 C.3      12 GLL5        0.0000 
     66 CA         42.5590   26.8830   79.7730 C.3       8 GLP5        0.0000 
     67 CA         42.4955   25.0285   83.8050 C.3       4 GLC5        0.0000 
     68 CA         40.4650   24.7990   84.4740 C.3       8 GLP5        0.0000 
     69 CA         46.9250   21.6505   83.0320 C.3       4 GLC5        0.0000 
     70 CA         46.3900   23.6960   82.4070 C.3      12 GLL5        0.0000 
     71 CA         47.4600   19.6050   83.6570 C.3       8 GLP5        0.0000 
     72 CA         48.6215   26.4190   79.7995 C.3       4 GLC5        0.0000 
     73 CA         49.2350   25.7560   81.6280 C.3      12 GLL5        0.0000 
     74 CA         48.0080   27.0820   77.9710 C.3       8 GLP5        0.0000 
     75 CA         48.2780   26.9245   84.0695 C.3       4 GLC5        0.0000 
     76 CA         49.0990   27.0380   82.4750 C.3      12 GLL5        0.0000 
     77 CA         47.4570   26.8110   85.6640 C.3       8 GLP5        0.0000 
     78 CA         50.5225   28.3400   85.3990 C.3       4 GLC5        0.0000 
     79 CA         49.2910   29.5560   84.1260 C.3      12 GLL5        0.0000 
     80 CA         51.7540   27.1240   86.6720 C.3       8 GLP5        0.0000 
     81 CA         48.3740   28.1835   84.8950 C.3       4 GLC5        0.0000 
     82 CA         48.4755   31.3610   81.3370 C.3       4 GLC5        0.0000 
     83 CA         48.5940   30.5850   83.1790 C.3      12 GLL5        0.0000 
     84 CA         48.3570   32.1370   79.4950 C.3       8 GLP5        0.0000 
     85 CA         45.8555   32.4075   82.4085 C.3       4 GLC5        0.0000 
     86 CA         46.9740   31.2520   83.7170 C.3      12 GLL5        0.0000 
     87 CA         44.7370   33.5630   81.1000 C.3       8 GLP5        0.0000 
     88 CA         46.2720   29.9795   83.4920 C.3       4 GLC5        0.0000 
     89 CA         45.5700   28.7070   83.2670 C.3       8 GLP5        0.0000 
     90 CA         47.8000   31.1340   85.6355 C.3       4 GLC5        0.0000 
     91 CA         48.6260   31.0160   87.5540 C.3       8 GLP5        0.0000 
     92 CA         48.8057   22.5497   77.9792 C.3       4 GLC5        0.0000 
     93 CA         48.8610   21.2450   79.6240 C.3      12 GLL5        0.0000 
     94 CA         48.1080   23.5620   76.3770 C.3       8 GLP5        0.0000 
     95 CA         50.2555   20.0056   81.0754 C.3       4 GLC5        0.0000 
     96 CA         51.0440   18.8070   82.6700 C.3       8 GLP5        0.0000 
     97 CA         49.3720   21.0846   77.7089 C.3       4 GLC5        0.0000 
     98 CA         47.1890   16.9980   81.6623 C.3       4 GLC5        0.0000 
     99 CA         47.3250   17.2040   79.9490 C.3      12 GLL5        0.0000 
    100 CA         47.6490   17.2720   83.3860 C.3       8 GLP5        0.0000 
    101 CA         46.1653   25.6440   84.6159 C.3       4 GLC5        0.0000 
    102 CA         46.1007   25.4947   82.2411 C.3       4 GLC5        0.0000 
    103 CA         45.1080   23.8520   83.2590 C.3      12 GLL5        0.0000 
    104 CA         46.5980   26.8640   81.6800 C.3       8 GLP5        0.0000 
    105 CA         47.8825   26.6305   81.8657 C.3       4 GLC5        0.0000 
    106 CA         47.8762   29.3402   82.8073 C.3       4 GLC5        0.0000 
    107 CA         46.8100   28.6100   81.9620 C.3       8 GLP5        0.0000 
    108 CA         48.7843   30.5433   85.6033 C.3       4 GLC5        0.0000 
@<TRIPOS>BOND
@<TRIPOS>SUBSTRUCTURE
     1 ALC1       19 GROUP        1 X    ALC  0     ROOT ALC X 1
     2 SEC2       12 GROUP        1 X    SEC  0     **** SEC X 2
     3 LYC4       22 GROUP        1 X    LYC  0     **** LYC X 4
     4 GLC5        1 GROUP        1 X    GLC  0     **** GLC X 6
     5 ALP1       21 GROUP        1 Y    ALP  0     ROOT ALP Y 8
     6 SEP2       14 GROUP        1 Y    SEP  0     **** SEP Y 9
     7 LYP4       24 GROUP        1 Y    LYP  0     **** LYP Y 11
     8 GLP5        3 GROUP        1 Y    GLP  0     **** GLP Y 13
     9 ALL1       20 GROUP        1 Z    ALL  0     ROOT ALL Z 15
    10 SEL2       13 GROUP        1 Z    SEL  0     **** SEL Z 16
    11 LYL4       23 GROUP        1 Z    LYL  0     **** LYL Z 18
    12 GLL5        2 GROUP        1 Z    GLL  0     **** GLL Z 20
@<TRIPOS>SET

