#    Name: 2gq3_COA_1_ligand
#    Modification time : Tue Mar 25 14:56:16 2014

@<TRIPOS>MOLECULE
2gq3_COA_1_ligand
   79    81     1     0     0
SMALL
NO_CHARGES


@<TRIPOS>ATOM
      1 N1A        51.1610   21.0470   79.0810 N.ar      1 COA800      0.0000 
      2 C2A        50.9890   19.7620   78.6920 C.ar      1 COA800      0.0000 
      3 N3A        49.7470   19.1850   78.7560 N.ar      1 COA800      0.0000 
      4 C4A        48.7150   19.9120   79.2210 C.ar      1 COA800      0.0000 
      5 C5A        48.8610   21.2450   79.6240 C.ar      1 COA800      0.0000 
      6 C6A        50.1460   21.8300   79.5390 C.ar      1 COA800      0.0000 
      7 N6A        50.4620   23.0660   79.9470 N.pl3     1 COA800      0.0000 
      8 N7A        47.6390   21.6530   80.0170 N.2       1 COA800      0.0000 
      9 C8A        46.7520   20.6510   79.8110 C.2       1 COA800      0.0000 
     10 N9A        47.4250   19.5510   79.3610 N.pl3     1 COA800      0.0000 
     11 C1B        46.9680   18.2460   78.9010 C.3       1 COA800      0.0000 
     12 C2B        47.3250   17.2040   79.9490 C.3       1 COA800      0.0000 
     13 O2B        48.6020   16.6120   79.7670 O.3       1 COA800      0.0000 
     14 C3B        46.1330   16.2440   79.9280 C.3       1 COA800      0.0000 
     15 O3B        46.2590   15.3830   78.8210 O.3       1 COA800      0.0000 
     16 P3B        46.6290   13.8230   79.0740 P.3       1 COA800      0.0000 
     17 O7A        47.6800   13.7810   80.1490 O.co2     1 COA800      0.0000 
     18 O8A        47.0160   13.0920   77.8040 O.co2     1 COA800      0.0000 
     19 O9A        45.3930   13.1380   79.5800 O.co2     1 COA800      0.0000 
     20 C4B        44.9930   17.2000   79.6490 C.3       1 COA800      0.0000 
     21 O4B        45.5600   18.2170   78.8270 O.3       1 COA800      0.0000 
     22 C5B        44.3660   17.8220   80.8990 C.3       1 COA800      0.0000 
     23 O5B        43.6330   18.9120   80.4090 O.3       1 COA800      0.0000 
     24 P1A        42.2610   19.3770   81.0960 P.3       1 COA800      0.0000 
     25 O1A        41.7850   20.6550   80.4850 O.co2     1 COA800      0.0000 
     26 O2A        41.1650   18.3270   81.0170 O.co2     1 COA800      0.0000 
     27 O3A        42.7330   19.3990   82.6580 O.3       1 COA800      0.0000 
     28 P2A        43.1780   20.5830   83.6700 P.3       1 COA800      0.0000 
     29 O4A        41.9490   21.3360   84.2040 O.co2     1 COA800      0.0000 
     30 O5A        43.8680   19.8950   84.8270 O.co2     1 COA800      0.0000 
     31 O6A        44.2590   21.5510   82.8990 O.3       1 COA800      0.0000 
     32 CBP        45.1080   23.8520   83.2590 C.3       1 COA800      0.0000 
     33 CCP        44.0580   22.9230   82.6500 C.3       1 COA800      0.0000 
     34 CDP        45.3340   23.5400   84.7400 C.3       1 COA800      0.0000 
     35 CEP        44.5260   25.2580   83.1360 C.3       1 COA800      0.0000 
     36 CAP        46.3900   23.6960   82.4070 C.3       1 COA800      0.0000 
     37 OAP        46.1030   23.7300   81.0010 O.3       1 COA800      0.0000 
     38 C9P        47.8110   23.9480   82.9690 C.2       1 COA800      0.0000 
     39 O9P        48.0860   23.5420   84.3080 O.2       1 COA800      0.0000 
     40 N8P        48.8190   24.4460   82.1800 N.am      1 COA800      0.0000 
     41 C7P        49.2350   25.7560   81.6280 C.3       1 COA800      0.0000 
     42 C6P        49.0990   27.0380   82.4750 C.3       1 COA800      0.0000 
     43 C5P        50.3910   27.6500   82.9870 C.2       1 COA800      0.0000 
     44 O5P        51.3930   26.9280   82.9570 O.2       1 COA800      0.0000 
     45 N4P        50.4290   28.9120   83.4770 N.am      1 COA800      0.0000 
     46 C3P        49.2910   29.5560   84.1260 C.3       1 COA800      0.0000 
     47 C2P        48.5940   30.5850   83.1790 C.3       1 COA800      0.0000 
     48 S1P        46.9740   31.2520   83.7170 S.3       1 COA800      0.0000 
     49 H          51.7937   19.2060   78.3435 H         1 COA800      0.0000 
     50 H          51.3872   23.1877   80.3064 H         1 COA800      0.0000 
     51 H          49.7444   23.7564   79.8556 H         1 COA800      0.0000 
     52 H          45.7997   20.6993   79.9562 H         1 COA800      0.0000 
     53 H          47.4243   17.9683   77.9893 H         1 COA800      0.0000 
     54 H          47.2559   17.7362   80.9234 H         1 COA800      0.0000 
     55 H          46.0171   15.8077   80.8423 H         1 COA800      0.0000 
     56 H          44.2302   16.6662   79.0985 H         1 COA800      0.0000 
     57 H          45.1671   18.1146   81.5572 H         1 COA800      0.0000 
     58 H          43.7470   17.0725   81.3634 H         1 COA800      0.0000 
     59 H          43.0608   23.2681   83.0289 H         1 COA800      0.0000 
     60 H          44.0299   23.1418   81.5508 H         1 COA800      0.0000 
     61 H          46.4216   22.3654   82.5122 H         1 COA800      0.0000 
     62 H          49.5659   23.6421   81.8358 H         1 COA800      0.0000 
     63 H          48.6844   25.9439   80.6528 H         1 COA800      0.0000 
     64 H          50.3181   25.6946   81.2924 H         1 COA800      0.0000 
     65 H          48.4359   26.8127   83.3400 H         1 COA800      0.0000 
     66 H          48.5525   27.7959   81.8704 H         1 COA800      0.0000 
     67 H          51.2995   29.4913   83.4079 H         1 COA800      0.0000 
     68 H          49.6004   30.1004   85.0264 H         1 COA800      0.0000 
     69 H          48.5325   28.8216   84.4229 H         1 COA800      0.0000 
     70 H          48.3566   30.1624   82.2059 H         1 COA800      0.0000 
     71 H          49.1808   31.4898   83.0418 H         1 COA800      0.0000 
     72 H          45.6514   22.6018   84.8777 H         1 COA800      0.0000 
     73 H          46.0196   24.1440   85.1464 H         1 COA800      0.0000 
     74 H          44.4955   23.6471   85.2743 H         1 COA800      0.0000 
     75 H          45.1455   25.9501   83.5065 H         1 COA800      0.0000 
     76 H          44.3477   25.5041   82.1833 H         1 COA800      0.0000 
     77 H          43.6601   25.3459   83.6284 H         1 COA800      0.0000 
     78 H          48.5432   15.7244   80.2238 H         1 COA800      0.0000 
     79 H          46.8448   23.2137   80.5730 H         1 COA800      0.0000 
@<TRIPOS>BOND
     1    2    1 ar   
     2    6    1 ar   
     3    3    2 ar   
     4   49    2 1    
     5    4    3 ar   
     6    5    4 ar   
     7   10    4 1    
     8    6    5 ar   
     9    8    5 1    
    10    7    6 1    
    11   50    7 1    
    12   51    7 1    
    13    9    8 2    
    14   10    9 1    
    15   52    9 1    
    16   11   10 1    
    17   12   11 1    
    18   21   11 1    
    19   53   11 1    
    20   13   12 1    
    21   14   12 1    
    22   54   12 1    
    23   78   13 1    
    24   15   14 1    
    25   20   14 1    
    26   55   14 1    
    27   16   15 1    
    28   17   16 ar   
    29   18   16 ar   
    30   19   16 ar   
    31   21   20 1    
    32   22   20 1    
    33   56   20 1    
    34   23   22 1    
    35   57   22 1    
    36   58   22 1    
    37   24   23 1    
    38   25   24 ar   
    39   26   24 ar   
    40   27   24 1    
    41   28   27 1    
    42   29   28 ar   
    43   30   28 ar   
    44   31   28 1    
    45   33   31 1    
    46   33   32 1    
    47   34   32 1    
    48   35   32 1    
    49   36   32 1    
    50   59   33 1    
    51   60   33 1    
    52   72   34 1    
    53   73   34 1    
    54   74   34 1    
    55   75   35 1    
    56   76   35 1    
    57   77   35 1    
    58   37   36 1    
    59   38   36 1    
    60   61   36 1    
    61   79   37 1    
    62   39   38 2    
    63   40   38 am   
    64   41   40 1    
    65   62   40 1    
    66   42   41 1    
    67   63   41 1    
    68   64   41 1    
    69   43   42 1    
    70   65   42 1    
    71   66   42 1    
    72   44   43 2    
    73   45   43 am   
    74   46   45 1    
    75   67   45 1    
    76   47   46 1    
    77   68   46 1    
    78   69   46 1    
    79   48   47 1    
    80   70   47 1    
    81   71   47 1    
@<TRIPOS>SUBSTRUCTURE
     1 COA800      1 GROUP   
@<TRIPOS>SET

