#    Name: 3qs1_006_2_INTS_M
#    Modification time : Tue Mar 25 10:05:14 2014

@<TRIPOS>MOLECULE
3qs1_006_2_INTS_M
   98     0     9     0     0
SMALL
NO_CHARGES


@<TRIPOS>ATOM
      1 O          27.6370  -39.4590    8.5010 O.2       1 ALC1        0.0000 
      2 O          27.5230  -37.9110    8.4680 O.2       7 ALL1        0.0000 
      3 O          27.7510  -41.0070    8.5340 O.2       4 ALP1        0.0000 
      4 N          24.4890  -40.7955    8.3550 N.am      2 SEC2        0.0000 
      5 N          25.1190  -39.9330    7.5870 N.am      8 SEL2        0.0000 
      6 N          23.8590  -41.6580    9.1230 N.am      5 SEP2        0.0000 
      7 O          24.5975  -39.9665    6.3925 O.2       1 ALC1        0.0000 
      8 O          25.1190  -39.9330    7.5870 O.2       7 ALL1        0.0000 
      9 O          24.0760  -40.0000    5.1980 O.2       4 ALP1        0.0000 
     10 CA         26.7415  -33.4615    2.6855 C.3       3 GLC5        0.0000 
     11 CA         26.8570  -34.9440    4.3510 C.3       9 GLL5        0.0000 
     12 CA         26.6260  -31.9790    1.0200 C.3       6 GLP5        0.0000 
     13 CA         25.9435  -40.7555    7.9000 C.3       3 GLC5        0.0000 
     14 CA         25.2690  -38.7010    8.2990 C.3       9 GLL5        0.0000 
     15 CA         26.6180  -42.8100    7.5010 C.3       6 GLP5        0.0000 
     16 O          20.3475  -36.8525    7.9870 O.2       1 ALC1        0.0000 
     17 O          21.0340  -35.3110    8.0250 O.2       7 ALL1        0.0000 
     18 O          19.6610  -38.3940    7.9490 O.2       4 ALP1        0.0000 
     19 N          18.4970  -36.0680    5.4795 N.am      2 SEC2        0.0000 
     20 N          18.9020  -35.1630    6.1790 N.am      8 SEL2        0.0000 
     21 N          18.0920  -36.9730    4.7800 N.am      5 SEP2        0.0000 
     22 O          17.7370  -34.8405    5.2295 O.2       1 ALC1        0.0000 
     23 O          18.9020  -35.1630    6.1790 O.2       7 ALL1        0.0000 
     24 O          16.5720  -34.5180    4.2800 O.2       4 ALP1        0.0000 
     25 CA         19.4450  -33.2145    8.5265 C.3       3 GLC5        0.0000 
     26 CA         20.7840  -34.0910    7.2420 C.3       9 GLL5        0.0000 
     27 CA         18.1060  -32.3380    9.8110 C.3       6 GLP5        0.0000 
     28 CA         18.2110  -33.6575    8.2125 C.3       3 GLC5        0.0000 
     29 CA         19.3210  -33.9720    6.8390 C.3       9 GLL5        0.0000 
     30 CA         17.1010  -33.3430    9.5860 C.3       6 GLP5        0.0000 
     31 CA         19.5530  -33.9130    2.3735 C.3       3 GLC5        0.0000 
     32 CA         20.9380  -33.1020    3.7820 C.3       9 GLL5        0.0000 
     33 CA         18.1680  -34.7240    0.9650 C.3       6 GLP5        0.0000 
     34 CA         18.1890  -31.8895    6.9660 C.3       3 GLC5        0.0000 
     35 CA         19.3220  -32.9100    5.7750 C.3       9 GLL5        0.0000 
     36 CA         17.0560  -30.8690    8.1570 C.3       6 GLP5        0.0000 
     37 N          28.3380  -34.3740    9.2675 N.am      2 SEC2        0.0000 
     38 N          28.0640  -35.7100    8.7970 N.am      8 SEL2        0.0000 
     39 N          28.6120  -33.0380    9.7380 N.am      5 SEP2        0.0000 
     40 CA         31.0380  -34.3100    7.8505 C.3       3 GLC5        0.0000 
     41 CA         32.4340  -35.3950    8.5550 C.3       9 GLL5        0.0000 
     42 CA         29.6420  -33.2250    7.1460 C.3       6 GLP5        0.0000 
     43 CA         29.5295  -40.5445   11.3510 C.3       3 GLC5        0.0000 
     44 CA         31.4490  -39.8600   11.0620 C.3       9 GLL5        0.0000 
     45 CA         27.6100  -41.2290   11.6400 C.3       6 GLP5        0.0000 
     46 CA         31.7780  -41.4865   10.2140 C.3       3 GLC5        0.0000 
     47 CA         32.1070  -43.1130    9.3660 C.3       6 GLP5        0.0000 
     48 CA         32.4615  -40.4050    9.5335 C.3       3 GLC5        0.0000 
     49 CA         32.2450  -38.6080   10.7300 C.3       9 GLL5        0.0000 
     50 CA         32.6780  -42.2020    8.3370 C.3       6 GLP5        0.0000 
     51 CA         28.5660  -37.1635   11.1605 C.3       3 GLC5        0.0000 
     52 CA         29.5020  -37.3260    9.7140 C.3       9 GLL5        0.0000 
     53 CA         27.6300  -37.0010   12.6070 C.3       6 GLP5        0.0000 
     54 CA         26.1215  -36.9810   11.5175 C.3       3 GLC5        0.0000 
     55 CA         24.6130  -36.9610   10.4280 C.3       9 GLL5        0.0000 
     56 CA         25.5375  -35.9290   12.3440 C.3       3 GLC5        0.0000 
     57 CA         23.7020  -36.1220   11.6530 C.3       9 GLL5        0.0000 
     58 CA         27.3730  -35.7360   13.0350 C.3       6 GLP5        0.0000 
     59 CA         23.8845  -34.1550   11.2070 C.3       3 GLC5        0.0000 
     60 CA         24.0670  -32.1880   10.7610 C.3       6 GLP5        0.0000 
     61 CA         23.4250  -34.9865   13.3985 C.3       3 GLC5        0.0000 
     62 CA         23.1480  -33.8510   15.1440 C.3       6 GLP5        0.0000 
     63 CA         23.2990  -37.1380   13.4985 C.3       3 GLC5        0.0000 
     64 CA         22.8960  -38.1540   15.3440 C.3       6 GLP5        0.0000 
     65 CA         22.6110  -33.7575   11.0605 C.3       3 GLC5        0.0000 
     66 CA         21.1550  -35.3270   11.3600 C.3       9 GLL5        0.0000 
     67 CA         20.1865  -39.1700   11.9995 C.3       3 GLC5        0.0000 
     68 CA         21.6880  -37.7340   11.6750 C.3       9 GLL5        0.0000 
     69 CA         18.6850  -40.6060   12.3240 C.3       6 GLP5        0.0000 
     70 CA         22.2920  -37.9440   13.5095 C.3       3 GLC5        0.0000 
     71 CA         21.4845  -38.6375    8.7765 C.3       3 GLC5        0.0000 
     72 CA         22.3370  -36.7180    9.5150 C.3       9 GLL5        0.0000 
     73 CA         20.6320  -40.5570    8.0380 C.3       6 GLP5        0.0000 
     74 CA         26.4115  -37.1018    3.5145 C.3       3 GLC5        0.0000 
     75 CA         26.3480  -36.0410    5.0340 C.3       9 GLL5        0.0000 
     76 CA         26.0540  -37.6740    1.7380 C.3       6 GLP5        0.0000 
     77 CA         29.0876  -34.4269    5.8971 C.3       3 GLC5        0.0000 
     78 CA         28.5630  -36.9370    5.4110 C.3       9 GLL5        0.0000 
     79 CA         29.5796  -36.3499    3.0631 C.3       3 GLC5        0.0000 
     80 CA         29.0920  -35.8480    4.7420 C.3       9 GLL5        0.0000 
     81 CA         30.6260  -37.0710    1.4780 C.3       6 GLP5        0.0000 
     82 CA         26.8010  -36.2892    3.0118 C.3       3 GLC5        0.0000 
     83 CA         28.2390  -34.8650    4.2200 C.3       9 GLL5        0.0000 
     84 CA         26.8992  -34.0362    5.8053 C.3       3 GLC5        0.0000 
     85 CA         27.1960  -32.5800    6.9180 C.3       6 GLP5        0.0000 
     86 CA         22.8380  -34.4250    1.7850 C.3       3 GLC5        0.0000 
     87 CA         22.9990  -34.2780    4.2040 C.3       9 GLL5        0.0000 
     88 CA         23.0940  -34.9210   -0.2110 C.3       6 GLP5        0.0000 
     89 CA         20.1988  -36.0381    5.9679 C.3       3 GLC5        0.0000 
     90 CA         21.4040  -34.0060    5.9110 C.3       9 GLL5        0.0000 
     91 CA         20.1900  -38.0660    5.2280 C.3       6 GLP5        0.0000 
     92 CA         17.6818  -34.5655    5.5860 C.3       3 GLC5        0.0000 
     93 CA         16.0420  -35.6900    4.8650 C.3       6 GLP5        0.0000 
     94 CA         20.7683  -32.2785    2.2465 C.3       3 GLC5        0.0000 
     95 CA         19.9850  -31.2160    0.9230 C.3       6 GLP5        0.0000 
     96 CA         21.1221  -35.3627    3.6448 C.3       3 GLC5        0.0000 
     97 CA         22.1650  -33.5800    3.3580 C.3       9 GLL5        0.0000 
     98 CA         20.6180  -37.1270    3.0190 C.3       6 GLP5        0.0000 
@<TRIPOS>BOND
@<TRIPOS>SUBSTRUCTURE
     1 ALC1        1 GROUP        1 X    ALC  0     ROOT ALC X 1
     2 SEC2        4 GROUP        1 X    SEC  0     **** SEC X 2
     3 GLC5       10 GROUP        1 X    GLC  0     **** GLC X 6
     4 ALP1        3 GROUP        1 Y    ALP  0     ROOT ALP Y 8
     5 SEP2        6 GROUP        1 Y    SEP  0     **** SEP Y 9
     6 GLP5       12 GROUP        1 Y    GLP  0     **** GLP Y 13
     7 ALL1        2 GROUP        1 Z    ALL  0     ROOT ALL Z 15
     8 SEL2        5 GROUP        1 Z    SEL  0     **** SEL Z 16
     9 GLL5       11 GROUP        1 Z    GLL  0     **** GLL Z 20
@<TRIPOS>SET

