#    Name: 3qs1_006_2_ligand
#    Modification time : Tue Mar 25 10:05:14 2014

@<TRIPOS>MOLECULE
3qs1_006_2_ligand
   86    90     1     0     0
SMALL
NO_CHARGES


@<TRIPOS>ATOM
      1 N2         27.5230  -37.9110    8.4680 N.am      1 006330      0.0000 
      2 C20        26.2900  -37.7490    7.6930 C.3       1 006330      0.0000 
      3 O20        25.1190  -39.9330    7.5870 O.3       1 006330      0.0000 
      4 C21        26.5990  -38.1780    6.2730 C.3       1 006330      0.0000 
      5 O21        23.0630  -38.3540    7.4850 O.2       1 006330      0.0000 
      6 C22        27.1900  -37.0180    5.5480 C.ar      1 006330      0.0000 
      7 C23        28.5630  -36.9370    5.4110 C.ar      1 006330      0.0000 
      8 C24        29.0920  -35.8480    4.7420 C.ar      1 006330      0.0000 
      9 C25        28.2390  -34.8650    4.2200 C.ar      1 006330      0.0000 
     10 C26        26.8570  -34.9440    4.3510 C.ar      1 006330      0.0000 
     11 C27        26.3480  -36.0410    5.0340 C.ar      1 006330      0.0000 
     12 C28        25.2690  -38.7010    8.2990 C.3       1 006330      0.0000 
     13 C29        23.9020  -38.0950    8.3380 C.2       1 006330      0.0000 
     14 N30        21.0340  -35.3110    8.0250 N.am      1 006330      0.0000 
     15 O30        18.9020  -35.1630    6.1790 O.3       1 006330      0.0000 
     16 C31        20.7840  -34.0910    7.2420 C.3       1 006330      0.0000 
     17 C32        21.4040  -34.0060    5.9110 C.ar      1 006330      0.0000 
     18 C33        22.6220  -34.4950    5.5020 C.ar      1 006330      0.0000 
     19 C34        22.9990  -34.2780    4.2040 C.ar      1 006330      0.0000 
     20 C35        19.3210  -33.9720    6.8390 C.3       1 006330      0.0000 
     21 C36        20.5910  -33.3250    5.0890 C.ar      1 006330      0.0000 
     22 C37        20.9380  -33.1020    3.7820 C.ar      1 006330      0.0000 
     23 C38        22.1650  -33.5800    3.3580 C.ar      1 006330      0.0000 
     24 C39        19.3220  -32.9100    5.7750 C.3       1 006330      0.0000 
     25 C40        34.2260  -37.3380   11.2780 C.ar      1 006330      0.0000 
     26 O40        28.0640  -35.7100    8.7970 O.2       1 006330      0.0000 
     27 C41        33.8640  -36.3910   10.3200 C.ar      1 006330      0.0000 
     28 O41        30.6760  -37.7820    9.0180 O.3       1 006330      0.0000 
     29 C42        32.7000  -36.5120    9.5530 C.ar      1 006330      0.0000 
     30 C43        32.4340  -35.3950    8.5550 C.3       1 006330      0.0000 
     31 C44        31.4490  -39.8600   11.0620 C.3       1 006330      0.0000 
     32 C45        31.8650  -37.6450    9.7450 C.ar      1 006330      0.0000 
     33 C46        32.2450  -38.6080   10.7300 C.ar      1 006330      0.0000 
     34 C47        33.4150  -38.4470   11.4760 C.ar      1 006330      0.0000 
     35 C48        28.2920  -36.9050    8.9220 C.2       1 006330      0.0000 
     36 C49        29.5020  -37.3260    9.7140 C.3       1 006330      0.0000 
     37 C50        24.6130  -36.9610   10.4280 C.3       1 006330      0.0000 
     38 N50        23.6600  -37.3120    9.3730 N.am      1 006330      0.0000 
     39 O50        23.0550  -34.6660    8.7030 O.2       1 006330      0.0000 
     40 S50        23.7020  -36.1220   11.6530 S.3       1 006330      0.0000 
     41 C51        22.1200  -36.4540   11.0140 C.3       1 006330      0.0000 
     42 C52        21.1550  -35.3270   11.3600 C.3       1 006330      0.0000 
     43 C53        21.6880  -37.7340   11.6750 C.3       1 006330      0.0000 
     44 C54        22.3370  -36.7180    9.5150 C.3       1 006330      0.0000 
     45 C55        22.1660  -35.4780    8.7030 C.2       1 006330      0.0000 
     46 H          27.7908  -38.9203    8.6621 H         1 006330      0.0000 
     47 H          25.9406  -36.7707    7.7197 H         1 006330      0.0000 
     48 H          25.6818  -38.4946    5.7886 H         1 006330      0.0000 
     49 H          27.3019  -39.0035    6.2949 H         1 006330      0.0000 
     50 H          29.1704  -37.6607    5.7929 H         1 006330      0.0000 
     51 H          30.1078  -35.7516    4.6232 H         1 006330      0.0000 
     52 H          28.6577  -34.0541    3.7205 H         1 006330      0.0000 
     53 H          26.2513  -34.2353    3.9666 H         1 006330      0.0000 
     54 H          25.3237  -36.1315    5.1619 H         1 006330      0.0000 
     55 H          25.5582  -38.9070    9.3352 H         1 006330      0.0000 
     56 H          20.2763  -36.0178    8.0093 H         1 006330      0.0000 
     57 H          21.0141  -33.1926    7.7922 H         1 006330      0.0000 
     58 H          23.2254  -35.0044    6.1490 H         1 006330      0.0000 
     59 H          23.9033  -34.6341    3.8567 H         1 006330      0.0000 
     60 H          18.7408  -33.6854    7.6324 H         1 006330      0.0000 
     61 H          20.3228  -32.6060    3.1449 H         1 006330      0.0000 
     62 H          22.4636  -33.4067    2.3742 H         1 006330      0.0000 
     63 H          19.4328  -31.9665    6.2051 H         1 006330      0.0000 
     64 H          18.5062  -33.0351    5.1376 H         1 006330      0.0000 
     65 H          35.0801  -37.2139   11.8269 H         1 006330      0.0000 
     66 H          34.4803  -35.5644   10.1689 H         1 006330      0.0000 
     67 H          33.6739  -39.1572   12.1758 H         1 006330      0.0000 
     68 H          29.7733  -36.4590   10.4008 H         1 006330      0.0000 
     69 H          29.1599  -38.1206   10.4547 H         1 006330      0.0000 
     70 H          25.3452  -36.2507   10.1390 H         1 006330      0.0000 
     71 H          25.0156  -37.7917   10.9494 H         1 006330      0.0000 
     72 H          21.5812  -37.4524    9.2182 H         1 006330      0.0000 
     73 H          33.1717  -35.3122    7.8849 H         1 006330      0.0000 
     74 H          31.5888  -35.5479    8.0430 H         1 006330      0.0000 
     75 H          32.3468  -34.5068    9.0062 H         1 006330      0.0000 
     76 H          31.3492  -40.4584   10.2670 H         1 006330      0.0000 
     77 H          31.8873  -40.3989   11.7813 H         1 006330      0.0000 
     78 H          30.5271  -39.6402   11.3810 H         1 006330      0.0000 
     79 H          21.0625  -35.2076   12.3485 H         1 006330      0.0000 
     80 H          21.4582  -34.4505   10.9860 H         1 006330      0.0000 
     81 H          20.2386  -35.4986   10.9985 H         1 006330      0.0000 
     82 H          22.2068  -38.5196   11.3378 H         1 006330      0.0000 
     83 H          21.8161  -37.7017   12.6662 H         1 006330      0.0000 
     84 H          20.7210  -37.9289   11.5106 H         1 006330      0.0000 
     85 H          24.5584  -39.7051    6.7909 H         1 006330      0.0000 
     86 H          18.1745  -34.8721    5.5576 H         1 006330      0.0000 
@<TRIPOS>BOND
     1    2    1 1    
     2   35    1 am   
     3   46    1 1    
     4    4    2 1    
     5   12    2 1    
     6   47    2 1    
     7   12    3 1    
     8   85    3 1    
     9    6    4 1    
    10   48    4 1    
    11   49    4 1    
    12   13    5 2    
    13    7    6 ar   
    14   11    6 ar   
    15    8    7 ar   
    16   50    7 1    
    17    9    8 ar   
    18   51    8 1    
    19   10    9 ar   
    20   52    9 1    
    21   11   10 ar   
    22   53   10 1    
    23   54   11 1    
    24   13   12 1    
    25   55   12 1    
    26   38   13 am   
    27   16   14 1    
    28   45   14 am   
    29   56   14 1    
    30   20   15 1    
    31   86   15 1    
    32   17   16 1    
    33   20   16 1    
    34   57   16 1    
    35   18   17 ar   
    36   21   17 ar   
    37   19   18 ar   
    38   58   18 1    
    39   23   19 ar   
    40   59   19 1    
    41   24   20 1    
    42   60   20 1    
    43   22   21 ar   
    44   24   21 1    
    45   23   22 ar   
    46   61   22 1    
    47   62   23 1    
    48   63   24 1    
    49   64   24 1    
    50   27   25 ar   
    51   34   25 ar   
    52   65   25 1    
    53   35   26 2    
    54   29   27 ar   
    55   66   27 1    
    56   32   28 1    
    57   36   28 1    
    58   30   29 1    
    59   32   29 ar   
    60   73   30 1    
    61   74   30 1    
    62   75   30 1    
    63   33   31 1    
    64   76   31 1    
    65   77   31 1    
    66   78   31 1    
    67   33   32 ar   
    68   34   33 ar   
    69   67   34 1    
    70   36   35 1    
    71   68   36 1    
    72   69   36 1    
    73   38   37 1    
    74   40   37 1    
    75   70   37 1    
    76   71   37 1    
    77   44   38 1    
    78   45   39 2    
    79   41   40 1    
    80   42   41 1    
    81   43   41 1    
    82   44   41 1    
    83   79   42 1    
    84   80   42 1    
    85   81   42 1    
    86   82   43 1    
    87   83   43 1    
    88   84   43 1    
    89   45   44 1    
    90   72   44 1    
@<TRIPOS>SUBSTRUCTURE
     1 006330      1 GROUP   
@<TRIPOS>SET

