#    Name: 3zso_O2N_1_INTS_M
#    Modification time : Tue Mar 25 03:55:15 2014

@<TRIPOS>MOLECULE
3zso_O2N_1_INTS_M
   80     0     9     0     0
SMALL
NO_CHARGES


@<TRIPOS>ATOM
      1 CA        -13.9570   48.5870    4.8740 C.3       3 GLC5        0.0000 
      2 CA        -12.1670   49.3520    5.0980 C.3       9 GLL5        0.0000 
      3 CA        -15.7470   47.8220    4.6500 C.3       6 GLP5        0.0000 
      4 CA        -10.0160   46.2770    6.1305 C.3       3 GLC5        0.0000 
      5 CA        -10.1340   48.1430    5.0200 C.3       9 GLL5        0.0000 
      6 CA         -9.8980   44.4110    7.2410 C.3       6 GLP5        0.0000 
      7 CA        -14.0240   49.2935    3.6930 C.3       3 GLC5        0.0000 
      8 CA        -12.0970   49.5930    3.7350 C.3       9 GLL5        0.0000 
      9 CA        -15.9510   48.9940    3.6510 C.3       6 GLP5        0.0000 
     10 CA        -10.6485   44.0715   -3.9495 C.3       3 GLC5        0.0000 
     11 CA        -12.1820   45.0440   -2.6950 C.3       9 GLL5        0.0000 
     12 CA         -9.1150   43.0990   -5.2040 C.3       6 GLP5        0.0000 
     13 CA         -8.2640   45.4400   -2.6640 C.3       3 GLC5        0.0000 
     14 CA         -8.0190   44.2790   -1.1000 C.3       9 GLL5        0.0000 
     15 CA         -8.5090   46.6010   -4.2280 C.3       6 GLP5        0.0000 
     16 CA         -6.8955   42.5300   -1.7220 C.3       3 GLC5        0.0000 
     17 CA         -5.7720   40.7810   -2.3440 C.3       6 GLP5        0.0000 
     18 CA        -11.3475   42.5455    1.0560 C.3       3 GLC5        0.0000 
     19 CA         -9.6300   43.3030    0.4780 C.3       9 GLL5        0.0000 
     20 CA        -13.0650   41.7880    1.6340 C.3       6 GLP5        0.0000 
     21 CA        -13.8050   43.0520   -3.5695 C.3       3 GLC5        0.0000 
     22 CA        -13.5130   44.8600   -2.4080 C.3       9 GLL5        0.0000 
     23 CA        -14.0970   41.2440   -4.7310 C.3       6 GLP5        0.0000 
     24 CA        -14.3255   43.6590    0.2440 C.3       3 GLC5        0.0000 
     25 CA        -14.0810   45.2910   -1.2220 C.3       9 GLL5        0.0000 
     26 CA        -14.5700   42.0270    1.7100 C.3       6 GLP5        0.0000 
     27 CA         -7.9665   42.0675   -2.1425 C.3       3 GLC5        0.0000 
     28 CA         -9.0620   43.3710   -0.7840 C.3       9 GLL5        0.0000 
     29 CA         -6.8710   40.7640   -3.5010 C.3       6 GLP5        0.0000 
     30 CA         -9.5520   47.9190   -2.8575 C.3       3 GLC5        0.0000 
     31 CA        -10.5950   49.2370   -1.4870 C.3       9 GLL5        0.0000 
     32 CA        -17.3255   43.3900   -2.6255 C.3       3 GLC5        0.0000 
     33 CA        -15.6260   44.2650   -2.3770 C.3       9 GLL5        0.0000 
     34 CA        -19.0250   42.5150   -2.8740 C.3       6 GLP5        0.0000 
     35 CA        -15.4000   42.2630   -2.5310 C.3       3 GLC5        0.0000 
     36 CA        -15.1740   40.2610   -2.6850 C.3       6 GLP5        0.0000 
     37 CA        -11.5795   41.5305    0.0285 C.3       3 GLC5        0.0000 
     38 CA        -10.0940   41.2730   -1.5770 C.3       9 GLL5        0.0000 
     39 CA         -9.6045   42.1860   -3.3905 C.3       3 GLC5        0.0000 
     40 CA        -11.4355   40.8740   -3.1730 C.3       3 GLC5        0.0000 
     41 CA        -12.7770   40.4750   -4.7690 C.3       6 GLP5        0.0000 
     42 CA        -10.9525   39.8065   -0.8135 C.3       3 GLC5        0.0000 
     43 CA        -11.8110   38.3400   -0.0500 C.3       6 GLP5        0.0000 
     44 CA         -8.4825   41.0185   -2.5390 C.3       3 GLC5        0.0000 
     45 CA         -6.2460   42.8550    7.7180 C.3       3 GLC5        0.0000 
     46 CA         -4.2950   42.9450    7.2050 C.3       9 GLL5        0.0000 
     47 CA         -8.1970   42.7650    8.2310 C.3       6 GLP5        0.0000 
     48 CA         -2.9935   41.9070    6.1450 C.3       3 GLC5        0.0000 
     49 CA         -1.6920   40.8690    5.0850 C.3       6 GLP5        0.0000 
     50 O          -9.3520   45.6210    3.9760 O.2       1 ALC1        0.0000 
     51 O          -8.5540   46.4980    3.0730 O.2       7 ALL1        0.0000 
     52 O         -10.1500   44.7440    4.8790 O.2       4 ALP1        0.0000 
     53 N         -15.9185   45.7790    2.4555 N.am      2 SEC2        0.0000 
     54 N         -14.9210   45.4650    1.4580 N.am      8 SEL2        0.0000 
     55 N         -16.9160   46.0930    3.4530 N.am      5 SEP2        0.0000 
     56 N         -14.9685   44.0855    0.9880 N.am      2 SEC2        0.0000 
     57 N         -15.0160   42.7060    0.5180 N.am      5 SEP2        0.0000 
     58 N         -14.1800   47.2030    3.0910 N.am      2 SEC2        0.0000 
     59 N         -13.8560   47.3660    1.7630 N.am      8 SEL2        0.0000 
     60 N         -14.5040   47.0400    4.4190 N.am      5 SEP2        0.0000 
     61 N         -16.5610   46.0615   -0.5635 N.am      2 SEC2        0.0000 
     62 N         -15.4470   44.9910   -1.1430 N.am      8 SEL2        0.0000 
     63 N         -17.6750   47.1320    0.0160 N.am      5 SEP2        0.0000 
     64 CA        -11.4453   46.8117    4.6300 C.3       3 GLC5        0.0000 
     65 CA        -12.8000   45.3670    4.9210 C.3       6 GLP5        0.0000 
     66 CA        -12.3449   47.3302    4.7521 C.3       3 GLC5        0.0000 
     67 CA        -10.1583   46.0018   -3.2147 C.3       3 GLC5        0.0000 
     68 CA         -9.5390   42.2163    2.3320 C.3       3 GLC5        0.0000 
     69 CA         -9.0860   44.1280    1.4740 C.3       9 GLL5        0.0000 
     70 CA         -9.7200   40.7170    3.6880 C.3       6 GLP5        0.0000 
     71 CA         -7.8300   43.4290    5.8833 C.3       3 GLC5        0.0000 
     72 CA         -6.8620   44.1580    4.2050 C.3       9 GLL5        0.0000 
     73 CA         -9.2340   43.0060    7.0950 C.3       6 GLP5        0.0000 
     74 CA         -8.8277   43.4620   -3.0730 C.3       3 GLC5        0.0000 
     75 CA         -6.0378   44.8058   -0.3565 C.3       3 GLC5        0.0000 
     76 CA         -4.1790   44.7830   -1.0430 C.3       6 GLP5        0.0000 
     77 CA        -12.3971   46.6411   -3.4849 C.3       3 GLC5        0.0000 
     78 CA        -11.4330   45.7610   -1.7080 C.3       9 GLL5        0.0000 
     79 CA        -12.1340   48.1510   -4.6650 C.3       6 GLP5        0.0000 
     80 CA        -11.6329   48.7987   -2.9278 C.3       3 GLC5        0.0000 
@<TRIPOS>BOND
@<TRIPOS>SUBSTRUCTURE
     1 ALC1       50 GROUP        1 X    ALC  0     ROOT ALC X 1
     2 SEC2       53 GROUP        1 X    SEC  0     **** SEC X 2
     3 GLC5        1 GROUP        1 X    GLC  0     **** GLC X 6
     4 ALP1       52 GROUP        1 Y    ALP  0     ROOT ALP Y 8
     5 SEP2       55 GROUP        1 Y    SEP  0     **** SEP Y 9
     6 GLP5        3 GROUP        1 Y    GLP  0     **** GLP Y 13
     7 ALL1       51 GROUP        1 Z    ALL  0     ROOT ALL Z 15
     8 SEL2       54 GROUP        1 Z    SEL  0     **** SEL Z 16
     9 GLL5        2 GROUP        1 Z    GLL  0     **** GLL Z 20
@<TRIPOS>SET

