#    Name: 3zso_O2N_1_ligand
#    Modification time : Tue Mar 25 03:55:15 2014

@<TRIPOS>MOLECULE
3zso_O2N_1_ligand
   76    80     1     0     0
SMALL
NO_CHARGES


@<TRIPOS>ATOM
      1 C1        -11.1980   48.6360    5.7650 C.ar      1 O2N1219     0.0000 
      2 C2        -12.1670   49.3520    5.0980 C.ar      1 O2N1219     0.0000 
      3 C3        -10.1340   48.1430    5.0200 C.ar      1 O2N1219     0.0000 
      4 C4        -12.0970   49.5930    3.7350 C.ar      1 O2N1219     0.0000 
      5 C5        -11.4330   45.7610   -1.7080 C.ar      1 O2N1219     0.0000 
      6 C6         -7.5110   45.0570   -0.0520 C.ar      1 O2N1219     0.0000 
      7 C7         -9.0860   44.1280    1.4740 C.ar      1 O2N1219     0.0000 
      8 C8         -5.2450   45.7400    3.4850 C.ar      1 O2N1219     0.0000 
      9 C9         -6.8620   44.1580    4.2050 C.ar      1 O2N1219     0.0000 
     10 C10       -12.1820   45.0440   -2.6950 C.ar      1 O2N1219     0.0000 
     11 C11        -8.0190   44.2790   -1.1000 C.ar      1 O2N1219     0.0000 
     12 C12        -9.6300   43.3030    0.4780 C.ar      1 O2N1219     0.0000 
     13 C13        -4.3690   45.1910    4.4190 C.ar      1 O2N1219     0.0000 
     14 C14        -5.9900   43.5460    5.1380 C.ar      1 O2N1219     0.0000 
     15 C15       -10.0470   48.3700    3.6580 C.ar      1 O2N1219     0.0000 
     16 C16       -13.3770   45.9810   -0.2340 C.ar      1 O2N1219     0.0000 
     17 C17        -8.0280   44.9890    1.2360 C.ar      1 O2N1219     0.0000 
     18 C18        -6.5240   45.2110    3.3620 C.ar      1 O2N1219     0.0000 
     19 C19       -11.0350   49.1020    3.0010 C.ar      1 O2N1219     0.0000 
     20 C20       -12.0130   46.2190   -0.4920 C.ar      1 O2N1219     0.0000 
     21 C21       -13.5130   44.8600   -2.4080 C.ar      1 O2N1219     0.0000 
     22 C22       -14.0810   45.2910   -1.2220 C.ar      1 O2N1219     0.0000 
     23 C23        -9.0620   43.3710   -0.7840 C.ar      1 O2N1219     0.0000 
     24 C24        -4.7340   44.1160    5.2220 C.ar      1 O2N1219     0.0000 
     25 C25       -10.1880   50.4690   -1.8410 C.2       1 O2N1219     0.0000 
     26 C26       -10.5950   49.2370   -1.4870 C.2       1 O2N1219     0.0000 
     27 C27        -8.8760   47.8470    2.9210 C.2       1 O2N1219     0.0000 
     28 C28       -14.1030   46.3470    1.0410 C.2       1 O2N1219     0.0000 
     29 C29       -15.6260   44.2650   -2.3770 C.3       1 O2N1219     0.0000 
     30 C30       -10.0940   41.2730   -1.5770 C.3       1 O2N1219     0.0000 
     31 C31        -4.2950   42.9450    7.2050 C.3       1 O2N1219     0.0000 
     32 C32       -10.9890   49.4020    1.5390 C.3       1 O2N1219     0.0000 
     33 C33       -11.2370   46.9690    0.5810 C.3       1 O2N1219     0.0000 
     34 C34       -11.8720   49.0400   -0.7170 C.3       1 O2N1219     0.0000 
     35 C35        -7.4560   45.8790    2.3540 C.3       1 O2N1219     0.0000 
     36 N36        -8.5540   46.4980    3.0730 N.am      1 O2N1219     0.0000 
     37 N37       -11.7660   48.4410    0.6520 N.4       1 O2N1219     0.0000 
     38 O38       -14.9210   45.4650    1.4580 O.co2     1 O2N1219     0.0000 
     39 O39        -8.2340   48.6430    2.2300 O.2       1 O2N1219     0.0000 
     40 O40       -13.8560   47.3660    1.7630 O.co2     1 O2N1219     0.0000 
     41 O41       -14.4350   44.2300   -3.1870 O.3       1 O2N1219     0.0000 
     42 O42       -15.4470   44.9910   -1.1430 O.3       1 O2N1219     0.0000 
     43 O43        -9.5610   42.5890   -1.8390 O.3       1 O2N1219     0.0000 
     44 O44        -3.7480   43.6550    6.0940 O.3       1 O2N1219     0.0000 
     45 H         -11.2538   48.4713    6.7643 H         1 O2N1219     0.0000 
     46 H         -12.9831   49.7274    5.6337 H         1 O2N1219     0.0000 
     47 H          -9.3922   47.5948    5.4961 H         1 O2N1219     0.0000 
     48 H         -12.8381   50.1386    3.2713 H         1 O2N1219     0.0000 
     49 H         -10.4329   45.9515   -1.8889 H         1 O2N1219     0.0000 
     50 H          -6.7204   45.7059   -0.2491 H         1 O2N1219     0.0000 
     51 H          -9.5020   44.0853    2.4329 H         1 O2N1219     0.0000 
     52 H          -4.9487   46.5229    2.8978 H         1 O2N1219     0.0000 
     53 H          -7.8507   43.7751    4.1525 H         1 O2N1219     0.0000 
     54 H         -11.7431   44.7135   -3.5220 H         1 O2N1219     0.0000 
     55 H          -7.6670   44.3541   -2.0346 H         1 O2N1219     0.0000 
     56 H         -10.4031   42.6883    0.6807 H         1 O2N1219     0.0000 
     57 H          -3.4162   45.5971    4.5175 H         1 O2N1219     0.0000 
     58 H          -6.2751   42.7687    5.6813 H         1 O2N1219     0.0000 
     59 H         -10.0791   48.3801   -1.7111 H         1 O2N1219     0.0000 
     60 H         -15.9599   43.2227   -2.1536 H         1 O2N1219     0.0000 
     61 H         -16.4644   44.7178   -2.9600 H         1 O2N1219     0.0000 
     62 H          -9.9299   49.4156    1.1969 H         1 O2N1219     0.0000 
     63 H         -11.3725   50.4315    1.3600 H         1 O2N1219     0.0000 
     64 H         -10.1894   46.9954    0.3323 H         1 O2N1219     0.0000 
     65 H         -11.3886   46.5061    1.5416 H         1 O2N1219     0.0000 
     66 H         -12.5673   48.4092   -1.3344 H         1 O2N1219     0.0000 
     67 H         -12.3976   50.0299   -0.6384 H         1 O2N1219     0.0000 
     68 H          -6.8812   46.6922    1.8602 H         1 O2N1219     0.0000 
     69 H          -9.1018   45.8996    3.7136 H         1 O2N1219     0.0000 
     70 H         -12.8056   48.3873    1.0538 H         1 O2N1219     0.0000 
     71 H          -9.4091   40.6694   -1.1688 H         1 O2N1219     0.0000 
     72 H         -10.8695   41.3052   -0.9465 H         1 O2N1219     0.0000 
     73 H         -10.4147   40.8289   -2.4136 H         1 O2N1219     0.0000 
     74 H          -3.5812   42.6153    7.8229 H         1 O2N1219     0.0000 
     75 H          -4.9093   43.5189    7.7465 H         1 O2N1219     0.0000 
     76 H          -4.8214   42.1466    6.9128 H         1 O2N1219     0.0000 
@<TRIPOS>BOND
     1    2    1 ar   
     2    3    1 ar   
     3   45    1 1    
     4    4    2 ar   
     5   46    2 1    
     6   15    3 ar   
     7   47    3 1    
     8   19    4 ar   
     9   48    4 1    
    10   10    5 ar   
    11   20    5 ar   
    12   49    5 1    
    13   11    6 ar   
    14   17    6 ar   
    15   50    6 1    
    16   12    7 ar   
    17   17    7 ar   
    18   51    7 1    
    19   13    8 ar   
    20   18    8 ar   
    21   52    8 1    
    22   14    9 ar   
    23   18    9 ar   
    24   53    9 1    
    25   21   10 ar   
    26   54   10 1    
    27   23   11 ar   
    28   55   11 1    
    29   23   12 ar   
    30   56   12 1    
    31   24   13 ar   
    32   57   13 1    
    33   24   14 ar   
    34   58   14 1    
    35   19   15 ar   
    36   27   15 1    
    37   20   16 ar   
    38   22   16 ar   
    39   28   16 1    
    40   35   17 1    
    41   35   18 1    
    42   32   19 1    
    43   33   20 1    
    44   22   21 ar   
    45   41   21 1    
    46   42   22 1    
    47   43   23 1    
    48   44   24 1    
    49   26   25 2    
    50   34   26 1    
    51   59   26 1    
    52   36   27 am   
    53   39   27 2    
    54   38   28 ar   
    55   40   28 ar   
    56   41   29 1    
    57   42   29 1    
    58   60   29 1    
    59   61   29 1    
    60   43   30 1    
    61   71   30 1    
    62   72   30 1    
    63   73   30 1    
    64   44   31 1    
    65   74   31 1    
    66   75   31 1    
    67   76   31 1    
    68   37   32 1    
    69   62   32 1    
    70   63   32 1    
    71   37   33 1    
    72   64   33 1    
    73   65   33 1    
    74   37   34 1    
    75   66   34 1    
    76   67   34 1    
    77   36   35 1    
    78   68   35 1    
    79   69   36 1    
    80   70   37 1    
@<TRIPOS>SUBSTRUCTURE
     1 O2N1219     1 GROUP   
@<TRIPOS>SET

