#    Name: 2fvl_NAP_1_INTS_M
#    Modification time : Tue Mar 25 13:10:20 2014

@<TRIPOS>MOLECULE
2fvl_NAP_1_INTS_M
  110     0    12     0     0
SMALL
NO_CHARGES


@<TRIPOS>ATOM
      1 N          42.8100   69.0750   86.5495 N.am      2 SEC2        0.0000 
      2 N          42.8980   69.6500   85.1510 N.am     10 SEL2        0.0000 
      3 N          42.7220   68.5000   87.9480 N.am      6 SEP2        0.0000 
      4 N          41.4210   69.3720   84.7435 N.am      2 SEC2        0.0000 
      5 N          39.9440   69.0940   84.3360 N.am      6 SEP2        0.0000 
      6 N          46.4125   71.7905   85.0655 N.am      2 SEC2        0.0000 
      7 N          45.1170   70.8900   85.0300 N.am     10 SEL2        0.0000 
      8 N          47.7080   72.6910   85.1010 N.am      6 SEP2        0.0000 
      9 CA         42.0330   73.6635   82.7270 C.3       4 GLC5        0.0000 
     10 CA         43.0580   73.2970   84.5160 C.3      12 GLL5        0.0000 
     11 CA         41.0080   74.0300   80.9380 C.3       8 GLP5        0.0000 
     12 CA         44.3240   74.3365   83.2240 C.3       4 GLC5        0.0000 
     13 CA         45.5900   75.3760   81.9320 C.3       8 GLP5        0.0000 
     14 CA         40.9045   73.7260   83.2660 C.3       4 GLC5        0.0000 
     15 CA         41.9160   74.1780   84.8640 C.3      12 GLL5        0.0000 
     16 CA         39.8930   73.2740   81.6680 C.3       8 GLP5        0.0000 
     17 CA         41.5750   74.7695   82.5325 C.3       4 GLC5        0.0000 
     18 CA         42.1420   75.5090   84.1270 C.3      12 GLL5        0.0000 
     19 N          46.2540   75.7450   89.2920 N.am      2 SEC2        0.0000 
     20 N          44.7370   76.0540   88.9780 N.am     10 SEL2        0.0000 
     21 N          47.7710   75.4360   89.6060 N.am      6 SEP2        0.0000 
     22 O          44.4995   77.2555   93.2300 O.2       1 ALC1        0.0000 
     23 O          44.5400   76.8300   91.8680 O.2       9 ALL1        0.0000 
     24 O          44.4590   77.6810   94.5920 O.2       5 ALP1        0.0000 
     25 O          45.7775   76.1500   91.8020 O.2       1 ALC1        0.0000 
     26 O          47.0150   75.4700   91.7360 O.2       5 ALP1        0.0000 
     27 CA         40.3055   75.3835   90.4810 C.3       4 GLC5        0.0000 
     28 CA         41.1770   77.1550   90.5990 C.3      12 GLL5        0.0000 
     29 CA         39.4340   73.6120   90.3630 C.3       8 GLP5        0.0000 
     30 CA         42.0580   75.5065   91.6200 C.3       4 GLC5        0.0000 
     31 CA         42.9390   73.8580   92.6410 C.3       8 GLP5        0.0000 
     32 CA         42.2245   78.5390   90.0380 C.3       4 GLC5        0.0000 
     33 CA         43.2720   79.9230   89.4770 C.3       8 GLP5        0.0000 
     34 CA         40.9910   75.0260   89.6090 C.3       4 GLC5        0.0000 
     35 CA         42.5480   76.4400   88.8550 C.3      12 GLL5        0.0000 
     36 N          44.4115   72.8170   80.2565 N.am      2 SEC2        0.0000 
     37 N          44.8970   71.8390   81.3480 N.am     10 SEL2        0.0000 
     38 N          43.9260   73.7950   79.1650 N.am      6 SEP2        0.0000 
     39 CA         49.1455   68.0075   82.1060 C.3       4 GLC5        0.0000 
     40 CA         47.7280   69.4150   81.5030 C.3      12 GLL5        0.0000 
     41 CA         50.5630   66.6000   82.7090 C.3       8 GLP5        0.0000 
     42 N          48.5440   72.3855   78.9730 N.am      2 SEC2        0.0000 
     43 N          48.0410   71.3580   80.0800 N.am     10 SEL2        0.0000 
     44 N          49.0470   73.4130   77.8660 N.am      6 SEP2        0.0000 
     45 CA         49.3545   69.3325   77.6655 C.3       4 GLC5        0.0000 
     46 CA         48.5520   69.1530   79.3640 C.3      12 GLL5        0.0000 
     47 CA         50.1570   69.5120   75.9670 C.3       8 GLP5        0.0000 
     48 O          50.8385   68.5670   79.4500 O.2       1 ALC1        0.0000 
     49 O          49.8890   69.5310   79.7490 O.2       9 ALL1        0.0000 
     50 O          51.7880   67.6030   79.1510 O.2       5 ALP1        0.0000 
     51 CA         47.5475   66.3045   81.0035 C.3       4 GLC5        0.0000 
     52 CA         48.2070   67.7890   79.9530 C.3      12 GLL5        0.0000 
     53 CA         46.8880   64.8200   82.0540 C.3       8 GLP5        0.0000 
     54 CA         49.3850   67.1945   81.3310 C.3       4 GLC5        0.0000 
     55 CA         49.6085   65.3790   77.7720 C.3       4 GLC5        0.0000 
     56 CA         47.5550   65.8460   78.5510 C.3      12 GLL5        0.0000 
     57 CA         51.6620   64.9120   76.9930 C.3       8 GLP5        0.0000 
     58 CA         46.7960   64.8695   79.8955 C.3       4 GLC5        0.0000 
     59 CA         46.0370   63.8930   81.2400 C.3       8 GLP5        0.0000 
     60 CA         46.5030   63.9695   79.1465 C.3       4 GLC5        0.0000 
     61 CA         46.6190   65.0670   77.8760 C.3      12 GLL5        0.0000 
     62 CA         46.3870   62.8720   80.4170 C.3       8 GLP5        0.0000 
     63 N          46.2510   61.8835   76.3255 N.am      2 SEC2        0.0000 
     64 N          46.2930   63.2450   76.3860 N.am     10 SEL2        0.0000 
     65 N          46.2090   60.5220   76.2650 N.am      6 SEP2        0.0000 
     66 O          48.7655   62.0745   77.4620 O.2       1 ALC1        0.0000 
     67 O          48.2670   63.3920   77.3970 O.2       9 ALL1        0.0000 
     68 O          49.2640   60.7570   77.5270 O.2       5 ALP1        0.0000 
     69 O          49.1300   63.8090   78.6425 O.2       1 ALC1        0.0000 
     70 O          49.9930   64.2260   79.8880 O.2       5 ALP1        0.0000 
     71 CA         46.3410   66.0845   80.6680 C.3       4 GLC5        0.0000 
     72 CA         45.7940   67.3490   79.2820 C.3      12 GLL5        0.0000 
     73 NZ         44.3165   77.9745   82.4055 N.4       3 LYC4        0.0000 
     74 NZ         44.3160   78.6280   83.6350 N.4      11 LYL4        0.0000 
     75 NZ         44.3170   77.3210   81.1760 N.4       7 LYP4        0.0000 
     76 N          44.3165   77.9745   82.4055 N.am      2 SEC2        0.0000 
     77 N          44.3160   78.6280   83.6350 N.am     10 SEL2        0.0000 
     78 N          44.3170   77.3210   81.1760 N.am      6 SEP2        0.0000 
     79 N          45.7530   79.0500   83.6035 N.am      2 SEC2        0.0000 
     80 N          47.1900   79.4720   83.5720 N.am      6 SEP2        0.0000 
     81 NZ         42.3405   81.1395   85.6880 N.4       3 LYC4        0.0000 
     82 NZ         42.5840   80.2130   84.6270 N.4      11 LYL4        0.0000 
     83 NZ         42.2960   81.6150   87.9750 N.4       7 LYP4        0.0000 
     84 N          42.3405   81.1395   85.6880 N.am      2 SEC2        0.0000 
     85 N          42.5840   80.2130   84.6270 N.am     10 SEL2        0.0000 
     86 N          42.0970   82.0660   86.7490 N.am      6 SEP2        0.0000 
     87 NZ         43.6425   79.7845   87.1710 N.4       3 LYC4        0.0000 
     88 NZ         44.2660   79.0490   86.1690 N.4      11 LYL4        0.0000 
     89 N          45.4365   79.1135   86.4335 N.am      2 SEC2        0.0000 
     90 N          44.2660   79.0490   86.1690 N.am     10 SEL2        0.0000 
     91 N          46.6070   79.1780   86.6980 N.am      6 SEP2        0.0000 
     92 N          43.6425   79.7845   87.1710 N.am      2 SEC2        0.0000 
     93 N          43.0190   80.5200   88.1730 N.am      6 SEP2        0.0000 
     94 CA         44.0243   75.6623   83.2955 C.3       4 GLC5        0.0000 
     95 CA         42.7750   76.3880   85.1910 C.3      12 GLL5        0.0000 
     96 CA         43.6303   74.4740   89.0478 C.3       4 GLC5        0.0000 
     97 CA         44.1580   72.5080   88.8200 C.3       8 GLP5        0.0000 
     98 CA         43.2525   75.2430   91.5025 C.3       4 GLC5        0.0000 
     99 CA         43.6570   76.4400   89.6960 C.3      12 GLL5        0.0000 
    100 CA         43.1645   78.2285   89.5433 C.3       4 GLC5        0.0000 
    101 CA         43.4750   76.8160   91.0320 C.3      12 GLL5        0.0000 
    102 CA         47.6380   70.9002   78.1923 C.3       4 GLC5        0.0000 
    103 CA         47.5760   70.0220   80.1050 C.3      12 GLL5        0.0000 
    104 CA         47.2120   72.2130   76.6500 C.3       8 GLP5        0.0000 
    105 CA         47.1934   71.6369   81.9634 C.3       4 GLC5        0.0000 
    106 CA         47.0210   73.4940   82.8780 C.3       8 GLP5        0.0000 
    107 CA         49.3620   70.6674   81.0975 C.3       4 GLC5        0.0000 
    108 CA         50.6220   71.8990   82.1110 C.3       8 GLP5        0.0000 
    109 CA         45.5495   64.9390   79.7542 C.3       4 GLC5        0.0000 
    110 CA         44.8570   66.5490   78.6240 C.3      12 GLL5        0.0000 
@<TRIPOS>BOND
@<TRIPOS>SUBSTRUCTURE
     1 ALC1       22 GROUP        1 X    ALC  0     ROOT ALC X 1
     2 SEC2        1 GROUP        1 X    SEC  0     **** SEC X 2
     3 LYC4       73 GROUP        1 X    LYC  0     **** LYC X 4
     4 GLC5        9 GROUP        1 X    GLC  0     **** GLC X 6
     5 ALP1       24 GROUP        1 Y    ALP  0     ROOT ALP Y 8
     6 SEP2        3 GROUP        1 Y    SEP  0     **** SEP Y 9
     7 LYP4       75 GROUP        1 Y    LYP  0     **** LYP Y 11
     8 GLP5       11 GROUP        1 Y    GLP  0     **** GLP Y 13
     9 ALL1       23 GROUP        1 Z    ALL  0     ROOT ALL Z 15
    10 SEL2        2 GROUP        1 Z    SEL  0     **** SEL Z 16
    11 LYL4       74 GROUP        1 Z    LYL  0     **** LYL Z 18
    12 GLL5       10 GROUP        1 Z    GLL  0     **** GLL Z 20
@<TRIPOS>SET

