#    Name: 2fvl_NAP_1_ligand
#    Modification time : Tue Mar 25 13:10:20 2014

@<TRIPOS>MOLECULE
2fvl_NAP_1_ligand
   73    77     1     0     0
SMALL
NO_CHARGES


@<TRIPOS>ATOM
      1 PA         43.7130   70.7690   84.6260 P.3       1 NAP1001     0.0000 
      2 O1A        42.8980   69.6500   85.1510 O.co2     1 NAP1001     0.0000 
      3 O2A        45.1170   70.8900   85.0300 O.co2     1 NAP1001     0.0000 
      4 O5B        42.8720   72.0580   85.0770 O.3       1 NAP1001     0.0000 
      5 C5B        43.0580   73.2970   84.5160 C.3       1 NAP1001     0.0000 
      6 C4B        41.9160   74.1780   84.8640 C.3       1 NAP1001     0.0000 
      7 O4B        42.0280   74.4300   86.2840 O.3       1 NAP1001     0.0000 
      8 C3B        42.1420   75.5090   84.1270 C.3       1 NAP1001     0.0000 
      9 O3B        40.8810   76.0550   83.7000 O.3       1 NAP1001     0.0000 
     10 C2B        42.7750   76.3880   85.1910 C.3       1 NAP1001     0.0000 
     11 O2B        42.3700   77.7330   85.0020 O.3       1 NAP1001     0.0000 
     12 C1B        42.1350   75.8820   86.4640 C.3       1 NAP1001     0.0000 
     13 N9A        42.9930   76.0480   87.6660 N.pl3     1 NAP1001     0.0000 
     14 C8A        44.3180   75.8160   87.7380 C.2       1 NAP1001     0.0000 
     15 N7A        44.7370   76.0540   88.9780 N.2       1 NAP1001     0.0000 
     16 C5A        43.6570   76.4400   89.6960 C.ar      1 NAP1001     0.0000 
     17 C6A        43.4750   76.8160   91.0320 C.ar      1 NAP1001     0.0000 
     18 N6A        44.5400   76.8300   91.8680 N.pl3     1 NAP1001     0.0000 
     19 N1A        42.2270   77.1760   91.4450 N.ar      1 NAP1001     0.0000 
     20 C2A        41.1770   77.1550   90.5990 C.ar      1 NAP1001     0.0000 
     21 N3A        41.3200   76.8030   89.3220 N.ar      1 NAP1001     0.0000 
     22 C4A        42.5480   76.4400   88.8550 C.ar      1 NAP1001     0.0000 
     23 O3         43.4300   70.7840   83.0470 O.3       1 NAP1001     0.0000 
     24 PN         44.2270   70.5760   81.7120 P.3       1 NAP1001     0.0000 
     25 O1N        44.8970   71.8390   81.3480 O.co2     1 NAP1001     0.0000 
     26 O2N        43.1640   70.0430   80.8370 O.co2     1 NAP1001     0.0000 
     27 O5D        45.3110   69.4180   81.8630 O.3       1 NAP1001     0.0000 
     28 C5D        46.5830   69.6600   82.4820 C.3       1 NAP1001     0.0000 
     29 C4D        47.7280   69.4150   81.5030 C.3       1 NAP1001     0.0000 
     30 O4D        47.6310   68.0350   81.2460 O.3       1 NAP1001     0.0000 
     31 C3D        47.5760   70.0220   80.1050 C.3       1 NAP1001     0.0000 
     32 O3D        48.0410   71.3580   80.0800 O.3       1 NAP1001     0.0000 
     33 C2D        48.5520   69.1530   79.3640 C.3       1 NAP1001     0.0000 
     34 O2D        49.8890   69.5310   79.7490 O.3       1 NAP1001     0.0000 
     35 C1D        48.2070   67.7890   79.9530 C.3       1 NAP1001     0.0000 
     36 N1N        47.1540   66.9970   79.2580 N.pl3     1 NAP1001     0.0000 
     37 C2N        47.5550   65.8460   78.5510 C.ar      1 NAP1001     0.0000 
     38 C3N        46.6190   65.0670   77.8760 C.ar      1 NAP1001     0.0000 
     39 C7N        47.0530   63.8250   77.1400 C.2       1 NAP1001     0.0000 
     40 O7N        46.2930   63.2450   76.3860 O.2       1 NAP1001     0.0000 
     41 N7N        48.2670   63.3920   77.3970 N.am      1 NAP1001     0.0000 
     42 C4N        45.2670   65.4210   77.9130 C.ar      1 NAP1001     0.0000 
     43 C5N        44.8570   66.5490   78.6240 C.ar      1 NAP1001     0.0000 
     44 C6N        45.7940   67.3490   79.2820 C.ar      1 NAP1001     0.0000 
     45 P2B        43.4480   78.9190   84.9550 P.3       1 NAP1001     0.0000 
     46 O1X        44.3160   78.6280   83.6350 O.co2     1 NAP1001     0.0000 
     47 O2X        42.5840   80.2130   84.6270 O.co2     1 NAP1001     0.0000 
     48 O3X        44.2660   79.0490   86.1690 O.co2     1 NAP1001     0.0000 
     49 H          43.1312   73.2541   83.4121 H         1 NAP1001     0.0000 
     50 H          43.9859   73.7861   84.8703 H         1 NAP1001     0.0000 
     51 H          41.0151   73.7628   84.5900 H         1 NAP1001     0.0000 
     52 H          42.8281   75.3500   83.3527 H         1 NAP1001     0.0000 
     53 H          43.7941   76.2305   85.2228 H         1 NAP1001     0.0000 
     54 H          41.1872   76.2984   86.6005 H         1 NAP1001     0.0000 
     55 H          44.8736   75.5206   86.9935 H         1 NAP1001     0.0000 
     56 H          45.4123   76.5402   91.4742 H         1 NAP1001     0.0000 
     57 H          44.3599   77.1289   92.8051 H         1 NAP1001     0.0000 
     58 H          40.2244   77.4244   90.9632 H         1 NAP1001     0.0000 
     59 H          46.7384   69.0027   83.3519 H         1 NAP1001     0.0000 
     60 H          46.6644   70.6979   82.8412 H         1 NAP1001     0.0000 
     61 H          48.6460   69.6611   81.9213 H         1 NAP1001     0.0000 
     62 H          46.6248   69.8533   79.7597 H         1 NAP1001     0.0000 
     63 H          48.3557   69.1648   78.3609 H         1 NAP1001     0.0000 
     64 H          49.0935   67.2055   80.0698 H         1 NAP1001     0.0000 
     65 H          48.5504   65.5850   78.5379 H         1 NAP1001     0.0000 
     66 H          48.8047   63.9429   78.0352 H         1 NAP1001     0.0000 
     67 H          48.5421   62.5512   76.9309 H         1 NAP1001     0.0000 
     68 H          44.5747   64.8481   77.4149 H         1 NAP1001     0.0000 
     69 H          43.8580   66.7939   78.6644 H         1 NAP1001     0.0000 
     70 H          45.4942   68.1908   79.7817 H         1 NAP1001     0.0000 
     71 H          41.0047   77.0468   83.7311 H         1 NAP1001     0.0000 
     72 H          47.2814   71.9030   80.4350 H         1 NAP1001     0.0000 
     73 H          50.4658   68.7641   79.4675 H         1 NAP1001     0.0000 
@<TRIPOS>BOND
     1    2    1 ar   
     2    3    1 ar   
     3    4    1 1    
     4   23    1 1    
     5    5    4 1    
     6    6    5 1    
     7   49    5 1    
     8   50    5 1    
     9    7    6 1    
    10    8    6 1    
    11   51    6 1    
    12   12    7 1    
    13    9    8 1    
    14   10    8 1    
    15   52    8 1    
    16   71    9 1    
    17   11   10 1    
    18   12   10 1    
    19   53   10 1    
    20   45   11 1    
    21   13   12 1    
    22   54   12 1    
    23   14   13 1    
    24   22   13 1    
    25   15   14 2    
    26   55   14 1    
    27   16   15 1    
    28   17   16 ar   
    29   22   16 ar   
    30   18   17 1    
    31   19   17 ar   
    32   56   18 1    
    33   57   18 1    
    34   20   19 ar   
    35   21   20 ar   
    36   58   20 1    
    37   22   21 ar   
    38   24   23 1    
    39   25   24 ar   
    40   26   24 ar   
    41   27   24 1    
    42   28   27 1    
    43   29   28 1    
    44   59   28 1    
    45   60   28 1    
    46   30   29 1    
    47   31   29 1    
    48   61   29 1    
    49   35   30 1    
    50   32   31 1    
    51   33   31 1    
    52   62   31 1    
    53   72   32 1    
    54   34   33 1    
    55   35   33 1    
    56   63   33 1    
    57   73   34 1    
    58   36   35 1    
    59   64   35 1    
    60   37   36 ar   
    61   44   36 ar   
    62   38   37 ar   
    63   65   37 1    
    64   39   38 1    
    65   42   38 ar   
    66   40   39 2    
    67   41   39 am   
    68   66   41 1    
    69   67   41 1    
    70   43   42 ar   
    71   68   42 1    
    72   44   43 ar   
    73   69   43 1    
    74   70   44 1    
    75   46   45 ar   
    76   47   45 ar   
    77   48   45 ar   
@<TRIPOS>SUBSTRUCTURE
     1 NAP1001     1 GROUP   
@<TRIPOS>SET

