#    Name: 1qop_IPL_1_INTS_M
#    Modification time : Mon Mar 24 23:44:08 2014

@<TRIPOS>MOLECULE
1qop_IPL_1_INTS_M
   61     0     9     0     0
SMALL
NO_CHARGES


@<TRIPOS>ATOM
      1 O          52.7580   27.7920   14.3905 O.2       1 ALC1        0.0000 
      2 O          51.6390   27.4140   15.1860 O.2       7 ALL1        0.0000 
      3 O          53.8770   28.1700   13.5950 O.2       4 ALP1        0.0000 
      4 CA         51.1530   29.6010   14.0790 C.3       3 GLC5        0.0000 
      5 CA         50.4570   28.1260   15.1500 C.3       9 GLL5        0.0000 
      6 CA         51.8490   31.0760   13.0080 C.3       6 GLP5        0.0000 
      7 CA         49.6955   21.6855   15.0245 C.3       3 GLC5        0.0000 
      8 CA         50.1670   23.5940   14.8300 C.3       9 GLL5        0.0000 
      9 CA         49.2240   19.7770   15.2190 C.3       6 GLP5        0.0000 
     10 CA         52.3460   25.4840   16.8715 C.3       3 GLC5        0.0000 
     11 CA         52.1640   24.9480   15.0190 C.3       9 GLL5        0.0000 
     12 CA         52.5280   26.0200   18.7240 C.3       6 GLP5        0.0000 
     13 CA         51.1755   26.1205   16.8665 C.3       3 GLC5        0.0000 
     14 CA         51.3330   26.0740   15.0640 C.3       9 GLL5        0.0000 
     15 CA         51.0180   26.1670   18.6690 C.3       6 GLP5        0.0000 
     16 CA         50.1415   25.3925   16.7400 C.3       3 GLC5        0.0000 
     17 CA         49.9310   25.9700   14.9800 C.3       9 GLL5        0.0000 
     18 CA         50.3520   24.8150   18.5000 C.3       6 GLP5        0.0000 
     19 CA         47.6885   30.5525   12.6400 C.3       3 GLC5        0.0000 
     20 CA         47.9870   28.5510   12.5220 C.3       9 GLL5        0.0000 
     21 CA         47.3900   32.5540   12.7580 C.3       6 GLP5        0.0000 
     22 CA         46.7995   25.4210   13.5110 C.3       3 GLC5        0.0000 
     23 CA         47.5760   27.3970   13.4000 C.3       9 GLL5        0.0000 
     24 CA         46.0230   23.4450   13.6220 C.3       6 GLP5        0.0000 
     25 CA         48.4485   29.0490   16.2685 C.3       3 GLC5        0.0000 
     26 CA         47.9260   27.6310   14.8860 C.3       9 GLL5        0.0000 
     27 CA         48.9710   30.4670   17.6510 C.3       6 GLP5        0.0000 
     28 CA         46.7300   25.7640   14.8585 C.3       3 GLC5        0.0000 
     29 CA         45.5340   23.8970   14.8310 C.3       6 GLP5        0.0000 
     30 N          49.1065   31.5645   10.6870 N.am      2 SEC2        0.0000 
     31 N          49.3710   30.2350   10.5280 N.am      8 SEL2        0.0000 
     32 N          48.8420   32.8940   10.8460 N.am      5 SEP2        0.0000 
     33 N          50.2570   31.0150    9.9500 N.am      2 SEC2        0.0000 
     34 N          51.1430   31.7950    9.3720 N.am      5 SEP2        0.0000 
     35 N          46.5765   31.0740   11.0640 N.am      2 SEC2        0.0000 
     36 N          46.9370   30.1540   10.0360 N.am      8 SEL2        0.0000 
     37 N          46.2160   31.9940   12.0920 N.am      5 SEP2        0.0000 
     38 N          47.8895   31.5240   10.4410 N.am      2 SEC2        0.0000 
     39 N          49.7865   28.6890    8.1960 N.am      2 SEC2        0.0000 
     40 N          48.4740   28.6180    8.7790 N.am      8 SEL2        0.0000 
     41 N          51.0990   28.7600    7.6130 N.am      5 SEP2        0.0000 
     42 N          47.5230   28.1920    7.9055 N.am      2 SEC2        0.0000 
     43 N          46.5720   27.7660    7.0320 N.am      5 SEP2        0.0000 
     44 CA         50.4695   26.9385   16.8800 C.3       3 GLC5        0.0000 
     45 CA         49.3850   27.2940   15.0320 C.3       9 GLL5        0.0000 
     46 CA         50.6405   27.3855   13.4270 C.3       3 GLC5        0.0000 
     47 CA         51.3600   27.0610   11.7630 C.3       6 GLP5        0.0000 
     48 CA         50.4973   26.1987   13.3440 C.3       3 GLC5        0.0000 
     49 CA         49.3380   24.7030   14.8700 C.3       9 GLL5        0.0000 
     50 CA         53.3940   23.5083   14.2755 C.3       3 GLC5        0.0000 
     51 CA         54.9290   22.6830   13.5860 C.3       6 GLP5        0.0000 
     52 CA         50.5026   24.3744   16.6902 C.3       3 GLC5        0.0000 
     53 CA         51.5540   23.7190   14.9110 C.3       9 GLL5        0.0000 
     54 CA         52.7665   23.0862   16.2765 C.3       3 GLC5        0.0000 
     55 CA         53.6740   21.8390   17.5880 C.3       6 GLP5        0.0000 
     56 CA         51.5542   26.2860   13.4022 C.3       3 GLC5        0.0000 
     57 CA         49.5708   27.5175   12.3620 C.3       3 GLC5        0.0000 
     58 CA         48.1912   26.3215   11.7090 C.3       3 GLC5        0.0000 
     59 CA         48.6010   24.6690   10.4570 C.3       6 GLP5        0.0000 
     60 CA         45.9904   28.2452   14.3693 C.3       3 GLC5        0.0000 
     61 CA         44.1270   28.6880   14.8150 C.3       6 GLP5        0.0000 
@<TRIPOS>BOND
@<TRIPOS>SUBSTRUCTURE
     1 ALC1        1 GROUP        1 X    ALC  0     ROOT ALC X 1
     2 SEC2       30 GROUP        1 X    SEC  0     **** SEC X 2
     3 GLC5        4 GROUP        1 X    GLC  0     **** GLC X 6
     4 ALP1        3 GROUP        1 Y    ALP  0     ROOT ALP Y 8
     5 SEP2       32 GROUP        1 Y    SEP  0     **** SEP Y 9
     6 GLP5        6 GROUP        1 Y    GLP  0     **** GLP Y 13
     7 ALL1        2 GROUP        1 Z    ALL  0     ROOT ALL Z 15
     8 SEL2       31 GROUP        1 Z    SEL  0     **** SEL Z 16
     9 GLL5        5 GROUP        1 Z    GLL  0     **** GLL Z 20
@<TRIPOS>SET

