#    Name: 1qop_IPL_1_ligand
#    Modification time : Mon Mar 24 23:44:08 2014

@<TRIPOS>MOLECULE
1qop_IPL_1_ligand
   29    30     1     0     0
SMALL
NO_CHARGES


@<TRIPOS>ATOM
      1 N1         51.6390   27.4140   15.1860 N.pl3     1 IPL300      0.0000 
      2 C2         50.4570   28.1260   15.1500 C.2       1 IPL300      0.0000 
      3 C3         49.3850   27.2940   15.0320 C.2       1 IPL300      0.0000 
      4 C4         49.3380   24.7030   14.8700 C.ar      1 IPL300      0.0000 
      5 C5         50.1670   23.5940   14.8300 C.ar      1 IPL300      0.0000 
      6 C6         51.5540   23.7190   14.9110 C.ar      1 IPL300      0.0000 
      7 C7         52.1640   24.9480   15.0190 C.ar      1 IPL300      0.0000 
      8 C8         51.3330   26.0740   15.0640 C.ar      1 IPL300      0.0000 
      9 C9         49.9310   25.9700   14.9800 C.ar      1 IPL300      0.0000 
     10 C1'        47.9870   28.5510   12.5220 C.3       1 IPL300      0.0000 
     11 C2'        47.5760   27.3970   13.4000 C.3       1 IPL300      0.0000 
     12 C3'        47.9260   27.6310   14.8860 C.3       1 IPL300      0.0000 
     13 P          48.2400   29.3940   10.0390 P.3       1 IPL300      0.0000 
     14 O1P        49.3710   30.2350   10.5280 O.co2     1 IPL300      0.0000 
     15 O2P        46.9370   30.1540   10.0360 O.co2     1 IPL300      0.0000 
     16 O3P        48.4740   28.6180    8.7790 O.co2     1 IPL300      0.0000 
     17 O4P        48.0080   28.1990   11.1260 O.3       1 IPL300      0.0000 
     18 H          52.5107   27.7824   15.2786 H         1 IPL300      0.0000 
     19 H          50.4065   29.0984   15.2029 H         1 IPL300      0.0000 
     20 H          48.3290   24.6106   14.8217 H         1 IPL300      0.0000 
     21 H          49.7509   22.6469   14.7378 H         1 IPL300      0.0000 
     22 H          52.1360   22.8552   14.8885 H         1 IPL300      0.0000 
     23 H          53.1681   25.0456   15.0647 H         1 IPL300      0.0000 
     24 H          48.9843   28.9002   12.8554 H         1 IPL300      0.0000 
     25 H          47.2881   29.3908   12.7061 H         1 IPL300      0.0000 
     26 H          48.0765   26.4798   13.0676 H         1 IPL300      0.0000 
     27 H          46.4942   27.2362   13.3212 H         1 IPL300      0.0000 
     28 H          47.7532   28.6603   15.1246 H         1 IPL300      0.0000 
     29 H          47.3284   26.9791   15.4894 H         1 IPL300      0.0000 
@<TRIPOS>BOND
     1    2    1 1    
     2    8    1 1    
     3   18    1 1    
     4    3    2 2    
     5   19    2 1    
     6    9    3 1    
     7   12    3 1    
     8    5    4 ar   
     9    9    4 ar   
    10   20    4 1    
    11    6    5 ar   
    12   21    5 1    
    13    7    6 ar   
    14   22    6 1    
    15    8    7 ar   
    16   23    7 1    
    17    9    8 ar   
    18   11   10 1    
    19   17   10 1    
    20   24   10 1    
    21   25   10 1    
    22   12   11 1    
    23   26   11 1    
    24   27   11 1    
    25   28   12 1    
    26   29   12 1    
    27   14   13 ar   
    28   15   13 ar   
    29   16   13 ar   
    30   17   13 1    
@<TRIPOS>SUBSTRUCTURE
     1 IPL300      1 GROUP   
@<TRIPOS>SET

