#    Name: 2fum_MIX_2_INTS_M
#    Modification time : Tue Mar 25 13:07:43 2014

@<TRIPOS>MOLECULE
2fum_MIX_2_INTS_M
   54     0     9     0     0
SMALL
NO_CHARGES


@<TRIPOS>ATOM
      1 CA         51.4795  -11.6220  -55.2140 C.3       3 GLC5        0.0000 
      2 CA         50.0190  -11.0600  -56.7430 C.3       9 GLL5        0.0000 
      3 CA         52.9400  -12.1840  -53.6850 C.3       6 GLP5        0.0000 
      4 CA         50.2445   -6.4475  -54.2970 C.3       3 GLC5        0.0000 
      5 CA         50.5780   -7.6520  -55.4830 C.3       9 GLL5        0.0000 
      6 CA         49.9110   -5.2430  -53.1110 C.3       6 GLP5        0.0000 
      7 CA         53.1940   -5.5755  -53.1455 C.3       3 GLC5        0.0000 
      8 CA         54.9480   -6.7720  -52.8450 C.3       9 GLL5        0.0000 
      9 CA         51.4400   -4.3790  -53.4460 C.3       6 GLP5        0.0000 
     10 CA         53.0920   -5.9550  -50.4320 C.3       3 GLC5        0.0000 
     11 CA         54.7420   -6.8940  -51.4830 C.3       9 GLL5        0.0000 
     12 CA         51.4420   -5.0160  -49.3810 C.3       6 GLP5        0.0000 
     13 N          53.1050   -7.2500  -49.7265 N.am      1 SEC2        0.0000 
     14 N          53.5860   -7.4590  -51.0340 N.am      7 SEL2        0.0000 
     15 N          52.6240   -7.0410  -48.4190 N.am      4 SEP2        0.0000 
     16 CA         55.0535   -7.1590  -48.8125 C.3       3 GLC5        0.0000 
     17 CA         55.7140   -6.4220  -50.6160 C.3       9 GLL5        0.0000 
     18 CA         54.3930   -7.8960  -47.0090 C.3       6 GLP5        0.0000 
     19 CA         54.1185   -5.2760  -49.6950 C.3       3 GLC5        0.0000 
     20 CA         52.5230   -4.1300  -48.7740 C.3       6 GLP5        0.0000 
     21 CA         57.2150   -4.3375  -49.8320 C.3       3 GLC5        0.0000 
     22 CA         56.8850   -5.8470  -51.1050 C.3       9 GLL5        0.0000 
     23 CA         57.5450   -2.8280  -48.5590 C.3       6 GLP5        0.0000 
     24 CA         56.9090   -3.8135  -53.2870 C.3       3 GLC5        0.0000 
     25 CA         57.0980   -5.7330  -52.4820 C.3       9 GLL5        0.0000 
     26 CA         56.7200   -1.8940  -54.0920 C.3       6 GLP5        0.0000 
     27 CA         55.6080   -4.1890  -54.0755 C.3       3 GLC5        0.0000 
     28 CA         56.1170   -6.2070  -53.3770 C.3       9 GLL5        0.0000 
     29 CA         55.0990   -2.1710  -54.7740 C.3       6 GLP5        0.0000 
     30 OD1        58.3190   -2.4525  -59.6315 O.co2     2 ASC3        0.0000 
     31 OD1        56.7040   -3.2510  -60.2820 O.co2     8 ASL3        0.0000 
     32 OD1        59.9340   -1.6540  -58.9810 O.co2     5 ASP3        0.0000 
     33 CA         48.3465   -6.8855  -55.5955 C.3       3 GLC5        0.0000 
     34 CA         46.6150   -5.5950  -55.4490 C.3       6 GLP5        0.0000 
     35 CA         54.2810   -9.1992  -55.1232 C.3       3 GLC5        0.0000 
     36 CA         53.0860   -7.6320  -55.9050 C.3       9 GLL5        0.0000 
     37 CA         54.9610  -11.0100  -54.7570 C.3       6 GLP5        0.0000 
     38 CA         52.5205   -5.8837  -54.4677 C.3       3 GLC5        0.0000 
     39 CA         54.1160   -7.1450  -55.0740 C.3       9 GLL5        0.0000 
     40 CA         54.6120   -8.7020  -52.2860 C.3       3 GLC5        0.0000 
     41 CA         54.3790  -10.5710  -52.4080 C.3       6 GLP5        0.0000 
     42 CA         56.2115   -8.0210  -50.4597 C.3       3 GLC5        0.0000 
     43 CA         57.1950   -9.3840  -49.8700 C.3       6 GLP5        0.0000 
     44 CA         57.0932   -7.5870  -50.8317 C.3       3 GLC5        0.0000 
     45 CA         58.8933   -5.4690  -50.9968 C.3       3 GLC5        0.0000 
     46 CA         60.7950   -5.1480  -50.2000 C.3       6 GLP5        0.0000 
     47 CA         57.6577   -7.6355  -53.3407 C.3       3 GLC5        0.0000 
     48 CA         58.7080   -9.3010  -53.7520 C.3       6 GLP5        0.0000 
     49 CA         55.3685   -8.3110  -58.1399 C.3       3 GLC5        0.0000 
     50 CA         55.4140   -6.5030  -57.0800 C.3       9 GLL5        0.0000 
     51 CA         56.1140   -9.7340  -58.9470 C.3       6 GLP5        0.0000 
     52 CA         57.0995   -0.8192  -62.6850 C.3       3 GLC5        0.0000 
     53 CA         57.0300   -3.0210  -61.7070 C.3       9 GLL5        0.0000 
     54 CA         56.6810    0.7890  -63.6090 C.3       6 GLP5        0.0000 
@<TRIPOS>BOND
@<TRIPOS>SUBSTRUCTURE
     1 SEC2       13 GROUP        1 X    SEC  0     ROOT SEC X 2
     2 ASC3       30 GROUP        1 X    ASC  0     **** ASC X 3
     3 GLC5        1 GROUP        1 X    GLC  0     **** GLC X 6
     4 SEP2       15 GROUP        1 Y    SEP  0     ROOT SEP Y 9
     5 ASP3       32 GROUP        1 Y    ASP  0     **** ASP Y 10
     6 GLP5        3 GROUP        1 Y    GLP  0     **** GLP Y 13
     7 SEL2       14 GROUP        1 Z    SEL  0     ROOT SEL Z 16
     8 ASL3       31 GROUP        1 Z    ASL  0     **** ASL Z 17
     9 GLL5        2 GROUP        1 Z    GLL  0     **** GLL Z 20
@<TRIPOS>SET

