#    Name: 2fum_MIX_2_ligand
#    Modification time : Tue Mar 25 13:07:43 2014

@<TRIPOS>MOLECULE
2fum_MIX_2_ligand
   58    60     1     0     0
SMALL
NO_CHARGES


@<TRIPOS>ATOM
      1 OAC        47.7910  -10.6080  -57.6050 O.3       1 MIX1539     0.0000 
      2 CAK        48.8510  -11.5850  -57.5980 C.3       1 MIX1539     0.0000 
      3 CAM        50.0190  -11.0600  -56.7430 C.3       1 MIX1539     0.0000 
      4 NAS        50.2200   -9.6100  -56.9760 N.4       1 MIX1539     0.0000 
      5 CAO        49.5780   -8.7000  -56.0010 C.3       1 MIX1539     0.0000 
      6 CAQ        50.5780   -7.6520  -55.4830 C.3       1 MIX1539     0.0000 
      7 NAU        51.9510   -8.2050  -55.3880 N.pl3     1 MIX1539     0.0000 
      8 CAY        53.0860   -7.6320  -55.9050 C.ar      1 MIX1539     0.0000 
      9 CAI        53.2650   -7.5470  -57.2930 C.ar      1 MIX1539     0.0000 
     10 CAJ        54.3990   -6.9990  -57.8780 C.ar      1 MIX1539     0.0000 
     11 CBE        54.1160   -7.1450  -55.0740 C.ar      1 MIX1539     0.0000 
     12 CBA        53.9480   -7.2390  -53.6720 C.2       1 MIX1539     0.0000 
     13 OAA        52.9450   -7.7320  -53.1170 O.2       1 MIX1539     0.0000 
     14 CBC        54.9480   -6.7720  -52.8450 C.ar      1 MIX1539     0.0000 
     15 CAW        54.7420   -6.8940  -51.4830 C.ar      1 MIX1539     0.0000 
     16 OAE        53.5860   -7.4590  -51.0340 O.3       1 MIX1539     0.0000 
     17 CAG        55.7140   -6.4220  -50.6160 C.ar      1 MIX1539     0.0000 
     18 CAH        56.8850   -5.8470  -51.1050 C.ar      1 MIX1539     0.0000 
     19 CAX        57.0980   -5.7330  -52.4820 C.ar      1 MIX1539     0.0000 
     20 OAF        58.2600   -5.1510  -52.9360 O.3       1 MIX1539     0.0000 
     21 CBD        56.1170   -6.2070  -53.3770 C.ar      1 MIX1539     0.0000 
     22 CBB        56.2910   -6.1130  -54.7660 C.2       1 MIX1539     0.0000 
     23 OAB        57.3350   -5.5980  -55.1780 O.2       1 MIX1539     0.0000 
     24 CBF        55.2920   -6.5820  -55.6490 C.ar      1 MIX1539     0.0000 
     25 CAZ        55.4140   -6.5030  -57.0800 C.ar      1 MIX1539     0.0000 
     26 NAV        56.4810   -6.0250  -57.7770 N.pl3     1 MIX1539     0.0000 
     27 CAR        56.6460   -4.6730  -58.3480 C.3       1 MIX1539     0.0000 
     28 CAP        56.5300   -4.6660  -59.8800 C.3       1 MIX1539     0.0000 
     29 NAT        56.7040   -3.2510  -60.2820 N.4       1 MIX1539     0.0000 
     30 CAN        57.0300   -3.0210  -61.7070 C.3       1 MIX1539     0.0000 
     31 CAL        58.0060   -1.8340  -61.8150 C.3       1 MIX1539     0.0000 
     32 OAD        58.8830   -1.9910  -62.9400 O.3       1 MIX1539     0.0000 
     33 H          49.2328  -11.7732  -58.6027 H         1 MIX1539     0.0000 
     34 H          48.5235  -12.5325  -57.1673 H         1 MIX1539     0.0000 
     35 H          50.9169  -11.6195  -57.0097 H         1 MIX1539     0.0000 
     36 H          49.7884  -11.2516  -55.6940 H         1 MIX1539     0.0000 
     37 H          49.1973   -9.2626  -55.1436 H         1 MIX1539     0.0000 
     38 H          48.7384   -8.1726  -56.4631 H         1 MIX1539     0.0000 
     39 H          50.2355   -7.3083  -54.4999 H         1 MIX1539     0.0000 
     40 H          50.5581   -6.7934  -56.1644 H         1 MIX1539     0.0000 
     41 H          52.0170   -9.1252  -54.8668 H         1 MIX1539     0.0000 
     42 H          52.5045   -7.9157  -57.9131 H         1 MIX1539     0.0000 
     43 H          54.4816   -6.9632  -58.9028 H         1 MIX1539     0.0000 
     44 H          55.5722   -6.4956  -49.5947 H         1 MIX1539     0.0000 
     45 H          57.6005   -5.5026  -50.4488 H         1 MIX1539     0.0000 
     46 H          57.3197   -6.6713  -57.9544 H         1 MIX1539     0.0000 
     47 H          57.6295   -4.2594  -58.0783 H         1 MIX1539     0.0000 
     48 H          55.8832   -3.9899  -57.9449 H         1 MIX1539     0.0000 
     49 H          55.5592   -5.0265  -60.1538 H         1 MIX1539     0.0000 
     50 H          57.3079   -5.2795  -60.2873 H         1 MIX1539     0.0000 
     51 H          56.1354   -2.7805  -62.2732 H         1 MIX1539     0.0000 
     52 H          57.5062   -3.8955  -62.1395 H         1 MIX1539     0.0000 
     53 H          58.5643   -1.7795  -60.8698 H         1 MIX1539     0.0000 
     54 H          57.4034   -0.9183  -61.8949 H         1 MIX1539     0.0000 
     55 H          48.3684  -10.0306  -57.0276 H         1 MIX1539     0.0000 
     56 H          53.5956   -8.3908  -51.3969 H         1 MIX1539     0.0000 
     57 H          58.2039   -5.2049  -53.9330 H         1 MIX1539     0.0000 
     58 H          59.4604   -1.4136  -62.3626 H         1 MIX1539     0.0000 
@<TRIPOS>BOND
     1    2    1 1    
     2   55    1 1    
     3    3    2 1    
     4   33    2 1    
     5   34    2 1    
     6    4    3 1    
     7   35    3 1    
     8   36    3 1    
     9    5    4 1    
    10    6    5 1    
    11   37    5 1    
    12   38    5 1    
    13    7    6 1    
    14   39    6 1    
    15   40    6 1    
    16    8    7 1    
    17   41    7 1    
    18    9    8 ar   
    19   11    8 ar   
    20   10    9 ar   
    21   42    9 1    
    22   25   10 ar   
    23   43   10 1    
    24   12   11 1    
    25   24   11 ar   
    26   13   12 2    
    27   14   12 1    
    28   15   14 ar   
    29   21   14 ar   
    30   16   15 1    
    31   17   15 ar   
    32   56   16 1    
    33   18   17 ar   
    34   44   17 1    
    35   19   18 ar   
    36   45   18 1    
    37   20   19 1    
    38   21   19 ar   
    39   57   20 1    
    40   22   21 1    
    41   23   22 2    
    42   24   22 1    
    43   25   24 ar   
    44   26   25 1    
    45   27   26 1    
    46   46   26 1    
    47   28   27 1    
    48   47   27 1    
    49   48   27 1    
    50   29   28 1    
    51   49   28 1    
    52   50   28 1    
    53   30   29 1    
    54   31   30 1    
    55   51   30 1    
    56   52   30 1    
    57   32   31 1    
    58   53   31 1    
    59   54   31 1    
    60   58   32 1    
@<TRIPOS>SUBSTRUCTURE
     1 MIX1539     1 GROUP   
@<TRIPOS>SET

