#    Name: 3G2Z_1_CAVITY_N1_6.mol2
#    Modification time : Mon Mar 10 18:12:06 2014

@<TRIPOS>MOLECULE
3G2Z_1_CAVITY_N1_6.mol2
   61     0     6     0     0
SMALL
NO_CHARGES


@<TRIPOS>ATOM
      1 CA         -8.9410   51.7871   12.6686 C.3       5 GLY6        0.0000 
      2 DU         -8.2769   52.0898   11.3581 H         6 CUB7        0.0000 
      3 O          -9.1019   53.3357   11.2278 O.2       2 ALA2        0.0000 
      4 DU         -9.2628   54.8844    9.7870 H         6 CUB7        0.0000 
      5 NZ         -9.4237   56.4330    8.3463 N.2       3 LYS4        0.0000 
      6 CZ         -5.5646   50.3764   12.3369 C.ar      4 PHE5        0.0000 
      7 CZ         -6.3896   51.6223   12.2066 C.ar      4 PHE5        0.0000 
      8 OG         -5.7255   51.9250   10.8961 O.2       1 SER1        0.0000 
      9 CA         -7.8788   52.5655   13.3867 C.3       5 GLY6        0.0000 
     10 DU         -7.2147   52.8682   12.0763 H         6 CUB7        0.0000 
     11 OG         -6.5505   53.1709   10.7658 O.2       1 SER1        0.0000 
     12 O          -8.7038   53.8115   13.2564 O.2       2 ALA2        0.0000 
     13 O          -8.0397   54.1142   11.9459 O.2       2 ALA2        0.0000 
     14 OG         -7.3755   54.4169   10.6355 O.2       1 SER1        0.0000 
     15 OG         -6.7114   54.7196    9.3250 O.2       1 SER1        0.0000 
     16 O          -8.8647   55.3601   11.8156 O.2       2 ALA2        0.0000 
     17 N          -8.2006   55.6628   10.5052 N.2       2 ALA2        0.0000 
     18 CA         -7.5364   55.9655    9.1947 C.3       5 GLY6        0.0000 
     19 O          -9.6897   56.6061   11.6853 O.2       2 ALA2        0.0000 
     20 CA         -9.0256   56.9088   10.3749 C.3       5 GLY6        0.0000 
     21 CA         -8.3615   57.2115    9.0644 C.3       5 GLY6        0.0000 
     22 CA        -10.5147   57.8520   11.5550 C.3       5 GLY6        0.0000 
     23 CA         -1.3632   47.7197   12.1355 C.3       5 GLY6        0.0000 
     24 OG         -2.8524   48.6629   13.3156 O.2       1 SER1        0.0000 
     25 OG         -2.1883   48.9656   12.0052 O.2       1 SER1        0.0000 
     26 CZ         -3.6774   49.9089   13.1853 C.ar      4 PHE5        0.0000 
     27 DU         -3.0133   50.2116   11.8749 H         6 CUB7        0.0000 
     28 CZ         -4.5024   51.1548   13.0550 C.ar      4 PHE5        0.0000 
     29 DU         -3.8383   51.4575   11.7445 H         6 CUB7        0.0000 
     30 OG         -3.1742   51.7602   10.4341 O.2       1 SER1        0.0000 
     31 CZ         -5.9916   52.0981   14.2352 C.ar      4 PHE5        0.0000 
     32 CZ         -5.3274   52.4008   12.9247 C.ar      4 PHE5        0.0000 
     33 OG         -4.6633   52.7035   11.6142 O.2       1 SER1        0.0000 
     34 O          -6.8166   53.3440   14.1048 O.2       2 ALA2        0.0000 
     35 DU         -6.1524   53.6467   12.7944 H         6 CUB7        0.0000 
     36 OG         -5.4883   53.9494   11.4839 O.2       1 SER1        0.0000 
     37 O          -7.6416   54.5899   13.9745 O.2       2 ALA2        0.0000 
     38 N          -6.9775   54.8926   12.6641 N.2       2 ALA2        0.0000 
     39 N          -6.3133   55.1953   11.3536 N.2       2 ALA2        0.0000 
     40 O          -8.4666   55.8359   13.8442 O.2       2 ALA2        0.0000 
     41 O          -7.8025   56.1386   12.5338 O.2       2 ALA2        0.0000 
     42 N          -7.1384   56.4413   11.2233 N.2       2 ALA2        0.0000 
     43 CA         -8.6275   57.3845   12.4034 C.3       5 GLY6        0.0000 
     44 CA         -7.9634   57.6872   11.0930 C.3       5 GLY6        0.0000 
     45 CA         -1.1261   49.7441   12.7233 C.3       5 GLY6        0.0000 
     46 CA         -2.6152   50.6873   13.9034 C.3       5 GLY6        0.0000 
     47 CA         -1.9511   50.9900   12.5930 C.3       5 GLY6        0.0000 
     48 OG         -3.4402   51.9333   13.7731 O.2       1 SER1        0.0000 
     49 OG         -2.7761   52.2360   12.4627 O.2       1 SER1        0.0000 
     50 OG         -2.1120   52.5387   11.1522 O.2       1 SER1        0.0000 
     51 N          -4.9293   52.8765   14.9533 N.2       2 ALA2        0.0000 
     52 OG         -4.2652   53.1792   13.6428 O.2       1 SER1        0.0000 
     53 OG         -3.6011   53.4819   12.3324 O.2       1 SER1        0.0000 
     54 N          -5.7544   54.1225   14.8230 N.2       2 ALA2        0.0000 
     55 OG         -5.0902   54.4252   13.5125 O.2       1 SER1        0.0000 
     56 OG         -4.4261   54.7279   12.2020 O.2       1 SER1        0.0000 
     57 O          -6.5794   55.3684   14.6927 O.2       2 ALA2        0.0000 
     58 N          -5.9153   55.6711   13.3822 N.2       2 ALA2        0.0000 
     59 N          -6.7403   56.9171   13.2519 N.2       2 ALA2        0.0000 
     60 OG         -0.8889   51.7685   13.3111 O.2       1 SER1        0.0000 
     61 O          -2.5389   54.2604   13.0505 O.2       2 ALA2        0.0000 
@<TRIPOS>BOND
@<TRIPOS>SUBSTRUCTURE
     1 SER1        8 GROUP   
     2 ALA2        3 GROUP   
     3 LYS4        5 GROUP   
     4 PHE5        6 GROUP   
     5 GLY6        1 GROUP   
     6 CUB7        2 GROUP   
@<TRIPOS>SET

