#    Name: 3g2z_GZ2_1_INTS_M
#    Modification time : Tue Mar 25 07:01:38 2014

@<TRIPOS>MOLECULE
3g2z_GZ2_1_INTS_M
   20     0     9     0     0
SMALL
NO_CHARGES


@<TRIPOS>ATOM
      1 CA         -7.2890   51.1230   13.7090 C.3       3 GLC5        0.0000 
      2 CA         -6.7740   52.5630   12.7320 C.3       9 GLL5        0.0000 
      3 CA         -7.8040   49.6830   14.6860 C.3       6 GLP5        0.0000 
      4 CA         -8.4395   51.5580   13.4420 C.3       3 GLC5        0.0000 
      5 CA         -7.9760   52.4870   11.7940 C.3       9 GLL5        0.0000 
      6 CA         -8.9030   50.6290   15.0900 C.3       6 GLP5        0.0000 
      7 CA         -7.8850   50.1525   12.1445 C.3       3 GLC5        0.0000 
      8 CA         -7.7570   51.5620   10.6070 C.3       9 GLL5        0.0000 
      9 CA         -8.0130   48.7430   13.6820 C.3       6 GLP5        0.0000 
     10 N          -3.2755   54.2840   10.3085 N.am      2 SEC2        0.0000 
     11 N          -2.6620   53.5610   11.2920 N.am      8 SEL2        0.0000 
     12 N          -3.8890   55.0070    9.3250 N.am      5 SEP2        0.0000 
     13 N           0.1720   53.1630   12.3435 N.am      2 SEC2        0.0000 
     14 N          -1.2670   53.5860   11.4610 N.am      8 SEL2        0.0000 
     15 N           1.6110   52.7400   13.2260 N.am      5 SEP2        0.0000 
     16 N           0.3130   53.0375   13.0215 N.am      2 SEC2        0.0000 
     17 N          -0.9850   53.3350   12.8170 N.am      8 SEL2        0.0000 
     18 O          -2.1515   52.9975   14.7855 O.2       1 ALC1        0.0000 
     19 O          -2.1990   53.1450   13.4760 O.2       7 ALL1        0.0000 
     20 O          -2.1040   52.8500   16.0950 O.2       4 ALP1        0.0000 
@<TRIPOS>BOND
@<TRIPOS>SUBSTRUCTURE
     1 ALC1       18 GROUP        1 X    ALC  0     ROOT ALC X 1
     2 SEC2       10 GROUP        1 X    SEC  0     **** SEC X 2
     3 GLC5        1 GROUP        1 X    GLC  0     **** GLC X 6
     4 ALP1       20 GROUP        1 Y    ALP  0     ROOT ALP Y 8
     5 SEP2       12 GROUP        1 Y    SEP  0     **** SEP Y 9
     6 GLP5        3 GROUP        1 Y    GLP  0     **** GLP Y 13
     7 ALL1       19 GROUP        1 Z    ALL  0     ROOT ALL Z 15
     8 SEL2       11 GROUP        1 Z    SEL  0     **** SEL Z 16
     9 GLL5        2 GROUP        1 Z    GLL  0     **** GLL Z 20
@<TRIPOS>SET

