#    Name: 3g2z_GZ2_1_ligand
#    Modification time : Tue Mar 25 07:01:38 2014

@<TRIPOS>MOLECULE
3g2z_GZ2_1_ligand
   22    23     1     0     0
SMALL
NO_CHARGES


@<TRIPOS>ATOM
      1 O13        -6.2580   51.5760    8.7620 O.2       1 GZ21        0.0000 
      2 C11        -6.4170   51.8200    9.9490 C.2       1 GZ21        0.0000 
      3 C12        -5.2890   52.3690   10.7330 C.2       1 GZ21        0.0000 
      4 C7         -5.4420   52.7010   12.0280 C.2       1 GZ21        0.0000 
      5 C8         -6.7740   52.5630   12.7320 C.3       1 GZ21        0.0000 
      6 C9         -7.9760   52.4870   11.7940 C.3       1 GZ21        0.0000 
      7 C10        -7.7570   51.5620   10.6070 C.3       1 GZ21        0.0000 
      8 N6         -4.4610   53.1560   12.8200 N.pl3     1 GZ21        0.0000 
      9 C5         -3.1360   53.2840   12.5140 C.2       1 GZ21        0.0000 
     10 N4         -2.6620   53.5610   11.2920 N.2       1 GZ21        0.0000 
     11 N3         -1.2670   53.5860   11.4610 N.2       1 GZ21        0.0000 
     12 N2         -0.9850   53.3350   12.8170 N.2       1 GZ21        0.0000 
     13 N1         -2.1990   53.1450   13.4760 N.pl3     1 GZ21        0.0000 
     14 H          -4.3980   52.4766   10.2281 H         1 GZ21        0.0000 
     15 H          -6.9136   53.4195   13.4173 H         1 GZ21        0.0000 
     16 H          -6.7596   51.6550   13.3628 H         1 GZ21        0.0000 
     17 H          -8.2054   53.4985   11.4257 H         1 GZ21        0.0000 
     18 H          -8.8518   52.1414   12.3640 H         1 GZ21        0.0000 
     19 H          -7.8006   50.5245   10.9475 H         1 GZ21        0.0000 
     20 H          -8.5558   51.7184    9.8778 H         1 GZ21        0.0000 
     21 H          -4.7447   53.4627   13.8302 H         1 GZ21        0.0000 
     22 H          -2.3103   52.9629   14.3844 H         1 GZ21        0.0000 
@<TRIPOS>BOND
     1    2    1 2    
     2    3    2 1    
     3    7    2 1    
     4    4    3 2    
     5   14    3 1    
     6    5    4 1    
     7    8    4 1    
     8    6    5 1    
     9   15    5 1    
    10   16    5 1    
    11    7    6 1    
    12   17    6 1    
    13   18    6 1    
    14   19    7 1    
    15   20    7 1    
    16    9    8 1    
    17   21    8 1    
    18   10    9 2    
    19   13    9 1    
    20   11   10 1    
    21   12   11 2    
    22   13   12 1    
    23   22   13 1    
@<TRIPOS>SUBSTRUCTURE
     1 GZ21        1 GROUP   
@<TRIPOS>SET

