#    Name: 4iv4_1GS_2_INTS_M
#    Modification time : Tue Mar 25 04:39:33 2014

@<TRIPOS>MOLECULE
4iv4_1GS_2_INTS_M
   71     0     9     0     0
SMALL
NO_CHARGES


@<TRIPOS>ATOM
      1 CA         13.3335   16.8130   36.1405 C.3       3 GLC5        0.0000 
      2 CA         13.0700   16.3760   34.0210 C.3       9 GLL5        0.0000 
      3 CA         13.5970   17.2500   38.2600 C.3       6 GLP5        0.0000 
      4 CA         12.2050   15.1435   32.5105 C.3       3 GLC5        0.0000 
      5 CA         11.3400   13.9110   31.0000 C.3       6 GLP5        0.0000 
      6 CA         12.9140   14.9270   35.2410 C.3       3 GLC5        0.0000 
      7 CA         12.7580   13.4780   36.4610 C.3       6 GLP5        0.0000 
      8 CA         16.1170   19.3955   35.0115 C.3       3 GLC5        0.0000 
      9 CA         14.2610   18.3790   34.8080 C.3       9 GLL5        0.0000 
     10 CA         17.9730   20.4120   35.2150 C.3       6 GLP5        0.0000 
     11 CA         14.1345   19.9720   36.0010 C.3       3 GLC5        0.0000 
     12 CA         14.0080   21.5650   37.1940 C.3       6 GLP5        0.0000 
     13 CA         15.0915   17.6355   36.0920 C.3       3 GLC5        0.0000 
     14 CA         15.9220   16.8920   37.3760 C.3       6 GLP5        0.0000 
     15 CA         11.4665   18.2875   31.3105 C.3       3 GLC5        0.0000 
     16 CA         12.4290   18.5830   33.1120 C.3       9 GLL5        0.0000 
     17 CA         10.5040   17.9920   29.5090 C.3       6 GLP5        0.0000 
     18 CA         17.3385   20.6090   33.3210 C.3       3 GLC5        0.0000 
     19 CA         16.7040   20.8060   31.4270 C.3       9 GLL5        0.0000 
     20 CA         17.3885   22.0635   32.0475 C.3       3 GLC5        0.0000 
     21 CA         18.0730   23.3210   32.6680 C.3       6 GLP5        0.0000 
     22 CA         15.5875   18.2290   29.6375 C.3       3 GLC5        0.0000 
     23 CA         15.8160   20.4600   29.4990 C.3       9 GLL5        0.0000 
     24 CA         15.3590   15.9980   29.7760 C.3       6 GLP5        0.0000 
     25 CA         10.6895   24.4180   31.7255 C.3       3 GLC5        0.0000 
     26 CA         12.4320   23.2690   31.5790 C.3       9 GLL5        0.0000 
     27 CA          8.9470   25.5670   31.8720 C.3       6 GLP5        0.0000 
     28 CA         11.6500   22.9735   33.5165 C.3       3 GLC5        0.0000 
     29 CA         12.0290   21.0170   32.5130 C.3       9 GLL5        0.0000 
     30 CA         11.2710   24.9300   34.5200 C.3       6 GLP5        0.0000 
     31 CA          9.4350   21.6080   30.0815 C.3       3 GLC5        0.0000 
     32 CA          9.7510   21.5600   32.2160 C.3       9 GLL5        0.0000 
     33 CA          9.1190   21.6560   27.9470 C.3       6 GLP5        0.0000 
     34 CA          7.6180   22.0435   30.7135 C.3       3 GLC5        0.0000 
     35 CA          8.4660   21.7330   32.7710 C.3       9 GLL5        0.0000 
     36 CA          6.7700   22.3540   28.6560 C.3       6 GLP5        0.0000 
     37 N           6.1555   23.0000   35.0530 N.am      2 SEC2        0.0000 
     38 N           7.0060   21.6880   34.6550 N.am      8 SEL2        0.0000 
     39 N           5.3050   24.3120   35.4510 N.am      5 SEP2        0.0000 
     40 O           6.6970   20.7825   35.6640 O.2       1 ALC1        0.0000 
     41 O           7.0060   21.6880   34.6550 O.2       7 ALL1        0.0000 
     42 O           6.3880   19.8770   36.6730 O.2       4 ALP1        0.0000 
     43 CA          8.8065   21.9285   37.0225 C.3       3 GLC5        0.0000 
     44 CA          9.2970   21.1290   34.9990 C.3       9 GLL5        0.0000 
     45 CA          8.3160   22.7280   39.0460 C.3       6 GLP5        0.0000 
     46 CA         12.2930   21.2630   35.8220 C.3       3 GLC5        0.0000 
     47 CA         10.5780   20.9610   34.4500 C.3       9 GLL5        0.0000 
     48 O          11.6715   19.9160   36.5565 O.2       1 ALC1        0.0000 
     49 O          11.6170   20.5820   35.2550 O.2       7 ALL1        0.0000 
     50 O          11.7260   19.2500   37.8580 O.2       4 ALP1        0.0000 
     51 CA         11.3815   17.5368   34.7390 C.3       3 GLC5        0.0000 
     52 CA          9.8790   17.2540   36.0210 C.3       6 GLP5        0.0000 
     53 CA         15.8217   20.1437   28.2357 C.3       3 GLC5        0.0000 
     54 CA         15.7140   19.3480   26.5120 C.3       6 GLP5        0.0000 
     55 CA         16.6839   23.2395   30.9201 C.3       3 GLC5        0.0000 
     56 CA         16.8870   22.3070   29.8960 C.3       9 GLL5        0.0000 
     57 CA         17.2070   24.4560   31.5870 C.3       6 GLP5        0.0000 
     58 CA         16.5237   21.8577   28.2117 C.3       3 GLC5        0.0000 
     59 CA         16.9070   22.5540   26.5950 C.3       6 GLP5        0.0000 
     60 CA         18.0571   20.6496   30.1294 C.3       3 GLC5        0.0000 
     61 CA         19.9140   20.4020   30.1130 C.3       6 GLP5        0.0000 
     62 CA         15.5905   24.0940   31.1303 C.3       3 GLC5        0.0000 
     63 CA         14.5770   23.4240   30.4790 C.3       9 GLL5        0.0000 
     64 CA         14.2845   24.0765   28.7978 C.3       3 GLC5        0.0000 
     65 CA         14.5950   24.4210   26.9220 C.3       6 GLP5        0.0000 
     66 CA         12.3425   24.8338   30.0151 C.3       3 GLC5        0.0000 
     67 CA         11.4820   26.1670   28.9040 C.3       6 GLP5        0.0000 
     68 CA          9.0277   23.6067   32.1827 C.3       3 GLC5        0.0000 
     69 CA          7.6046   20.2569   32.4019 C.3       3 GLC5        0.0000 
     70 CA          6.5310   18.9310   31.4860 C.3       6 GLP5        0.0000 
     71 CA          9.9083   19.1495   35.3728 C.3       3 GLC5        0.0000 
@<TRIPOS>BOND
@<TRIPOS>SUBSTRUCTURE
     1 ALC1       40 GROUP        1 X    ALC  0     ROOT ALC X 1
     2 SEC2       37 GROUP        1 X    SEC  0     **** SEC X 2
     3 GLC5        1 GROUP        1 X    GLC  0     **** GLC X 6
     4 ALP1       42 GROUP        1 Y    ALP  0     ROOT ALP Y 8
     5 SEP2       39 GROUP        1 Y    SEP  0     **** SEP Y 9
     6 GLP5        3 GROUP        1 Y    GLP  0     **** GLP Y 13
     7 ALL1       41 GROUP        1 Z    ALL  0     ROOT ALL Z 15
     8 SEL2       38 GROUP        1 Z    SEL  0     **** SEL Z 16
     9 GLL5        2 GROUP        1 Z    GLL  0     **** GLL Z 20
@<TRIPOS>SET

