#    Name: 4iv4_1GS_2_ligand
#    Modification time : Tue Mar 25 04:39:33 2014

@<TRIPOS>MOLECULE
4iv4_1GS_2_ligand
   42    44     1     0     0
SMALL
NO_CHARGES


@<TRIPOS>ATOM
      1 C01        13.0700   16.3760   34.0210 C.3       1 1GS601      0.0000 
      2 C02        13.6080   17.7360   33.5830 C.3       1 1GS601      0.0000 
      3 C03        14.2610   18.3790   34.8080 C.3       1 1GS601      0.0000 
      4 C04        12.4290   18.5830   33.1120 C.3       1 1GS601      0.0000 
      5 N01        12.7790   19.9070   32.5050 N.pl3     1 1GS601      0.0000 
      6 N02        13.7610   20.1340   31.9570 N.2       1 1GS601      0.0000 
      7 C05        13.8580   21.3870   31.5000 C.ar      1 1GS601      0.0000 
      8 C06        14.8260   22.0590   30.8010 C.ar      1 1GS601      0.0000 
      9 C07        16.0430   21.4190   30.4200 C.3       1 1GS601      0.0000 
     10 F01        16.8870   22.3070   29.8960 F         1 1GS601      0.0000 
     11 F02        16.7040   20.8060   31.4270 F         1 1GS601      0.0000 
     12 F03        15.8160   20.4600   29.4990 F         1 1GS601      0.0000 
     13 C08        14.5770   23.4240   30.4790 C.ar      1 1GS601      0.0000 
     14 C09        13.3710   24.0400   30.8680 C.ar      1 1GS601      0.0000 
     15 C10        12.4320   23.2690   31.5790 C.ar      1 1GS601      0.0000 
     16 C11        12.7000   21.9790   31.8710 C.ar      1 1GS601      0.0000 
     17 C12        12.0290   21.0170   32.5130 C.2       1 1GS601      0.0000 
     18 C13        10.8080   21.1710   33.0590 C.ar      1 1GS601      0.0000 
     19 C14         9.7510   21.5600   32.2160 C.ar      1 1GS601      0.0000 
     20 C15         8.4660   21.7330   32.7710 C.ar      1 1GS601      0.0000 
     21 C16         8.2480   21.5190   34.1420 C.ar      1 1GS601      0.0000 
     22 O01         7.0060   21.6880   34.6550 O.3       1 1GS601      0.0000 
     23 C17         9.2970   21.1290   34.9990 C.ar      1 1GS601      0.0000 
     24 C18        10.5780   20.9610   34.4500 C.ar      1 1GS601      0.0000 
     25 O02        11.6170   20.5820   35.2550 O.3       1 1GS601      0.0000 
     26 H          14.3089   17.6135   32.8165 H         1 1GS601      0.0000 
     27 H          11.7466   18.7429   33.9779 H         1 1GS601      0.0000 
     28 H          11.8408   17.9849   32.3789 H         1 1GS601      0.0000 
     29 H          15.2821   23.9543   29.9621 H         1 1GS601      0.0000 
     30 H          13.1862   25.0060   30.6432 H         1 1GS601      0.0000 
     31 H          11.5455   23.7146   31.8656 H         1 1GS601      0.0000 
     32 H           9.9087   21.7138   31.2260 H         1 1GS601      0.0000 
     33 H           7.6869   22.0171   32.1672 H         1 1GS601      0.0000 
     34 H           9.1283   20.9748   35.9839 H         1 1GS601      0.0000 
     35 H          13.7984   15.7795   34.3581 H         1 1GS601      0.0000 
     36 H          12.3976   16.4618   34.7562 H         1 1GS601      0.0000 
     37 H          12.6214   15.8941   33.2683 H         1 1GS601      0.0000 
     38 H          15.0100   17.8211   35.1654 H         1 1GS601      0.0000 
     39 H          14.6412   19.2794   34.5965 H         1 1GS601      0.0000 
     40 H          13.6073   18.5048   35.5542 H         1 1GS601      0.0000 
     41 H           6.9188   20.9832   35.3590 H         1 1GS601      0.0000 
     42 H          11.2440   20.5961   36.1827 H         1 1GS601      0.0000 
@<TRIPOS>BOND
     1    2    1 1    
     2   35    1 1    
     3   36    1 1    
     4   37    1 1    
     5    3    2 1    
     6    4    2 1    
     7   26    2 1    
     8   38    3 1    
     9   39    3 1    
    10   40    3 1    
    11    5    4 1    
    12   27    4 1    
    13   28    4 1    
    14    6    5 1    
    15   17    5 1    
    16    7    6 2    
    17    8    7 ar   
    18   16    7 ar   
    19    9    8 1    
    20   13    8 ar   
    21   10    9 1    
    22   11    9 1    
    23   12    9 1    
    24   14   13 ar   
    25   29   13 1    
    26   15   14 ar   
    27   30   14 1    
    28   16   15 ar   
    29   31   15 1    
    30   17   16 2    
    31   18   17 1    
    32   19   18 ar   
    33   24   18 ar   
    34   20   19 ar   
    35   32   19 1    
    36   21   20 ar   
    37   33   20 1    
    38   22   21 1    
    39   23   21 ar   
    40   41   22 1    
    41   24   23 ar   
    42   34   23 1    
    43   25   24 1    
    44   42   25 1    
@<TRIPOS>SUBSTRUCTURE
     1 1GS601      1 GROUP   
@<TRIPOS>SET

