#    Name: 1d4y_TPV_1_INTS_M
#    Modification time : Mon Mar 24 21:31:40 2014

@<TRIPOS>MOLECULE
1d4y_TPV_1_INTS_M
   80     0     9     0     0
SMALL
NO_CHARGES


@<TRIPOS>ATOM
      1 N          10.3190   20.8980    5.9275 N.am      2 SEC2        0.0000 
      2 N          11.4380   21.7180    6.4840 N.am      8 SEL2        0.0000 
      3 N           9.2000   20.0780    5.3710 N.am      5 SEP2        0.0000 
      4 N          11.5875   20.9085    7.7225 N.am      2 SEC2        0.0000 
      5 N          11.7370   20.0990    8.9610 N.am      5 SEP2        0.0000 
      6 O          14.7785   25.8050    5.2340 O.2       1 ALC1        0.0000 
      7 O          13.9930   25.1280    4.4030 O.2       7 ALL1        0.0000 
      8 O          15.5640   26.4820    6.0650 O.2       4 ALP1        0.0000 
      9 CA         17.2585   21.7745    3.7695 C.3       3 GLC5        0.0000 
     10 CA         15.6730   21.2240    4.7930 C.3       9 GLL5        0.0000 
     11 CA         18.8440   22.3250    2.7460 C.3       6 GLP5        0.0000 
     12 CA         15.1600   18.4870    1.0835 C.3       3 GLC5        0.0000 
     13 CA         15.3040   19.6110    2.9400 C.3       9 GLL5        0.0000 
     14 CA         15.0160   17.3630   -0.7730 C.3       6 GLP5        0.0000 
     15 CA         15.0750   17.4355    2.6050 C.3       3 GLC5        0.0000 
     16 CA         14.8460   15.2600    2.2700 C.3       6 GLP5        0.0000 
     17 CA         14.8420   19.2120    8.6500 C.3       3 GLC5        0.0000 
     18 CA         16.6590   20.0120    9.5070 C.3       9 GLL5        0.0000 
     19 CA         13.0250   18.4120    7.7930 C.3       6 GLP5        0.0000 
     20 CA          9.6925   23.7825    0.6190 C.3       3 GLC5        0.0000 
     21 CA         10.5880   23.7940    2.5510 C.3       9 GLL5        0.0000 
     22 CA          8.7970   23.7710   -1.3130 C.3       6 GLP5        0.0000 
     23 CA         11.5455   23.7290    1.0095 C.3       3 GLC5        0.0000 
     24 CA         12.5030   23.6640   -0.5320 C.3       6 GLP5        0.0000 
     25 CA         11.3315   24.7775    9.5840 C.3       3 GLC5        0.0000 
     26 CA         11.3690   26.4890    8.2190 C.3       9 GLL5        0.0000 
     27 CA         11.2940   23.0660   10.9490 C.3       6 GLP5        0.0000 
     28 CA          8.5915   26.7375   10.0380 C.3       3 GLC5        0.0000 
     29 CA          9.9960   26.7460    8.4140 C.3       9 GLL5        0.0000 
     30 CA          7.1870   26.7290   11.6620 C.3       6 GLP5        0.0000 
     31 N           9.0445   29.9825    6.2960 N.am      2 SEC2        0.0000 
     32 N           8.0020   29.0910    7.3030 N.am      8 SEL2        0.0000 
     33 N          10.0870   30.8740    5.2890 N.am      5 SEP2        0.0000 
     34 N           8.7630   30.5305    7.5050 N.am      2 SEC2        0.0000 
     35 N           9.5240   31.9700    7.7070 N.am      5 SEP2        0.0000 
     36 CA          7.5120   29.8400    5.2070 C.3       3 GLC5        0.0000 
     37 CA          7.1250   27.6670    5.2960 C.3       9 GLL5        0.0000 
     38 CA          7.8990   32.0130    5.1180 C.3       6 GLP5        0.0000 
     39 N           9.1790   29.4705    4.9825 N.am      2 SEC2        0.0000 
     40 N           8.2710   28.0670    4.6760 N.am      8 SEL2        0.0000 
     41 CA         10.2245   28.6365    4.3180 C.3       3 GLC5        0.0000 
     42 CA          8.3810   27.8220    3.3630 C.3       9 GLL5        0.0000 
     43 CA         12.0680   29.4510    5.2730 C.3       6 GLP5        0.0000 
     44 CA          7.9490   29.4420   -0.1680 C.3       3 GLC5        0.0000 
     45 CA          8.3860   27.9150    0.6730 C.3       9 GLL5        0.0000 
     46 CA          7.5120   30.9690   -1.0090 C.3       6 GLP5        0.0000 
     47 CA          6.7640   25.6300   -1.1325 C.3       3 GLC5        0.0000 
     48 CA          6.5010   26.5110    0.5690 C.3       9 GLL5        0.0000 
     49 CA          7.0270   24.7490   -2.8340 C.3       6 GLP5        0.0000 
     50 CA         13.9928   20.1015    7.1937 C.3       3 GLC5        0.0000 
     51 CA         14.8980   22.0240    5.8860 C.3       9 GLL5        0.0000 
     52 CA         13.1610   19.7480    3.2550 C.3       3 GLC5        0.0000 
     53 CA         14.9300   20.7870    3.8080 C.3       9 GLL5        0.0000 
     54 CA         11.2050   19.2970    3.1360 C.3       6 GLP5        0.0000 
     55 CA         16.4830   21.2175    2.4715 C.3       3 GLC5        0.0000 
     56 CA         17.8490   22.2360    1.5690 C.3       6 GLP5        0.0000 
     57 CA         15.7167   19.6493   11.3987 C.3       3 GLC5        0.0000 
     58 CA         14.3390   19.6520   12.8740 C.3       6 GLP5        0.0000 
     59 CA         17.2133   21.2593   10.8893 C.3       3 GLC5        0.0000 
     60 CA         17.5300   19.2810   10.3400 C.3       9 GLL5        0.0000 
     61 CA         17.3320   22.8720   11.8550 C.3       6 GLP5        0.0000 
     62 CA         18.2488   21.4868   10.9005 C.3       3 GLC5        0.0000 
     63 CA         18.9090   19.5970   10.3740 C.3       9 GLL5        0.0000 
     64 CA         19.3940   22.9510    8.9097 C.3       3 GLC5        0.0000 
     65 CA         18.5020   21.4760    8.9050 C.3       9 GLL5        0.0000 
     66 CA         19.8260   24.8610    8.6080 C.3       6 GLP5        0.0000 
     67 CA         17.4818   22.1653   10.2179 C.3       3 GLC5        0.0000 
     68 CA         13.1010   25.6345    9.0517 C.3       3 GLC5        0.0000 
     69 CA         14.6420   25.2470   10.3860 C.3       6 GLP5        0.0000 
     70 CA         10.5403   27.3987   10.2262 C.3       3 GLC5        0.0000 
     71 CA         10.3980   28.1800   12.1360 C.3       6 GLP5        0.0000 
     72 CA         11.8100   27.8715    7.3384 C.3       3 GLC5        0.0000 
     73 CA         12.8420   29.3590    6.6110 C.3       6 GLP5        0.0000 
     74 CA          9.0599   23.4886    6.1438 C.3       3 GLC5        0.0000 
     75 CA         10.8290   25.1040    6.3000 C.3       9 GLL5        0.0000 
     76 CA          7.8520   21.8570    6.2590 C.3       6 GLP5        0.0000 
     77 CA          8.4790   24.9840   -0.0562 C.3       3 GLC5        0.0000 
     78 CA          8.5950   25.6360    1.2270 C.3       9 GLL5        0.0000 
     79 CA          9.8749   26.7466    0.2181 C.3       3 GLC5        0.0000 
     80 CA         11.4240   27.0070   -0.6390 C.3       6 GLP5        0.0000 
@<TRIPOS>BOND
@<TRIPOS>SUBSTRUCTURE
     1 ALC1        6 GROUP        1 X    ALC  0     ROOT ALC X 1
     2 SEC2        1 GROUP        1 X    SEC  0     **** SEC X 2
     3 GLC5        9 GROUP        1 X    GLC  0     **** GLC X 6
     4 ALP1        8 GROUP        1 Y    ALP  0     ROOT ALP Y 8
     5 SEP2        3 GROUP        1 Y    SEP  0     **** SEP Y 9
     6 GLP5       11 GROUP        1 Y    GLP  0     **** GLP Y 13
     7 ALL1        7 GROUP        1 Z    ALL  0     ROOT ALL Z 15
     8 SEL2        2 GROUP        1 Z    SEL  0     **** SEL Z 16
     9 GLL5       10 GROUP        1 Z    GLL  0     **** GLL Z 20
@<TRIPOS>SET

