#    Name: 1d4y_TPV_1_ligand
#    Modification time : Mon Mar 24 21:31:40 2014

@<TRIPOS>MOLECULE
1d4y_TPV_1_ligand
   75    78     1     0     0
SMALL
NO_CHARGES


@<TRIPOS>ATOM
      1 O1         13.5490   21.4220    6.0780 O.3       1 TPV501      0.0000 
      2 C2         12.4870   22.2020    6.1190 C.2       1 TPV501      0.0000 
      3 C3         12.5470   23.5480    5.4880 C.2       1 TPV501      0.0000 
      4 C4         13.8030   23.9390    4.9840 C.2       1 TPV501      0.0000 
      5 C5         15.0300   23.2520    5.6000 C.3       1 TPV501      0.0000 
      6 C6         14.8980   22.0240    5.8860 C.3       1 TPV501      0.0000 
      7 O7         11.4380   21.7180    6.4840 O.2       1 TPV501      0.0000 
      8 O8         13.9930   25.1280    4.4030 O.3       1 TPV501      0.0000 
      9 C9         15.6730   21.2240    4.7930 C.3       1 TPV501      0.0000 
     10 C10        14.9300   20.7870    3.8080 C.3       1 TPV501      0.0000 
     11 C11        15.3040   19.6110    2.9400 C.3       1 TPV501      0.0000 
     12 C12        15.0230   21.5580    7.3030 C.3       1 TPV501      0.0000 
     13 C13        16.3690   21.8390    7.8000 C.3       1 TPV501      0.0000 
     14 C14        17.1530   21.0430    8.7130 C.ar      1 TPV501      0.0000 
     15 C15        16.6590   20.0120    9.5070 C.ar      1 TPV501      0.0000 
     16 C16        17.5300   19.2810   10.3400 C.ar      1 TPV501      0.0000 
     17 C17        18.9090   19.5970   10.3740 C.ar      1 TPV501      0.0000 
     18 C18        19.4220   20.6060    9.5180 C.ar      1 TPV501      0.0000 
     19 C19        18.5020   21.4760    8.9050 C.ar      1 TPV501      0.0000 
     20 C20        11.2280   24.2070    5.1080 C.3       1 TPV501      0.0000 
     21 C21        10.5910   24.7000    3.7600 C.3       1 TPV501      0.0000 
     22 C22        10.5880   23.7940    2.5510 C.3       1 TPV501      0.0000 
     23 C23        10.8290   25.1040    6.3000 C.ar      1 TPV501      0.0000 
     24 C24        11.7510   25.5550    7.2160 C.ar      1 TPV501      0.0000 
     25 C25        11.3690   26.4890    8.2190 C.ar      1 TPV501      0.0000 
     26 C26         9.9960   26.7460    8.4140 C.ar      1 TPV501      0.0000 
     27 C27         9.0780   26.3430    7.4490 C.ar      1 TPV501      0.0000 
     28 N28         7.3690   26.7380    7.8330 N.pl3     1 TPV501      0.0000 
     29 C29         9.5070   25.5850    6.3530 C.ar      1 TPV501      0.0000 
     30 S30         6.9640   28.0460    6.9890 S.o2      1 TPV501      0.0000 
     31 O31         8.0020   29.0910    7.3030 O.2       1 TPV501      0.0000 
     32 O32         5.6120   28.3680    7.3120 O.2       1 TPV501      0.0000 
     33 C33         7.1250   27.6670    5.2960 C.ar      1 TPV501      0.0000 
     34 N34         8.2710   28.0670    4.6760 N.ar      1 TPV501      0.0000 
     35 C35         8.3810   27.8220    3.3630 C.ar      1 TPV501      0.0000 
     36 C36         7.4360   27.0880    2.6350 C.ar      1 TPV501      0.0000 
     37 C37         6.2390   26.7490    3.2440 C.ar      1 TPV501      0.0000 
     38 C38         6.0790   27.0450    4.6200 C.ar      1 TPV501      0.0000 
     39 C39         7.7270   26.7580    1.1740 C.3       1 TPV501      0.0000 
     40 F40         8.3860   27.9150    0.6730 F         1 TPV501      0.0000 
     41 F41         6.5010   26.5110    0.5690 F         1 TPV501      0.0000 
     42 F42         8.5950   25.6360    1.2270 F         1 TPV501      0.0000 
     43 H          15.3100   23.9213    6.4861 H         1 TPV501      0.0000 
     44 H          15.8780   23.4829    4.8658 H         1 TPV501      0.0000 
     45 H          16.2128   20.4128    5.3663 H         1 TPV501      0.0000 
     46 H          16.5089   21.9160    4.4760 H         1 TPV501      0.0000 
     47 H          14.6736   21.6410    3.0437 H         1 TPV501      0.0000 
     48 H          13.8350   20.5501    4.1602 H         1 TPV501      0.0000 
     49 H          14.8159   20.4833    7.3456 H         1 TPV501      0.0000 
     50 H          14.2739   22.0712    7.9156 H         1 TPV501      0.0000 
     51 H          16.3514   22.9439    8.2206 H         1 TPV501      0.0000 
     52 H          17.0423   22.0549    6.8523 H         1 TPV501      0.0000 
     53 H          15.6604   19.7776    9.4915 H         1 TPV501      0.0000 
     54 H          17.1681   18.5225   10.9202 H         1 TPV501      0.0000 
     55 H          19.5322   19.1034   11.0095 H         1 TPV501      0.0000 
     56 H          20.4107   20.6915    9.3587 H         1 TPV501      0.0000 
     57 H          18.7820   22.4010    8.5994 H         1 TPV501      0.0000 
     58 H          10.4214   23.2655    5.4058 H         1 TPV501      0.0000 
     59 H          11.0989   25.6709    3.4936 H         1 TPV501      0.0000 
     60 H           9.5321   25.0104    3.9924 H         1 TPV501      0.0000 
     61 H          12.7252   25.2284    7.1932 H         1 TPV501      0.0000 
     62 H          12.0701   26.9549    8.7763 H         1 TPV501      0.0000 
     63 H           9.6859   27.2256    9.2613 H         1 TPV501      0.0000 
     64 H           6.9461   26.2666    8.3662 H         1 TPV501      0.0000 
     65 H           8.8598   25.3779    5.5857 H         1 TPV501      0.0000 
     66 H           9.2154   28.1912    2.8262 H         1 TPV501      0.0000 
     67 H           5.4890   26.3009    2.7317 H         1 TPV501      0.0000 
     68 H           5.2147   26.8039    5.0935 H         1 TPV501      0.0000 
     69 H          16.1672   19.7641    2.4589 H         1 TPV501      0.0000 
     70 H          15.4115   18.7734    3.4756 H         1 TPV501      0.0000 
     71 H          14.6095   19.4270    2.2445 H         1 TPV501      0.0000 
     72 H          11.5150   23.5411    2.2741 H         1 TPV501      0.0000 
     73 H          10.0919   22.9435    2.7255 H         1 TPV501      0.0000 
     74 H          10.1549   24.2293    1.7618 H         1 TPV501      0.0000 
     75 H          14.2028   25.7529    5.1550 H         1 TPV501      0.0000 
@<TRIPOS>BOND
     1    2    1 1    
     2    6    1 1    
     3    3    2 1    
     4    7    2 2    
     5    4    3 2    
     6   20    3 1    
     7    5    4 1    
     8    8    4 1    
     9    6    5 1    
    10   43    5 1    
    11   44    5 1    
    12    9    6 1    
    13   12    6 1    
    14   75    8 1    
    15   10    9 1    
    16   45    9 1    
    17   46    9 1    
    18   11   10 1    
    19   47   10 1    
    20   48   10 1    
    21   69   11 1    
    22   70   11 1    
    23   71   11 1    
    24   13   12 1    
    25   49   12 1    
    26   50   12 1    
    27   14   13 1    
    28   51   13 1    
    29   52   13 1    
    30   15   14 ar   
    31   19   14 ar   
    32   16   15 ar   
    33   53   15 1    
    34   17   16 ar   
    35   54   16 1    
    36   18   17 ar   
    37   55   17 1    
    38   19   18 ar   
    39   56   18 1    
    40   57   19 1    
    41   21   20 1    
    42   23   20 1    
    43   58   20 1    
    44   22   21 1    
    45   59   21 1    
    46   60   21 1    
    47   72   22 1    
    48   73   22 1    
    49   74   22 1    
    50   24   23 ar   
    51   29   23 ar   
    52   25   24 ar   
    53   61   24 1    
    54   26   25 ar   
    55   62   25 1    
    56   27   26 ar   
    57   63   26 1    
    58   28   27 1    
    59   29   27 ar   
    60   30   28 1    
    61   64   28 1    
    62   65   29 1    
    63   31   30 2    
    64   32   30 2    
    65   33   30 1    
    66   34   33 ar   
    67   38   33 ar   
    68   35   34 ar   
    69   36   35 ar   
    70   66   35 1    
    71   37   36 ar   
    72   39   36 1    
    73   38   37 ar   
    74   67   37 1    
    75   68   38 1    
    76   40   39 1    
    77   41   39 1    
    78   42   39 1    
@<TRIPOS>SUBSTRUCTURE
     1 TPV501      1 GROUP   
@<TRIPOS>SET

