#    Name: 3ngl_NAP_1_INTS_M
#    Modification time : Tue Mar 25 01:32:34 2014

@<TRIPOS>MOLECULE
3ngl_NAP_1_INTS_M
   79     0     9     0     0
SMALL
NO_CHARGES


@<TRIPOS>ATOM
      1 CA         -0.4010  -13.0060   19.1060 C.3       3 GLC5        0.0000 
      2 CA          0.7620  -13.7210   20.6470 C.3       9 GLL5        0.0000 
      3 CA         -1.5640  -12.2910   17.5650 C.3       6 GLP5        0.0000 
      4 CA          2.2765  -14.2800   19.1265 C.3       3 GLC5        0.0000 
      5 CA          3.7910  -14.8390   17.6060 C.3       6 GLP5        0.0000 
      6 N          -2.3900  -12.7370   20.1165 N.am      1 SEC2        0.0000 
      7 N          -1.6720  -13.8310   20.9230 N.am      7 SEL2        0.0000 
      8 N          -3.1080  -11.6430   19.3100 N.am      4 SEP2        0.0000 
      9 N          -2.3965  -17.6335   20.4010 N.am      1 SEC2        0.0000 
     10 N          -1.5210  -16.4240   21.2790 N.am      7 SEL2        0.0000 
     11 N          -3.2720  -18.8430   19.5230 N.am      4 SEP2        0.0000 
     12 CA          1.2105  -15.8650   17.9820 C.3       3 GLC5        0.0000 
     13 CA          0.2800  -15.8070   19.7980 C.3       9 GLL5        0.0000 
     14 CA          2.1410  -15.9230   16.1660 C.3       6 GLP5        0.0000 
     15 CA          2.5110  -17.5885   17.8515 C.3       3 GLC5        0.0000 
     16 CA          1.5640  -19.0560   18.8020 C.3       9 GLL5        0.0000 
     17 CA          3.4580  -16.1210   16.9010 C.3       6 GLP5        0.0000 
     18 CA         -0.8255  -17.8275   15.7485 C.3       3 GLC5        0.0000 
     19 CA         -0.6220  -19.3040   17.1500 C.3       9 GLL5        0.0000 
     20 CA         -1.0290  -16.3510   14.3470 C.3       6 GLP5        0.0000 
     21 CA         -2.3560  -18.1815   17.5930 C.3       3 GLC5        0.0000 
     22 CA         -4.0900  -17.0590   18.0360 C.3       6 GLP5        0.0000 
     23 CA         -1.6870  -19.7465   18.4940 C.3       3 GLC5        0.0000 
     24 CA         -2.7520  -20.1890   19.8380 C.3       6 GLP5        0.0000 
     25 CA         -1.6300  -19.5835   15.7765 C.3       3 GLC5        0.0000 
     26 CA         -2.6380  -19.8630   14.4030 C.3       6 GLP5        0.0000 
     27 CA          0.7595  -17.6135   16.6580 C.3       3 GLC5        0.0000 
     28 CA          1.3750  -16.9880   17.4460 C.3       3 GLC5        0.0000 
     29 CA          0.6090  -18.0530   18.7260 C.3       9 GLL5        0.0000 
     30 N           1.4575   -9.8125   20.1680 N.am      1 SEC2        0.0000 
     31 N           2.0160   -9.1430   21.1740 N.am      7 SEL2        0.0000 
     32 N           0.8990  -10.4820   19.1620 N.am      4 SEP2        0.0000 
     33 N           0.9105   -8.5295   21.6075 N.am      1 SEC2        0.0000 
     34 N          -0.1950   -7.9160   22.0410 N.am      4 SEP2        0.0000 
     35 N           9.0525  -10.7910   18.1260 N.am      1 SEC2        0.0000 
     36 N           8.0950  -11.2700   19.1750 N.am      7 SEL2        0.0000 
     37 N          10.0100  -10.3120   17.0770 N.am      4 SEP2        0.0000 
     38 CA          5.9970   -7.7170   17.3440 C.3       3 GLC5        0.0000 
     39 CA          7.1130   -8.5110   19.0810 C.3       9 GLL5        0.0000 
     40 CA          4.8810   -6.9230   15.6070 C.3       6 GLP5        0.0000 
     41 CA          7.5870   -9.6090   17.3720 C.3       3 GLC5        0.0000 
     42 CA          8.0610  -10.7070   15.6630 C.3       6 GLP5        0.0000 
     43 CA          4.1690   -4.5850   20.9840 C.3       3 GLC5        0.0000 
     44 CA          5.8950   -5.0630   20.0930 C.3       9 GLL5        0.0000 
     45 CA          2.4430   -4.1070   21.8750 C.3       6 GLP5        0.0000 
     46 NZ         -4.3215  -15.0235   22.5895 N.4       2 LYC4        0.0000 
     47 NZ         -3.0100  -15.0550   22.8010 N.4       8 LYL4        0.0000 
     48 NZ         -6.4000  -15.9400   22.8990 N.4       5 LYP4        0.0000 
     49 N          -4.3215  -15.0235   22.5895 N.am      1 SEC2        0.0000 
     50 N          -3.0100  -15.0550   22.8010 N.am      7 SEL2        0.0000 
     51 N          -5.6330  -14.9920   22.3780 N.am      4 SEP2        0.0000 
     52 N          -4.4060  -16.0265   23.1375 N.am      1 SEC2        0.0000 
     53 N          -5.8020  -16.9980   23.4740 N.am      4 SEP2        0.0000 
     54 NZ         -4.5965  -17.2410   23.0565 N.4       2 LYC4        0.0000 
     55 NZ         -3.3910  -17.4840   22.6390 N.4       8 LYL4        0.0000 
     56 N          -4.5965  -17.2410   23.0565 N.am      1 SEC2        0.0000 
     57 N          -3.3910  -17.4840   22.6390 N.am      7 SEL2        0.0000 
     58 N          -3.3315  -18.1635   21.0810 N.am      1 SEC2        0.0000 
     59 N          -2.9935  -18.7880   22.4610 N.am      1 SEC2        0.0000 
     60 N          -2.5960  -20.0920   22.2830 N.am      4 SEP2        0.0000 
     61 CA         -0.4065  -19.4943   19.8253 C.3       3 GLC5        0.0000 
     62 CA         -1.8540  -20.1470   21.0780 C.3       6 GLP5        0.0000 
     63 CA          4.0787  -10.2972   17.9733 C.3       3 GLC5        0.0000 
     64 CA          4.5880  -10.4170   20.0990 C.3       9 GLL5        0.0000 
     65 CA          2.9370  -10.1550   16.2820 C.3       6 GLP5        0.0000 
     66 CA          6.9672  -12.5438   19.2062 C.3       3 GLC5        0.0000 
     67 CA          5.8530  -10.4620   19.2300 C.3       9 GLL5        0.0000 
     68 CA          7.4390  -14.5220   18.7780 C.3       6 GLP5        0.0000 
     69 CA          7.2782  -10.6363   17.6487 C.3       3 GLC5        0.0000 
     70 CA          7.1380  -10.6690   20.0390 C.3       9 GLL5        0.0000 
     71 CA          6.2975   -6.2408   17.0207 C.3       3 GLC5        0.0000 
     72 CA          7.7460   -6.2560   18.4220 C.3       9 GLL5        0.0000 
     73 CA          9.3840   -5.9192   18.1627 C.3       3 GLC5        0.0000 
     74 CA         11.0540   -6.2800   17.8910 C.3       6 GLP5        0.0000 
     75 CA          5.0290   -3.4990   18.4778 C.3       3 GLC5        0.0000 
     76 CA          6.7450   -4.2690   19.3040 C.3       9 GLL5        0.0000 
     77 CA          3.7380   -2.3320   17.2570 C.3       6 GLP5        0.0000 
     78 CA          4.0162   -5.8602   19.3678 C.3       3 GLC5        0.0000 
     79 CA          2.0890   -5.9630   18.6710 C.3       6 GLP5        0.0000 
@<TRIPOS>BOND
@<TRIPOS>SUBSTRUCTURE
     1 SEC2        6 GROUP        1 X    SEC  0     ROOT SEC X 2
     2 LYC4       46 GROUP        1 X    LYC  0     **** LYC X 4
     3 GLC5        1 GROUP        1 X    GLC  0     **** GLC X 6
     4 SEP2        8 GROUP        1 Y    SEP  0     ROOT SEP Y 9
     5 LYP4       48 GROUP        1 Y    LYP  0     **** LYP Y 11
     6 GLP5        3 GROUP        1 Y    GLP  0     **** GLP Y 13
     7 SEL2        7 GROUP        1 Z    SEL  0     ROOT SEL Z 16
     8 LYL4       47 GROUP        1 Z    LYL  0     **** LYL Z 18
     9 GLL5        2 GROUP        1 Z    GLL  0     **** GLL Z 20
@<TRIPOS>SET

