#    Name: 3ngl_NAP_1_ligand
#    Modification time : Tue Mar 25 01:32:34 2014

@<TRIPOS>MOLECULE
3ngl_NAP_1_ligand
   73    77     1     0     0
SMALL
NO_CHARGES


@<TRIPOS>ATOM
      1 PA          2.3890  -11.6440   23.3880 P.3       1 NAP305      0.0000 
      2 O1A         3.1780  -12.7670   23.9430 O.co2     1 NAP305      0.0000 
      3 O2A         1.4040  -11.0380   24.3000 O.co2     1 NAP305      0.0000 
      4 O5B         1.5850  -12.2800   22.1570 O.3       1 NAP305      0.0000 
      5 C5B         1.9650  -13.4360   21.5010 C.3       1 NAP305      0.0000 
      6 C4B         0.7620  -13.7210   20.6470 C.3       1 NAP305      0.0000 
      7 O4B         1.1530  -14.6980   19.7180 O.3       1 NAP305      0.0000 
      8 C3B        -0.4210  -14.2870   21.4460 C.3       1 NAP305      0.0000 
      9 O3B        -1.6720  -13.8310   20.9230 O.3       1 NAP305      0.0000 
     10 C2B        -0.2860  -15.7780   21.2060 C.3       1 NAP305      0.0000 
     11 O2B        -1.5210  -16.4240   21.2790 O.3       1 NAP305      0.0000 
     12 C1B         0.2800  -15.8070   19.7980 C.3       1 NAP305      0.0000 
     13 N9A         1.0140  -17.0500   19.5790 N.pl3     1 NAP305      0.0000 
     14 C8A         2.2140  -17.4320   20.1680 C.2       1 NAP305      0.0000 
     15 N7A         2.5280  -18.6650   19.6820 N.2       1 NAP305      0.0000 
     16 C5A         1.5640  -19.0560   18.8020 C.ar      1 NAP305      0.0000 
     17 C6A         1.3820  -20.2040   18.0360 C.ar      1 NAP305      0.0000 
     18 N6A         2.2830  -21.1650   18.0810 N.pl3     1 NAP305      0.0000 
     19 N1A         0.2870  -20.3280   17.1990 N.ar      1 NAP305      0.0000 
     20 C2A        -0.6220  -19.3040   17.1500 C.ar      1 NAP305      0.0000 
     21 N3A        -0.4620  -18.1870   17.9200 N.ar      1 NAP305      0.0000 
     22 C4A         0.6090  -18.0530   18.7260 C.ar      1 NAP305      0.0000 
     23 O3          3.4090  -10.6000   22.7030 O.3       1 NAP305      0.0000 
     24 PN          3.2880   -9.1760   21.9260 P.3       1 NAP305      0.0000 
     25 O1N         3.5910   -8.1330   22.9640 O.co2     1 NAP305      0.0000 
     26 O2N         2.0160   -9.1430   21.1740 O.co2     1 NAP305      0.0000 
     27 O5D         4.4570   -9.2080   20.8390 O.3       1 NAP305      0.0000 
     28 C5D         4.5880  -10.4170   20.0990 C.3       1 NAP305      0.0000 
     29 C4D         5.8530  -10.4620   19.2300 C.3       1 NAP305      0.0000 
     30 O4D         6.0070   -9.2320   18.5480 O.3       1 NAP305      0.0000 
     31 C3D         7.1380  -10.6690   20.0390 C.3       1 NAP305      0.0000 
     32 O3D         8.0950  -11.2700   19.1750 O.3       1 NAP305      0.0000 
     33 C2D         7.5120   -9.2240   20.3940 C.3       1 NAP305      0.0000 
     34 O2D         8.8720   -9.0330   20.7670 O.3       1 NAP305      0.0000 
     35 C1D         7.1130   -8.5110   19.0810 C.3       1 NAP305      0.0000 
     36 N1N         6.9170   -7.0360   19.1890 N.pl3     1 NAP305      0.0000 
     37 C2N         7.7460   -6.2560   18.4220 C.ar      1 NAP305      0.0000 
     38 C3N         7.6820   -4.8610   18.4470 C.ar      1 NAP305      0.0000 
     39 C7N         8.3580   -4.0870   17.3250 C.2       1 NAP305      0.0000 
     40 O7N         9.1160   -2.9280   17.6110 O.2       1 NAP305      0.0000 
     41 N7N         8.2620   -4.5370   16.0640 N.am      1 NAP305      0.0000 
     42 C4N         6.7450   -4.2690   19.3040 C.ar      1 NAP305      0.0000 
     43 C5N         5.8950   -5.0630   20.0930 C.ar      1 NAP305      0.0000 
     44 C6N         5.9920   -6.4520   20.0360 C.ar      1 NAP305      0.0000 
     45 P2B        -2.3460  -16.3910   22.6590 P.3       1 NAP305      0.0000 
     46 O1X        -3.0100  -15.0550   22.8010 O.co2     1 NAP305      0.0000 
     47 O2X        -3.3910  -17.4840   22.6390 O.co2     1 NAP305      0.0000 
     48 O3X        -1.4740  -16.5610   23.8650 O.co2     1 NAP305      0.0000 
     49 H           2.1145  -14.2700   22.1621 H         1 NAP305      0.0000 
     50 H           2.8125  -13.2986   20.8547 H         1 NAP305      0.0000 
     51 H           0.4488  -12.8230   20.1581 H         1 NAP305      0.0000 
     52 H          -0.2704  -14.0898   22.4609 H         1 NAP305      0.0000 
     53 H           0.4574  -16.1492   21.8646 H         1 NAP305      0.0000 
     54 H          -0.5337  -15.7139   19.1138 H         1 NAP305      0.0000 
     55 H           2.7093  -16.9173   20.7910 H         1 NAP305      0.0000 
     56 H           2.1213  -21.9482   17.4806 H         1 NAP305      0.0000 
     57 H           3.0462  -21.0234   18.7114 H         1 NAP305      0.0000 
     58 H          -1.4456  -19.3799   16.5165 H         1 NAP305      0.0000 
     59 H           3.7212  -10.5779   19.4232 H         1 NAP305      0.0000 
     60 H           4.6189  -11.3035   20.7676 H         1 NAP305      0.0000 
     61 H           5.7649  -11.2783   18.5296 H         1 NAP305      0.0000 
     62 H           6.9098  -11.1953   20.8978 H         1 NAP305      0.0000 
     63 H           6.7980   -8.8972   21.1369 H         1 NAP305      0.0000 
     64 H           7.9951   -8.6908   18.3928 H         1 NAP305      0.0000 
     65 H           8.4494   -6.7095   17.7974 H         1 NAP305      0.0000 
     66 H           7.7186   -5.3662   15.9329 H         1 NAP305      0.0000 
     67 H           8.7425   -4.0029   15.3684 H         1 NAP305      0.0000 
     68 H           6.6770   -3.2443   19.3577 H         1 NAP305      0.0000 
     69 H           5.2073   -4.6164   20.7070 H         1 NAP305      0.0000 
     70 H           5.3804   -7.0328   20.6192 H         1 NAP305      0.0000 
     71 H          -2.3650  -14.2378   21.5182 H         1 NAP305      0.0000 
     72 H           7.5603  -11.6451   18.4177 H         1 NAP305      0.0000 
     73 H           9.3727   -9.7633   20.3022 H         1 NAP305      0.0000 
@<TRIPOS>BOND
     1    2    1 ar   
     2    3    1 ar   
     3    4    1 1    
     4   23    1 1    
     5    5    4 1    
     6    6    5 1    
     7   49    5 1    
     8   50    5 1    
     9    7    6 1    
    10    8    6 1    
    11   51    6 1    
    12   12    7 1    
    13    9    8 1    
    14   10    8 1    
    15   52    8 1    
    16   71    9 1    
    17   11   10 1    
    18   12   10 1    
    19   53   10 1    
    20   45   11 1    
    21   13   12 1    
    22   54   12 1    
    23   14   13 1    
    24   22   13 1    
    25   15   14 2    
    26   55   14 1    
    27   16   15 1    
    28   17   16 ar   
    29   22   16 ar   
    30   18   17 1    
    31   19   17 ar   
    32   56   18 1    
    33   57   18 1    
    34   20   19 ar   
    35   21   20 ar   
    36   58   20 1    
    37   22   21 ar   
    38   24   23 1    
    39   25   24 ar   
    40   26   24 ar   
    41   27   24 1    
    42   28   27 1    
    43   29   28 1    
    44   59   28 1    
    45   60   28 1    
    46   30   29 1    
    47   31   29 1    
    48   61   29 1    
    49   35   30 1    
    50   32   31 1    
    51   33   31 1    
    52   62   31 1    
    53   72   32 1    
    54   34   33 1    
    55   35   33 1    
    56   63   33 1    
    57   73   34 1    
    58   36   35 1    
    59   64   35 1    
    60   37   36 ar   
    61   44   36 ar   
    62   38   37 ar   
    63   65   37 1    
    64   39   38 1    
    65   42   38 ar   
    66   40   39 2    
    67   41   39 am   
    68   66   41 1    
    69   67   41 1    
    70   43   42 ar   
    71   68   42 1    
    72   44   43 ar   
    73   69   43 1    
    74   70   44 1    
    75   46   45 ar   
    76   47   45 ar   
    77   48   45 ar   
@<TRIPOS>SUBSTRUCTURE
     1 NAP305      1 GROUP   
@<TRIPOS>SET

