#    Name: 4m6p_20R_2_INTS_M
#    Modification time : Tue Mar 25 11:53:45 2014

@<TRIPOS>MOLECULE
4m6p_20R_2_INTS_M
   50     0     6     0     0
SMALL
NO_CHARGES


@<TRIPOS>ATOM
      1 CA          8.6435   -4.3145   49.2485 C.3       2 GLC5        0.0000 
      2 CA          9.5030   -2.6680   48.6250 C.3       6 GLL5        0.0000 
      3 CA          7.7840   -5.9610   49.8720 C.3       4 GLP5        0.0000 
      4 CA         11.2095   -3.5670   42.2415 C.3       2 GLC5        0.0000 
      5 CA         10.9080   -4.8060   43.3450 C.3       6 GLL5        0.0000 
      6 CA         11.5110   -2.3280   41.1380 C.3       4 GLP5        0.0000 
      7 CA         10.3100   -2.7560   42.8780 C.3       2 GLC5        0.0000 
      8 CA         10.0440   -3.9540   43.9980 C.3       6 GLL5        0.0000 
      9 CA         10.5760   -1.5580   41.7580 C.3       4 GLP5        0.0000 
     10 CA         13.4110   -8.2980   42.7445 C.3       2 GLC5        0.0000 
     11 CA         12.2600   -6.9550   43.2570 C.3       6 GLL5        0.0000 
     12 CA         14.5620   -9.6410   42.2320 C.3       4 GLP5        0.0000 
     13 O          13.0920   -5.9470   41.6335 O.2       1 ALC1        0.0000 
     14 O          12.0240   -7.1860   41.8460 O.2       5 ALL1        0.0000 
     15 O          14.1600   -4.7080   41.4210 O.2       3 ALP1        0.0000 
     16 O          13.2230   -6.9120   41.1310 O.2       1 ALC1        0.0000 
     17 O          14.4220   -6.6380   40.4160 O.2       3 ALP1        0.0000 
     18 CA         13.1095   -6.1270   39.0965 C.3       2 GLC5        0.0000 
     19 CA         11.5260   -7.6190   39.1070 C.3       6 GLL5        0.0000 
     20 CA         14.6930   -4.6350   39.0860 C.3       4 GLP5        0.0000 
     21 CA         13.8945   -7.8345   36.7825 C.3       2 GLC5        0.0000 
     22 CA         11.7580   -7.4740   36.4680 C.3       6 GLL5        0.0000 
     23 CA         16.0310   -8.1950   37.0970 C.3       4 GLP5        0.0000 
     24 CA         12.7460   -8.9500   37.5165 C.3       2 GLC5        0.0000 
     25 CA         13.7340  -10.4260   38.5650 C.3       4 GLP5        0.0000 
     26 O          12.1030   -7.4805   34.5235 O.2       1 ALC1        0.0000 
     27 O          10.9890   -8.0000   35.5600 O.2       5 ALL1        0.0000 
     28 O          13.2170   -6.9610   33.4870 O.2       3 ALP1        0.0000 
     29 CA          7.6410   -9.2530   40.5695 C.3       2 GLC5        0.0000 
     30 CA          9.6190   -9.0090   39.7210 C.3       6 GLL5        0.0000 
     31 CA          5.6630   -9.4970   41.4180 C.3       4 GLP5        0.0000 
     32 CA         10.8500   -4.1175   48.0510 C.3       2 GLC5        0.0000 
     33 CA         12.1600   -5.6970   48.1600 C.3       4 GLP5        0.0000 
     34 CA         12.4184   -2.7183   48.9414 C.3       2 GLC5        0.0000 
     35 CA         10.4320   -2.0730   49.4650 C.3       6 GLL5        0.0000 
     36 CA         13.5970   -4.0830   49.4970 C.3       4 GLP5        0.0000 
     37 CA         10.9142   -5.2822   46.8462 C.3       2 GLC5        0.0000 
     38 CA          9.8440   -5.4790   45.8190 C.3       6 GLL5        0.0000 
     39 CA          7.9123   -4.1595   43.8790 C.3       2 GLC5        0.0000 
     40 CA          9.4930   -4.2560   45.2460 C.3       6 GLL5        0.0000 
     41 CA          6.0560   -4.2140   43.1360 C.3       4 GLP5        0.0000 
     42 CA          9.4057   -7.5673   45.9297 C.3       2 GLC5        0.0000 
     43 CA          8.5240   -9.2390   46.3770 C.3       4 GLP5        0.0000 
     44 CA         11.5783   -5.9290   46.3430 C.3       2 GLC5        0.0000 
     45 CA         10.7310   -6.3120   45.1460 C.3       6 GLL5        0.0000 
     46 CA         11.5151   -8.3760   44.2993 C.3       2 GLC5        0.0000 
     47 CA         11.4020  -10.1940   44.7070 C.3       4 GLP5        0.0000 
     48 CA         10.4610   -6.1182   36.6167 C.3       2 GLC5        0.0000 
     49 CA         11.2100   -7.8830   37.7490 C.3       6 GLL5        0.0000 
     50 CA          9.4380   -4.5580   36.1250 C.3       4 GLP5        0.0000 
@<TRIPOS>BOND
@<TRIPOS>SUBSTRUCTURE
     1 ALC1       13 GROUP        1 X    ALC  0     ROOT ALC X 1
     2 GLC5        1 GROUP        1 X    GLC  0     **** GLC X 6
     3 ALP1       15 GROUP        1 Y    ALP  0     ROOT ALP Y 8
     4 GLP5        3 GROUP        1 Y    GLP  0     **** GLP Y 13
     5 ALL1       14 GROUP        1 Z    ALL  0     ROOT ALL Z 15
     6 GLL5        2 GROUP        1 Z    GLL  0     **** GLL Z 20
@<TRIPOS>SET

