#    Name: 4m6p_20R_2_ligand
#    Modification time : Tue Mar 25 11:53:46 2014

@<TRIPOS>MOLECULE
4m6p_20R_2_ligand
   44    47     1     0     0
SMALL
NO_CHARGES


@<TRIPOS>ATOM
      1 C1         11.4350   -1.2690   48.9340 C.ar      1 20R601      0.0000 
      2 C2         10.4320   -2.0730   49.4650 C.ar      1 20R601      0.0000 
      3 C3          9.5030   -2.6680   48.6250 C.ar      1 20R601      0.0000 
      4 C4          9.5770   -2.4080   47.2590 C.ar      1 20R601      0.0000 
      5 C5         10.6100   -1.6320   46.7370 C.ar      1 20R601      0.0000 
      6 C6         11.5460   -1.0360   47.5720 C.ar      1 20R601      0.0000 
      7 S7          8.4240   -3.1330   46.0980 S.o2      1 20R601      0.0000 
      8 O8          8.0620   -1.9840   45.2790 O.2       1 20R601      0.0000 
      9 O9          7.4800   -3.8600   46.8370 O.2       1 20R601      0.0000 
     10 C10         9.4930   -4.2560   45.2460 C.ar      1 20R601      0.0000 
     11 C11         9.8440   -5.4790   45.8190 C.ar      1 20R601      0.0000 
     12 C12        10.7310   -6.3120   45.1460 C.ar      1 20R601      0.0000 
     13 C13        11.2620   -6.0100   43.9060 C.ar      1 20R601      0.0000 
     14 C14        10.9080   -4.8060   43.3450 C.ar      1 20R601      0.0000 
     15 C15        10.0440   -3.9540   43.9980 C.ar      1 20R601      0.0000 
     16 C16        12.2600   -6.9550   43.2570 C.3       1 20R601      0.0000 
     17 N17        12.0240   -7.1860   41.8460 N.am      1 20R601      0.0000 
     18 C18        10.9700   -7.9490   41.5230 C.2       1 20R601      0.0000 
     19 O19        10.2100   -8.3820   42.3710 O.2       1 20R601      0.0000 
     20 C20        10.6950   -8.1950   40.0870 C.ar      1 20R601      0.0000 
     21 C21        11.5260   -7.6190   39.1070 C.ar      1 20R601      0.0000 
     22 C22        11.2100   -7.8830   37.7490 C.ar      1 20R601      0.0000 
     23 C23        11.7580   -7.4740   36.4680 C.2       1 20R601      0.0000 
     24 N24        10.9890   -8.0000   35.5600 N.pl3     1 20R601      0.0000 
     25 N25        10.0040   -8.7850   36.1220 N.2       1 20R601      0.0000 
     26 C27        10.1000   -8.7140   37.4710 C.ar      1 20R601      0.0000 
     27 N28         9.3720   -9.2390   38.4340 N.ar      1 20R601      0.0000 
     28 C29         9.6190   -9.0090   39.7210 C.ar      1 20R601      0.0000 
     29 H          12.1237   -0.8288   49.5820 H         1 20R601      0.0000 
     30 H          10.3809   -2.2251   50.4813 H         1 20R601      0.0000 
     31 H           8.7806   -3.2828   48.9967 H         1 20R601      0.0000 
     32 H          10.6788   -1.4993   45.7135 H         1 20R601      0.0000 
     33 H          12.2840   -0.4513   47.1975 H         1 20R601      0.0000 
     34 H           9.4533   -5.7566   46.7209 H         1 20R601      0.0000 
     35 H          11.0098   -7.2165   45.6064 H         1 20R601      0.0000 
     36 H          11.2943   -4.5348   42.4211 H         1 20R601      0.0000 
     37 H           9.7858   -3.0445   43.5490 H         1 20R601      0.0000 
     38 H          12.2359   -7.9143   43.8202 H         1 20R601      0.0000 
     39 H          13.2788   -6.5385   43.4205 H         1 20R601      0.0000 
     40 H          12.6527   -6.7695   41.1789 H         1 20R601      0.0000 
     41 H          12.3094   -7.0456   39.3530 H         1 20R601      0.0000 
     42 H          12.5269   -6.9309   36.4030 H         1 20R601      0.0000 
     43 H          11.0654   -7.8787   34.5802 H         1 20R601      0.0000 
     44 H           9.0340   -9.4175   40.4721 H         1 20R601      0.0000 
@<TRIPOS>BOND
     1    2    1 ar   
     2    6    1 ar   
     3   29    1 1    
     4    3    2 ar   
     5   30    2 1    
     6    4    3 ar   
     7   31    3 1    
     8    5    4 ar   
     9    7    4 1    
    10    6    5 ar   
    11   32    5 1    
    12   33    6 1    
    13    8    7 2    
    14    9    7 2    
    15   10    7 1    
    16   11   10 ar   
    17   15   10 ar   
    18   12   11 ar   
    19   34   11 1    
    20   13   12 ar   
    21   35   12 1    
    22   14   13 ar   
    23   16   13 1    
    24   15   14 ar   
    25   36   14 1    
    26   37   15 1    
    27   17   16 1    
    28   38   16 1    
    29   39   16 1    
    30   18   17 am   
    31   40   17 1    
    32   19   18 2    
    33   20   18 1    
    34   21   20 ar   
    35   28   20 ar   
    36   22   21 ar   
    37   41   21 1    
    38   23   22 2    
    39   26   22 ar   
    40   24   23 1    
    41   42   23 1    
    42   25   24 1    
    43   43   24 1    
    44   26   25 2    
    45   27   26 ar   
    46   28   27 ar   
    47   44   28 1    
@<TRIPOS>SUBSTRUCTURE
     1 20R601      1 GROUP   
@<TRIPOS>SET

