#    Name: 2pbf_SAH_1_INTS_M
#    Modification time : Mon Mar 24 18:40:12 2014

@<TRIPOS>MOLECULE
2pbf_SAH_1_INTS_M
   81     0     9     0     0
SMALL
NO_CHARGES


@<TRIPOS>ATOM
      1 O          28.8660   -1.5405   -4.3445 O.2       1 ALC1        0.0000 
      2 O          27.6740   -0.3110   -4.5850 O.2       7 ALL1        0.0000 
      3 O          30.0580   -2.7700   -4.1040 O.2       4 ALP1        0.0000 
      4 O          27.5750   -1.4540   -4.0190 O.2       1 ALC1        0.0000 
      5 O          27.4760   -2.5970   -3.4530 O.2       4 ALP1        0.0000 
      6 O          28.0140    0.3495   -3.3640 O.2       1 ALC1        0.0000 
      7 O          28.3540    1.0100   -2.1430 O.2       4 ALP1        0.0000 
      8 CA         30.7750    0.0465   -5.2115 C.3       3 GLC5        0.0000 
      9 CA         28.7590    0.0010   -5.5500 C.3       9 GLL5        0.0000 
     10 CA         32.7910    0.0920   -4.8730 C.3       6 GLP5        0.0000 
     11 CA         31.4035   -0.4355   -6.1545 C.3       3 GLC5        0.0000 
     12 CA         30.0160   -0.9630   -7.4360 C.3       9 GLL5        0.0000 
     13 CA         31.8710   -1.8070   -9.9655 C.3       3 GLC5        0.0000 
     14 CA         30.0080   -2.0960   -8.8280 C.3       9 GLL5        0.0000 
     15 CA         33.7340   -1.5180  -11.1030 C.3       6 GLP5        0.0000 
     16 N          27.3390    2.3195   -7.8205 N.am      2 SEC2        0.0000 
     17 N          27.6670    1.9540   -6.3790 N.am      8 SEL2        0.0000 
     18 N          27.0110    2.6850   -9.2620 N.am      5 SEP2        0.0000 
     19 N          26.5670    2.6295   -6.0595 N.am      2 SEC2        0.0000 
     20 N          25.4670    3.3050   -5.7400 N.am      5 SEP2        0.0000 
     21 N          31.1150    2.3145   -5.5035 N.am      2 SEC2        0.0000 
     22 N          29.7950    2.1370   -6.0930 N.am      8 SEL2        0.0000 
     23 N          32.4350    2.4920   -4.9140 N.am      5 SEP2        0.0000 
     24 N          30.0845    3.3615   -5.4530 N.am      2 SEC2        0.0000 
     25 N          30.3740    4.5860   -4.8130 N.am      5 SEP2        0.0000 
     26 CA         29.5230   -5.5075   -7.9780 C.3       3 GLC5        0.0000 
     27 CA         30.2160   -3.6200   -7.8740 C.3       9 GLL5        0.0000 
     28 CA         28.8300   -7.3950   -8.0820 C.3       6 GLP5        0.0000 
     29 CA         31.2550   -4.3335   -5.3415 C.3       3 GLC5        0.0000 
     30 CA         31.5240   -3.7500   -7.0920 C.3       9 GLL5        0.0000 
     31 CA         30.9860   -4.9170   -3.5910 C.3       6 GLP5        0.0000 
     32 O          33.8595   -2.7775   -5.8475 O.2       1 ALC1        0.0000 
     33 O          33.4870   -2.3800   -7.1560 O.2       7 ALL1        0.0000 
     34 O          34.2320   -3.1750   -4.5390 O.2       4 ALP1        0.0000 
     35 O          34.7575   -3.0205   -6.4045 O.2       1 ALC1        0.0000 
     36 O          36.0280   -3.6610   -5.6530 O.2       4 ALP1        0.0000 
     37 O          34.6100   -3.8435   -6.1080 O.2       1 ALC1        0.0000 
     38 O          34.9880   -4.5120   -7.6770 O.2       7 ALL1        0.0000 
     39 O          35.5080   -4.0865   -6.6650 O.2       1 ALC1        0.0000 
     40 CA         31.9960   -5.1715   -5.1055 C.3       3 GLC5        0.0000 
     41 CA         33.0060   -5.4260   -6.6200 C.3       9 GLL5        0.0000 
     42 N          32.8200  -10.1815   -8.2485 N.am      2 SEC2        0.0000 
     43 N          33.0370   -9.0010   -7.2820 N.am      8 SEL2        0.0000 
     44 N          32.6030  -11.3620   -9.2150 N.am      5 SEP2        0.0000 
     45 CA         34.9640  -10.5650   -3.5590 C.3       3 GLC5        0.0000 
     46 CA         33.4720  -10.0570   -5.0320 C.3       9 GLL5        0.0000 
     47 CA         36.4560  -11.0730   -2.0860 C.3       6 GLP5        0.0000 
     48 CA         32.4700  -11.2120   -3.7340 C.3       3 GLC5        0.0000 
     49 CA         31.4680  -12.3670   -2.4360 C.3       6 GLP5        0.0000 
     50 O          34.0115  -12.0350   -6.4300 O.2       1 ALC1        0.0000 
     51 O          33.4700  -11.3360   -5.3840 O.2       7 ALL1        0.0000 
     52 O          34.5530  -12.7340   -7.4760 O.2       4 ALP1        0.0000 
     53 N          33.9505  -10.7855   -2.5685 N.am      2 SEC2        0.0000 
     54 N          33.6540   -9.7530   -3.7070 N.am      8 SEL2        0.0000 
     55 N          34.2470  -11.8180   -1.4300 N.am      5 SEP2        0.0000 
     56 CA         31.5900   -8.6935   -2.5145 C.3       3 GLC5        0.0000 
     57 CA         33.6680   -8.4330   -3.2980 C.3       9 GLL5        0.0000 
     58 CA         29.5120   -8.9540   -1.7310 C.3       6 GLP5        0.0000 
     59 CA         32.3270   -6.6750   -3.4445 C.3       3 GLC5        0.0000 
     60 CA         34.5900   -6.5910   -2.6460 C.3       3 GLC5        0.0000 
     61 CA         35.5120   -4.7490   -1.9940 C.3       6 GLP5        0.0000 
     62 CA         35.3445   -8.3270   -4.1830 C.3       3 GLC5        0.0000 
     63 CA         37.0210   -8.2210   -5.0680 C.3       6 GLP5        0.0000 
     64 CA         35.0620   -9.7530   -2.6920 C.3       3 GLC5        0.0000 
     65 N          35.0140   -6.8660   -3.8985 N.am      2 SEC2        0.0000 
     66 N          33.4810   -7.4360   -4.2220 N.am      8 SEL2        0.0000 
     67 N          36.5470   -6.2960   -3.5750 N.am      5 SEP2        0.0000 
     68 CA         32.1350   -6.3140   -4.5600 C.3       3 GLC5        0.0000 
     69 CA         33.2840   -7.7110   -5.5290 C.3       9 GLL5        0.0000 
     70 CA         35.1525   -7.9660   -5.2985 C.3       3 GLC5        0.0000 
     71 CA         30.2050   -3.9675   -9.7005 C.3       3 GLC5        0.0000 
     72 CA         30.2980   -5.0770  -11.0500 C.3       6 GLP5        0.0000 
     73 CA         31.2330   -4.3325   -9.2570 C.3       3 GLC5        0.0000 
     74 CA         33.7430   -3.5225   -9.4845 C.3       3 GLC5        0.0000 
     75 CA         32.8120   -3.4260   -7.8360 C.3       9 GLL5        0.0000 
     76 CA         34.2790   -2.9690  -11.1390 C.3       6 GLP5        0.0000 
     77 CA         34.9093   -9.2730   -6.4525 C.3       3 GLC5        0.0000 
     78 CA         33.2670   -9.0210   -5.9500 C.3       9 GLL5        0.0000 
     79 CA         36.4490   -9.0070   -7.4140 C.3       6 GLP5        0.0000 
     80 CA         31.6779   -9.3515   -5.5765 C.3       3 GLC5        0.0000 
     81 CA         30.0290  -10.0780   -5.6430 C.3       6 GLP5        0.0000 
@<TRIPOS>BOND
@<TRIPOS>SUBSTRUCTURE
     1 ALC1        1 GROUP        1 X    ALC  0     ROOT ALC X 1
     2 SEC2       16 GROUP        1 X    SEC  0     **** SEC X 2
     3 GLC5        8 GROUP        1 X    GLC  0     **** GLC X 6
     4 ALP1        3 GROUP        1 Y    ALP  0     ROOT ALP Y 8
     5 SEP2       18 GROUP        1 Y    SEP  0     **** SEP Y 9
     6 GLP5       10 GROUP        1 Y    GLP  0     **** GLP Y 13
     7 ALL1        2 GROUP        1 Z    ALL  0     ROOT ALL Z 15
     8 SEL2       17 GROUP        1 Z    SEL  0     **** SEL Z 16
     9 GLL5        9 GROUP        1 Z    GLL  0     **** GLL Z 20
@<TRIPOS>SET

