#    Name: 2pbf_SAH_1_ligand
#    Modification time : Mon Mar 24 18:40:12 2014

@<TRIPOS>MOLECULE
2pbf_SAH_1_ligand
   46    48     1     0     0
SMALL
NO_CHARGES


@<TRIPOS>ATOM
      1 N          27.6740   -0.3110   -4.5850 N.4       1 SAH301      0.0000 
      2 CA         28.7590    0.0010   -5.5500 C.3       1 SAH301      0.0000 
      3 CB         28.6770   -0.9570   -6.7110 C.3       1 SAH301      0.0000 
      4 CG         30.0160   -0.9630   -7.4360 C.3       1 SAH301      0.0000 
      5 SD         30.0080   -2.0960   -8.8280 S.3       1 SAH301      0.0000 
      6 C          28.7410    1.4530   -6.0390 C.2       1 SAH301      0.0000 
      7 O          27.6670    1.9540   -6.3790 O.co2     1 SAH301      0.0000 
      8 OXT        29.7950    2.1370   -6.0930 O.co2     1 SAH301      0.0000 
      9 C5'        30.2160   -3.6200   -7.8740 C.3       1 SAH301      0.0000 
     10 C4'        31.5240   -3.7500   -7.0920 C.3       1 SAH301      0.0000 
     11 O4'        31.6300   -5.0900   -6.7000 O.3       1 SAH301      0.0000 
     12 C3'        32.8120   -3.4260   -7.8360 C.3       1 SAH301      0.0000 
     13 O3'        33.4870   -2.3800   -7.1560 O.3       1 SAH301      0.0000 
     14 C2'        33.6020   -4.7260   -7.8240 C.3       1 SAH301      0.0000 
     15 O2'        34.9880   -4.5120   -7.6770 O.3       1 SAH301      0.0000 
     16 C1'        33.0060   -5.4260   -6.6200 C.3       1 SAH301      0.0000 
     17 N9         33.0910   -6.9030   -6.6230 N.pl3     1 SAH301      0.0000 
     18 C8         32.9440   -7.7200   -7.7070 C.2       1 SAH301      0.0000 
     19 N7         33.0370   -9.0010   -7.2820 N.2       1 SAH301      0.0000 
     20 C5         33.2670   -9.0210   -5.9500 C.ar      1 SAH301      0.0000 
     21 C6         33.4720  -10.0570   -5.0320 C.ar      1 SAH301      0.0000 
     22 N6         33.4700  -11.3360   -5.3840 N.pl3     1 SAH301      0.0000 
     23 N1         33.6540   -9.7530   -3.7070 N.ar      1 SAH301      0.0000 
     24 C2         33.6680   -8.4330   -3.2980 C.ar      1 SAH301      0.0000 
     25 N3         33.4810   -7.4360   -4.2220 N.ar      1 SAH301      0.0000 
     26 C4         33.2840   -7.7110   -5.5290 C.ar      1 SAH301      0.0000 
     27 H          29.7279   -0.1709   -5.0547 H         1 SAH301      0.0000 
     28 H          27.9012   -0.6392   -7.3964 H         1 SAH301      0.0000 
     29 H          28.4617   -1.9551   -6.3502 H         1 SAH301      0.0000 
     30 H          30.8227   -1.3305   -6.8371 H         1 SAH301      0.0000 
     31 H          30.2558   -0.0268   -7.8949 H         1 SAH301      0.0000 
     32 H          30.0964   -4.3876   -8.6359 H         1 SAH301      0.0000 
     33 H          29.3355   -3.6143   -7.2347 H         1 SAH301      0.0000 
     34 H          31.4644   -3.1165   -6.2117 H         1 SAH301      0.0000 
     35 H          32.5590   -3.1879   -8.8398 H         1 SAH301      0.0000 
     36 H          33.3276   -5.2796   -8.6908 H         1 SAH301      0.0000 
     37 H          33.4282   -5.0138   -5.7318 H         1 SAH301      0.0000 
     38 H          32.8001   -7.4291   -8.6100 H         1 SAH301      0.0000 
     39 H          32.7628  -11.9063   -4.9661 H         1 SAH301      0.0000 
     40 H          34.1758  -11.6142   -6.0354 H         1 SAH301      0.0000 
     41 H          33.8181   -8.2038   -2.3054 H         1 SAH301      0.0000 
     42 H          27.6882    0.3057   -3.7980 H         1 SAH301      0.0000 
     43 H          26.7697   -0.2305   -5.0042 H         1 SAH301      0.0000 
     44 H          27.7502   -1.2423   -4.2289 H         1 SAH301      0.0000 
     45 H          33.6949   -2.7516   -6.2512 H         1 SAH301      0.0000 
     46 H          35.1633   -4.6158   -6.6980 H         1 SAH301      0.0000 
@<TRIPOS>BOND
     1    2    1 1    
     2   42    1 1    
     3   43    1 1    
     4   44    1 1    
     5    3    2 1    
     6    6    2 1    
     7   27    2 1    
     8    4    3 1    
     9   28    3 1    
    10   29    3 1    
    11    5    4 1    
    12   30    4 1    
    13   31    4 1    
    14    9    5 1    
    15    7    6 ar   
    16    8    6 ar   
    17   10    9 1    
    18   32    9 1    
    19   33    9 1    
    20   11   10 1    
    21   12   10 1    
    22   34   10 1    
    23   16   11 1    
    24   13   12 1    
    25   14   12 1    
    26   35   12 1    
    27   45   13 1    
    28   15   14 1    
    29   16   14 1    
    30   36   14 1    
    31   46   15 1    
    32   17   16 1    
    33   37   16 1    
    34   18   17 1    
    35   26   17 1    
    36   19   18 2    
    37   38   18 1    
    38   20   19 1    
    39   21   20 ar   
    40   26   20 ar   
    41   22   21 1    
    42   23   21 ar   
    43   39   22 1    
    44   40   22 1    
    45   24   23 ar   
    46   25   24 ar   
    47   41   24 1    
    48   26   25 ar   
@<TRIPOS>SUBSTRUCTURE
     1 SAH301      1 GROUP   
@<TRIPOS>SET

