#    Name: 3a78_3EV_1_INTS_M
#    Modification time : Tue Mar 25 11:36:15 2014

@<TRIPOS>MOLECULE
3a78_3EV_1_INTS_M
  114     0     9     0     0
SMALL
NO_CHARGES


@<TRIPOS>ATOM
      1 CA         11.8630   16.5410   36.0900 C.3       3 GLC5        0.0000 
      2 CA         13.9710   17.1940   35.7000 C.3       9 GLL5        0.0000 
      3 CA          9.7550   15.8880   36.4800 C.3       6 GLP5        0.0000 
      4 CA         14.2130   16.9450   37.5320 C.3       3 GLC5        0.0000 
      5 CA         14.4550   16.6960   39.3640 C.3       6 GLP5        0.0000 
      6 CA         15.5035   18.3350   36.3950 C.3       3 GLC5        0.0000 
      7 CA         17.0360   19.4760   37.0900 C.3       6 GLP5        0.0000 
      8 N          13.0330   15.2615   37.0920 N.am      2 SEC2        0.0000 
      9 N          12.8690   16.6410   36.4140 N.am      8 SEL2        0.0000 
     10 N          13.1970   13.8820   37.7700 N.am      5 SEP2        0.0000 
     11 O          11.7005   16.2460   35.8540 O.2       1 ALC1        0.0000 
     12 O          12.8690   16.6410   36.4140 O.2       7 ALL1        0.0000 
     13 O          10.5320   15.8510   35.2940 O.2       4 ALP1        0.0000 
     14 O          17.7575   15.4030   34.3745 O.2       1 ALC1        0.0000 
     15 O          16.5660   15.6040   33.4620 O.2       7 ALL1        0.0000 
     16 O          18.9490   15.2020   35.2870 O.2       4 ALP1        0.0000 
     17 CA         16.4400   18.0750   35.5955 C.3       3 GLC5        0.0000 
     18 CA         15.8440   16.6740   34.1010 C.3       9 GLL5        0.0000 
     19 N           4.9290   26.1390   36.0290 N.am      2 SEC2        0.0000 
     20 N           4.5250   26.0720   34.7300 N.am      8 SEL2        0.0000 
     21 N           5.3330   26.2060   37.3280 N.am      5 SEP2        0.0000 
     22 O           5.0960   27.2305   34.3860 O.2       1 ALC1        0.0000 
     23 O           4.5250   26.0720   34.7300 O.2       7 ALL1        0.0000 
     24 O           5.6670   28.3890   34.0420 O.2       4 ALP1        0.0000 
     25 CA         13.3915   17.1550   32.3745 C.3       3 GLC5        0.0000 
     26 CA         15.3390   17.7010   33.0710 C.3       9 GLL5        0.0000 
     27 CA         11.4440   16.6090   31.6780 C.3       6 GLP5        0.0000 
     28 CA         15.7070   23.4350   32.4965 C.3       3 GLC5        0.0000 
     29 CA         14.1910   22.7330   32.1460 C.3       9 GLL5        0.0000 
     30 CA         17.2230   24.1370   32.8470 C.3       6 GLP5        0.0000 
     31 CA         14.6150   21.8095   30.3895 C.3       3 GLC5        0.0000 
     32 CA         15.0390   20.8860   28.6330 C.3       6 GLP5        0.0000 
     33 CA         12.4825   17.4375   33.2120 C.3       3 GLC5        0.0000 
     34 CA         13.5210   18.2660   34.7460 C.3       9 GLL5        0.0000 
     35 CA         11.6905   22.8115   30.0335 C.3       3 GLC5        0.0000 
     36 CA         12.9560   23.2830   31.4040 C.3       9 GLL5        0.0000 
     37 CA         10.4250   22.3400   28.6630 C.3       6 GLP5        0.0000 
     38 CA         14.9015   24.2335   31.6970 C.3       3 GLC5        0.0000 
     39 CA         16.8470   25.1840   31.9900 C.3       6 GLP5        0.0000 
     40 CA         14.0900   23.3285   29.8025 C.3       3 GLC5        0.0000 
     41 CA         15.2240   23.3740   28.2010 C.3       6 GLP5        0.0000 
     42 CA         10.7935   24.4860   30.5265 C.3       3 GLC5        0.0000 
     43 CA         12.1660   24.3440   32.1980 C.3       9 GLL5        0.0000 
     44 CA          9.4210   24.6280   28.8550 C.3       6 GLP5        0.0000 
     45 CA         12.3375   26.0695   31.4230 C.3       3 GLC5        0.0000 
     46 CA         12.5090   27.7950   30.6480 C.3       6 GLP5        0.0000 
     47 CA         14.4125   21.9810   36.2200 C.3       3 GLC5        0.0000 
     48 CA         12.7040   23.3350   35.7810 C.3       9 GLL5        0.0000 
     49 CA         16.1210   20.6270   36.6590 C.3       6 GLP5        0.0000 
     50 CA          9.3290   21.7570   33.9205 C.3       3 GLC5        0.0000 
     51 CA         10.8240   22.6200   33.4760 C.3       9 GLL5        0.0000 
     52 CA          7.8340   20.8940   34.3650 C.3       6 GLP5        0.0000 
     53 CA         11.5185   18.3390   33.1115 C.3       3 GLC5        0.0000 
     54 CA         12.2690   18.7120   34.7620 C.3       9 GLL5        0.0000 
     55 CA         10.7680   17.9660   31.4610 C.3       6 GLP5        0.0000 
     56 CA         11.0120   17.3000   35.6210 C.3       3 GLC5        0.0000 
     57 CA          8.2100   27.9435   33.9855 C.3       3 GLC5        0.0000 
     58 CA          9.9120   27.0420   34.9140 C.3       9 GLL5        0.0000 
     59 CA          6.5080   28.8450   33.0570 C.3       6 GLP5        0.0000 
     60 CA          9.3400   28.6580   35.8090 C.3       3 GLC5        0.0000 
     61 CA          8.7680   30.2740   36.7040 C.3       6 GLP5        0.0000 
     62 CA         11.7960   27.3400   35.5915 C.3       3 GLC5        0.0000 
     63 CA         13.6800   27.6380   36.2690 C.3       6 GLP5        0.0000 
     64 CA          8.2770   24.2295   36.8360 C.3       3 GLC5        0.0000 
     65 CA          8.6700   24.8780   34.8070 C.3       9 GLL5        0.0000 
     66 CA          7.8840   23.5810   38.8650 C.3       6 GLP5        0.0000 
     67 CA          6.9560   27.0640   33.5490 C.3       3 GLC5        0.0000 
     68 CA          7.4040   25.2830   34.0410 C.3       9 GLL5        0.0000 
     69 CA          3.9210   25.1395   31.0550 C.3       3 GLC5        0.0000 
     70 CA          4.8030   25.2120   32.5230 C.3       9 GLL5        0.0000 
     71 CA          3.0390   25.0670   29.5870 C.3       6 GLP5        0.0000 
     72 CA          3.2550   26.6180   32.2890 C.3       3 GLC5        0.0000 
     73 CA          1.7070   28.0240   32.0550 C.3       6 GLP5        0.0000 
     74 CA          2.2740   24.9845   35.2240 C.3       3 GLC5        0.0000 
     75 CA          3.8180   23.8160   34.3440 C.3       9 GLL5        0.0000 
     76 CA          0.7300   26.1530   36.1040 C.3       6 GLP5        0.0000 
     77 CA          2.3035   22.5350   34.6425 C.3       3 GLC5        0.0000 
     78 CA          0.7890   21.2540   34.9410 C.3       6 GLP5        0.0000 
     79 CA         16.2987   15.3262   35.6220 C.3       3 GLC5        0.0000 
     80 CA         14.6710   16.0930   34.9010 C.3       9 GLL5        0.0000 
     81 CA         17.3400   14.2690   36.7430 C.3       6 GLP5        0.0000 
     82 CA         17.6578   17.5813   33.2155 C.3       3 GLC5        0.0000 
     83 CA         19.7240   17.9750   32.8450 C.3       6 GLP5        0.0000 
     84 CA         16.4693   17.4632   31.8110 C.3       3 GLC5        0.0000 
     85 CA         17.3470   17.7390   30.0360 C.3       6 GLP5        0.0000 
     86 CA         14.7661   15.8376   32.2265 C.3       3 GLC5        0.0000 
     87 CA         14.2340   14.6330   30.6670 C.3       6 GLP5        0.0000 
     88 CA         13.1758   19.1837   32.2345 C.3       3 GLC5        0.0000 
     89 CA         14.5150   18.7550   33.7800 C.3       9 GLL5        0.0000 
     90 CA         11.7350   18.9610   30.8350 C.3       6 GLP5        0.0000 
     91 CA         16.1267   21.4405   33.8420 C.3       3 GLC5        0.0000 
     92 CA         14.7180   20.0580   33.4880 C.3       9 GLL5        0.0000 
     93 CA         17.8910   22.2640   33.8780 C.3       6 GLP5        0.0000 
     94 CA         15.0083   21.2035   35.2518 C.3       3 GLC5        0.0000 
     95 CA         14.0070   21.1760   34.1240 C.3       9 GLL5        0.0000 
     96 CA         15.2722   23.6328   34.0885 C.3       3 GLC5        0.0000 
     97 CA         13.7840   22.3840   33.5650 C.3       9 GLL5        0.0000 
     98 CA         17.1220   24.3290   34.2460 C.3       6 GLP5        0.0000 
     99 CA         11.9590   19.4330   36.2745 C.3       3 GLC5        0.0000 
    100 CA         11.0230   20.3770   37.7950 C.3       6 GLP5        0.0000 
    101 CA         15.0949   19.7316   35.4245 C.3       3 GLC5        0.0000 
    102 CA         11.5730   22.1035   36.8330 C.3       3 GLC5        0.0000 
    103 CA         12.4360   24.2755   37.9640 C.3       3 GLC5        0.0000 
    104 CA         12.7490   24.7210   40.0570 C.3       6 GLP5        0.0000 
    105 CA         12.6890   26.0060   35.7427 C.3       3 GLC5        0.0000 
    106 CA         11.5420   24.3250   35.9610 C.3       9 GLL5        0.0000 
    107 CA         10.1883   27.5750   33.1512 C.3       3 GLC5        0.0000 
    108 CA         10.4650   28.8130   31.6860 C.3       6 GLP5        0.0000 
    109 CA          7.4863   22.8094   34.3910 C.3       3 GLC5        0.0000 
    110 CA          6.6923   25.9504   36.0370 C.3       3 GLC5        0.0000 
    111 CA          6.2400   24.3690   34.4100 C.3       9 GLL5        0.0000 
    112 CA          6.2460   27.1760   37.6570 C.3       6 GLP5        0.0000 
    113 CA          5.6688   26.9458   33.1610 C.3       3 GLC5        0.0000 
    114 CA          4.8560   24.8810   34.0070 C.3       9 GLL5        0.0000 
@<TRIPOS>BOND
@<TRIPOS>SUBSTRUCTURE
     1 ALC1       11 GROUP        1 X    ALC  0     ROOT ALC X 1
     2 SEC2        8 GROUP        1 X    SEC  0     **** SEC X 2
     3 GLC5        1 GROUP        1 X    GLC  0     **** GLC X 6
     4 ALP1       13 GROUP        1 Y    ALP  0     ROOT ALP Y 8
     5 SEP2       10 GROUP        1 Y    SEP  0     **** SEP Y 9
     6 GLP5        3 GROUP        1 Y    GLP  0     **** GLP Y 13
     7 ALL1       12 GROUP        1 Z    ALL  0     ROOT ALL Z 15
     8 SEL2        9 GROUP        1 Z    SEL  0     **** SEL Z 16
     9 GLL5        2 GROUP        1 Z    GLL  0     **** GLL Z 20
@<TRIPOS>SET

