#    Name: 3a78_3EV_1_ligand
#    Modification time : Tue Mar 25 11:36:15 2014

@<TRIPOS>MOLECULE
3a78_3EV_1_ligand
   72    74     1     0     0
SMALL
NO_CHARGES


@<TRIPOS>ATOM
      1 C1         13.9710   17.1940   35.7000 C.3       1 3EV428      0.0000 
      2 O1         12.8690   16.6410   36.4140 O.3       1 3EV428      0.0000 
      3 C2         14.6710   16.0930   34.9010 C.3       1 3EV428      0.0000 
      4 O2         16.5660   15.6040   33.4620 O.3       1 3EV428      0.0000 
      5 C3         15.8440   16.6740   34.1010 C.3       1 3EV428      0.0000 
      6 O3          4.5250   26.0720   34.7300 O.3       1 3EV428      0.0000 
      7 C4         15.3390   17.7010   33.0710 C.3       1 3EV428      0.0000 
      8 C5         14.5150   18.7550   33.7800 C.2       1 3EV428      0.0000 
      9 C6         14.7180   20.0580   33.4880 C.2       1 3EV428      0.0000 
     10 C7         14.0070   21.1760   34.1240 C.2       1 3EV428      0.0000 
     11 C8         13.7840   22.3840   33.5650 C.2       1 3EV428      0.0000 
     12 C9         14.1910   22.7330   32.1460 C.3       1 3EV428      0.0000 
     13 C10        13.5210   18.2660   34.7460 C.2       1 3EV428      0.0000 
     14 C11        12.9560   23.2830   31.4040 C.3       1 3EV428      0.0000 
     15 C12        12.1660   24.3440   32.1980 C.3       1 3EV428      0.0000 
     16 C13        11.7550   23.8390   33.5880 C.3       1 3EV428      0.0000 
     17 C14        13.0610   23.4890   34.2970 C.3       1 3EV428      0.0000 
     18 C15        12.7040   23.3350   35.7810 C.3       1 3EV428      0.0000 
     19 C16        11.5420   24.3250   35.9610 C.3       1 3EV428      0.0000 
     20 C17        11.2730   24.9180   34.5620 C.3       1 3EV428      0.0000 
     21 C18        10.8240   22.6200   33.4760 C.3       1 3EV428      0.0000 
     22 C19        12.2690   18.7120   34.7620 C.2       1 3EV428      0.0000 
     23 C20         9.9110   25.6320   34.3190 C.3       1 3EV428      0.0000 
     24 C21         9.9120   27.0420   34.9140 C.3       1 3EV428      0.0000 
     25 C22         8.6700   24.8780   34.8070 C.3       1 3EV428      0.0000 
     26 C23         7.4040   25.2830   34.0410 C.3       1 3EV428      0.0000 
     27 C24         6.2400   24.3690   34.4100 C.3       1 3EV428      0.0000 
     28 C25         4.8560   24.8810   34.0070 C.3       1 3EV428      0.0000 
     29 C26         4.8030   25.2120   32.5230 C.3       1 3EV428      0.0000 
     30 C27         3.8180   23.8160   34.3440 C.3       1 3EV428      0.0000 
     31 H          14.7046   17.6189   36.3733 H         1 3EV428      0.0000 
     32 H          13.9612   15.6393   34.2152 H         1 3EV428      0.0000 
     33 H          15.0451   15.3353   35.5836 H         1 3EV428      0.0000 
     34 H          16.4872   17.2008   34.8043 H         1 3EV428      0.0000 
     35 H          14.7310   17.1902   32.3356 H         1 3EV428      0.0000 
     36 H          16.1912   18.1618   32.5884 H         1 3EV428      0.0000 
     37 H          15.4268   20.3421   32.7587 H         1 3EV428      0.0000 
     38 H          13.6570   20.9696   35.1065 H         1 3EV428      0.0000 
     39 H          14.5419   21.8499   31.6356 H         1 3EV428      0.0000 
     40 H          14.9584   23.4909   32.1586 H         1 3EV428      0.0000 
     41 H          12.2838   22.4461   31.1653 H         1 3EV428      0.0000 
     42 H          13.2821   23.7240   30.4509 H         1 3EV428      0.0000 
     43 H          11.2702   24.6129   31.6343 H         1 3EV428      0.0000 
     44 H          12.7856   25.2363   32.3089 H         1 3EV428      0.0000 
     45 H          13.6762   24.4283   34.2163 H         1 3EV428      0.0000 
     46 H          13.5212   23.6328   36.3788 H         1 3EV428      0.0000 
     47 H          12.3669   22.3526   35.9682 H         1 3EV428      0.0000 
     48 H          11.8341   25.1043   36.6264 H         1 3EV428      0.0000 
     49 H          10.6756   23.8042   36.2981 H         1 3EV428      0.0000 
     50 H          12.0909   25.7426   34.4745 H         1 3EV428      0.0000 
     51 H           9.8046   25.7630   33.2180 H         1 3EV428      0.0000 
     52 H           8.5229   25.0814   35.8718 H         1 3EV428      0.0000 
     53 H           8.8326   23.8032   34.6842 H         1 3EV428      0.0000 
     54 H           7.5961   25.2116   32.9734 H         1 3EV428      0.0000 
     55 H           7.1507   26.3104   34.2903 H         1 3EV428      0.0000 
     56 H           6.2508   24.1999   35.5050 H         1 3EV428      0.0000 
     57 H           6.4014   23.3773   33.9427 H         1 3EV428      0.0000 
     58 H          11.2644   21.8589   32.9998 H         1 3EV428      0.0000 
     59 H          10.5454   22.2816   34.3748 H         1 3EV428      0.0000 
     60 H           9.9877   22.8364   32.9722 H         1 3EV428      0.0000 
     61 H          10.0693   27.0283   35.9015 H         1 3EV428      0.0000 
     62 H          10.6262   27.6145   34.5113 H         1 3EV428      0.0000 
     63 H           9.0412   27.5097   34.7624 H         1 3EV428      0.0000 
     64 H           5.4492   25.9356   32.2806 H         1 3EV428      0.0000 
     65 H           5.0261   24.4182   31.9572 H         1 3EV428      0.0000 
     66 H           3.8949   25.5246   32.2444 H         1 3EV428      0.0000 
     67 H           3.9981   22.9570   33.8647 H         1 3EV428      0.0000 
     68 H           3.8030   23.6084   35.3221 H         1 3EV428      0.0000 
     69 H           2.8944   24.1045   34.0914 H         1 3EV428      0.0000 
     70 H          12.1593   16.4980   35.7241 H         1 3EV428      0.0000 
     71 H          17.3714   15.4565   34.0360 H         1 3EV428      0.0000 
     72 H           4.9034   26.9941   34.6484 H         1 3EV428      0.0000 
@<TRIPOS>BOND
     1    2    1 1    
     2    3    1 1    
     3   13    1 1    
     4   31    1 1    
     5   70    2 1    
     6    5    3 1    
     7   32    3 1    
     8   33    3 1    
     9    5    4 1    
    10   71    4 1    
    11    7    5 1    
    12   34    5 1    
    13   28    6 1    
    14   72    6 1    
    15    8    7 1    
    16   35    7 1    
    17   36    7 1    
    18    9    8 2    
    19   13    8 1    
    20   10    9 1    
    21   37    9 1    
    22   11   10 2    
    23   38   10 1    
    24   12   11 1    
    25   17   11 1    
    26   14   12 1    
    27   39   12 1    
    28   40   12 1    
    29   22   13 2    
    30   15   14 1    
    31   41   14 1    
    32   42   14 1    
    33   16   15 1    
    34   43   15 1    
    35   44   15 1    
    36   17   16 1    
    37   20   16 1    
    38   21   16 1    
    39   18   17 1    
    40   45   17 1    
    41   19   18 1    
    42   46   18 1    
    43   47   18 1    
    44   20   19 1    
    45   48   19 1    
    46   49   19 1    
    47   23   20 1    
    48   50   20 1    
    49   58   21 1    
    50   59   21 1    
    51   60   21 1    
    52   24   23 1    
    53   25   23 1    
    54   51   23 1    
    55   61   24 1    
    56   62   24 1    
    57   63   24 1    
    58   26   25 1    
    59   52   25 1    
    60   53   25 1    
    61   27   26 1    
    62   54   26 1    
    63   55   26 1    
    64   28   27 1    
    65   56   27 1    
    66   57   27 1    
    67   29   28 1    
    68   30   28 1    
    69   64   29 1    
    70   65   29 1    
    71   66   29 1    
    72   67   30 1    
    73   68   30 1    
    74   69   30 1    
@<TRIPOS>SUBSTRUCTURE
     1 3EV428      1 GROUP   
@<TRIPOS>SET

