#    Name: 4jvg_B96_3_INTS_M
#    Modification time : Tue Mar 25 06:35:24 2014

@<TRIPOS>MOLECULE
4jvg_B96_3_INTS_M
  105     0     9     0     0
SMALL
NO_CHARGES


@<TRIPOS>ATOM
      1 N          35.5425    4.7465   81.6990 N.am      2 SEC2        0.0000 
      2 N          35.9940    4.0610   82.4360 N.am      8 SEL2        0.0000 
      3 N          35.0910    5.4320   80.9620 N.am      5 SEP2        0.0000 
      4 O          35.4840    3.1835   85.6155 O.2       1 ALC1        0.0000 
      5 O          36.4160    3.2450   84.5200 O.2       7 ALL1        0.0000 
      6 O          34.5520    3.1220   86.7110 O.2       4 ALP1        0.0000 
      7 CA         41.4735    1.1640   89.0290 C.3       3 GLC5        0.0000 
      8 CA         40.0150    1.7020   87.6010 C.3       9 GLL5        0.0000 
      9 CA         42.9320    0.6260   90.4570 C.3       6 GLP5        0.0000 
     10 CA         42.6600    1.9795   86.4650 C.3       3 GLC5        0.0000 
     11 CA         40.6030    2.5400   86.6750 C.3       9 GLL5        0.0000 
     12 CA         44.7170    1.4190   86.2550 C.3       6 GLP5        0.0000 
     13 O          34.4440    3.1495   85.1965 O.2       1 ALC1        0.0000 
     14 O          34.3360    3.1770   83.6820 O.2       7 ALL1        0.0000 
     15 CA         32.9925    2.4940   84.9215 C.3       3 GLC5        0.0000 
     16 CA         33.2960    3.3410   82.8890 C.3       9 GLL5        0.0000 
     17 CA         32.6890    1.6470   86.9540 C.3       6 GLP5        0.0000 
     18 CA         33.8145    0.9010   81.9235 C.3       3 GLC5        0.0000 
     19 CA         33.5360    2.8790   81.6470 C.3       9 GLL5        0.0000 
     20 CA         34.0930   -1.0770   82.2000 C.3       6 GLP5        0.0000 
     21 CA         34.7860    3.5155   80.3860 C.3       3 GLC5        0.0000 
     22 CA         36.0360    4.1520   79.1250 C.3       6 GLP5        0.0000 
     23 CA         30.1480    0.2925   80.6585 C.3       3 GLC5        0.0000 
     24 CA         31.7730    0.9380   79.4900 C.3       9 GLL5        0.0000 
     25 CA         28.5230   -0.3530   81.8270 C.3       6 GLP5        0.0000 
     26 CA         32.9330   -0.0695   80.8450 C.3       3 GLC5        0.0000 
     27 CA         31.0595    0.2060   77.7010 C.3       3 GLC5        0.0000 
     28 CA         30.3460   -0.5260   75.9120 C.3       6 GLP5        0.0000 
     29 CA         30.6230    2.4950   77.2355 C.3       3 GLC5        0.0000 
     30 CA         30.6160    3.1530   79.3610 C.3       9 GLL5        0.0000 
     31 CA         30.6300    1.8370   75.1100 C.3       6 GLP5        0.0000 
     32 CA         29.0120    2.0445   78.3990 C.3       3 GLC5        0.0000 
     33 CA         27.4080    0.9360   77.4370 C.3       6 GLP5        0.0000 
     34 CA         29.4145    4.3845   78.3695 C.3       3 GLC5        0.0000 
     35 CA         28.2130    5.6160   77.3780 C.3       6 GLP5        0.0000 
     36 CA         31.8175    2.3875   76.8920 C.3       3 GLC5        0.0000 
     37 CA         33.0050    2.9380   78.6740 C.3       9 GLL5        0.0000 
     38 CA         32.4185    4.4375   77.5395 C.3       3 GLC5        0.0000 
     39 CA         31.8320    5.9370   76.4050 C.3       6 GLP5        0.0000 
     40 CA         33.8935    3.5970   76.9120 C.3       3 GLC5        0.0000 
     41 CA         34.7820    4.2560   75.1500 C.3       6 GLP5        0.0000 
     42 CA         29.6040    4.6385   89.8195 C.3       3 GLC5        0.0000 
     43 CA         30.1210    5.1640   87.7200 C.3       9 GLL5        0.0000 
     44 CA         29.0870    4.1130   91.9190 C.3       6 GLP5        0.0000 
     45 CA         41.4910    6.3980   82.7030 C.3       3 GLC5        0.0000 
     46 CA         42.0840    5.2860   84.0160 C.3       9 GLL5        0.0000 
     47 CA         40.8980    7.5100   81.3900 C.3       6 GLP5        0.0000 
     48 CA         42.5065    6.1015   82.2320 C.3       3 GLC5        0.0000 
     49 CA         43.5660    5.6640   83.8960 C.3       9 GLL5        0.0000 
     50 CA         41.4470    6.5390   80.5680 C.3       6 GLP5        0.0000 
     51 CA         46.2080    0.8990   82.6915 C.3       3 GLC5        0.0000 
     52 CA         44.9660    2.4880   82.4440 C.3       9 GLL5        0.0000 
     53 CA         47.4500   -0.6900   82.9390 C.3       6 GLP5        0.0000 
     54 CA         45.8880    1.9480   80.6370 C.3       3 GLC5        0.0000 
     55 CA         46.8100    1.4080   78.8300 C.3       6 GLP5        0.0000 
     56 N          47.0675    1.8040   81.7995 N.am      2 SEC2        0.0000 
     57 N          46.3790    2.8310   82.5670 N.am      8 SEL2        0.0000 
     58 N          47.7560    0.7770   81.0320 N.am      5 SEP2        0.0000 
     59 CA         47.3145    2.6245   80.9345 C.3       3 GLC5        0.0000 
     60 CA         46.5570    4.1900   82.2320 C.3       9 GLL5        0.0000 
     61 CA         48.0720    1.0590   79.6370 C.3       6 GLP5        0.0000 
     62 CA         46.6765    4.7870   80.2550 C.3       3 GLC5        0.0000 
     63 CA         46.7960    5.3840   78.2780 C.3       6 GLP5        0.0000 
     64 CA         39.5670    1.1477   85.3628 C.3       3 GLC5        0.0000 
     65 CA         38.4800    2.8970   85.5640 C.3       9 GLL5        0.0000 
     66 CA         39.9620   -0.6930   85.1330 C.3       6 GLP5        0.0000 
     67 CA         40.9213    4.4902   87.0563 C.3       3 GLC5        0.0000 
     68 CA         39.8640    3.0800   85.6210 C.3       9 GLL5        0.0000 
     69 CA         41.6790    5.4160   88.8910 C.3       6 GLP5        0.0000 
     70 CA         37.3383    3.5938   87.1637 C.3       3 GLC5        0.0000 
     71 CA         36.6830    4.5520   88.5450 C.3       6 GLP5        0.0000 
     72 CA         37.4078    0.1640   87.8205 C.3       3 GLC5        0.0000 
     73 CA         37.8840    2.0510   86.4970 C.3       9 GLL5        0.0000 
     74 CA         36.5480   -1.4280   88.6390 C.3       6 GLP5        0.0000 
     75 CA         39.1148    0.5315   86.0675 C.3       3 GLC5        0.0000 
     76 CA         38.6510    1.4610   87.5070 C.3       9 GLL5        0.0000 
     77 CA         40.9940    3.7685   88.0145 C.3       3 GLC5        0.0000 
     78 CA         40.1355    0.7140   86.1355 C.3       3 GLC5        0.0000 
     79 CA         39.4915    2.7309   88.6628 C.3       3 GLC5        0.0000 
     80 CA         39.0150    3.4010   90.2110 C.3       6 GLP5        0.0000 
     81 CA         38.4540    6.3835   83.3932 C.3       3 GLC5        0.0000 
     82 CA         38.3990    4.2510   83.5930 C.3       9 GLL5        0.0000 
     83 CA         37.8360    8.3570   83.1160 C.3       6 GLP5        0.0000 
     84 CA         33.3925    4.8815   82.2645 C.3       3 GLC5        0.0000 
     85 CA         33.3690    6.6530   82.2610 C.3       6 GLP5        0.0000 
     86 CA         31.7542    2.4623   85.6692 C.3       3 GLC5        0.0000 
     87 CA         31.4620    3.4240   84.1620 C.3       9 GLL5        0.0000 
     88 CA         34.2525    3.4223   79.1442 C.3       3 GLC5        0.0000 
     89 CA         31.9330    2.4470   79.6530 C.3       9 GLL5        0.0000 
     90 CA         29.1822    1.7308   84.7505 C.3       3 GLC5        0.0000 
     91 CA         30.1770    3.1310   84.6070 C.3       9 GLL5        0.0000 
     92 CA         28.4010    0.0320   84.2970 C.3       6 GLP5        0.0000 
     93 CA         32.3780    3.1018   86.2362 C.3       3 GLC5        0.0000 
     94 CA         31.8490    4.8650   86.0980 C.3       9 GLL5        0.0000 
     95 CA         32.6151    5.5018   83.7926 C.3       3 GLC5        0.0000 
     96 CA         30.8311    3.0644   87.4247 C.3       3 GLC5        0.0000 
     97 CA         29.7500    3.7280   85.8010 C.3       9 GLL5        0.0000 
     98 CA         31.5220    1.4680   87.9040 C.3       6 GLP5        0.0000 
     99 CA         44.6355    2.1725   84.5847 C.3       3 GLC5        0.0000 
    100 CA         44.1420    3.3640   83.3850 C.3       9 GLL5        0.0000 
    101 CA         47.1975    4.0600   84.0770 C.3       3 GLC5        0.0000 
    102 CA         45.7530    5.1020   83.1440 C.3       9 GLL5        0.0000 
    103 CA         48.2400    3.4740   85.4660 C.3       6 GLP5        0.0000 
    104 CA         39.8203    2.7239   83.0162 C.3       3 GLC5        0.0000 
    105 CA         40.1070    1.5490   81.4640 C.3       6 GLP5        0.0000 
@<TRIPOS>BOND
@<TRIPOS>SUBSTRUCTURE
     1 ALC1        4 GROUP        1 X    ALC  0     ROOT ALC X 1
     2 SEC2        1 GROUP        1 X    SEC  0     **** SEC X 2
     3 GLC5        7 GROUP        1 X    GLC  0     **** GLC X 6
     4 ALP1        6 GROUP        1 Y    ALP  0     ROOT ALP Y 8
     5 SEP2        3 GROUP        1 Y    SEP  0     **** SEP Y 9
     6 GLP5        9 GROUP        1 Y    GLP  0     **** GLP Y 13
     7 ALL1        5 GROUP        1 Z    ALL  0     ROOT ALL Z 15
     8 SEL2        2 GROUP        1 Z    SEL  0     **** SEL Z 16
     9 GLL5        8 GROUP        1 Z    GLL  0     **** GLL Z 20
@<TRIPOS>SET

