#    Name: 4jvg_B96_3_ligand
#    Modification time : Tue Mar 25 06:35:24 2014

@<TRIPOS>MOLECULE
4jvg_B96_3_ligand
   77    81     1     0     0
SMALL
NO_CHARGES


@<TRIPOS>ATOM
      1 C1         35.5950    3.5880   83.4970 C.2       1 B96801      0.0000 
      2 O1         35.9940    4.0610   82.4360 O.2       1 B96801      0.0000 
      3 N2         36.4160    3.2450   84.5200 N.am      1 B96801      0.0000 
      4 C3         37.7260    3.5430   84.5720 C.ar      1 B96801      0.0000 
      5 C4         38.4800    2.8970   85.5640 C.ar      1 B96801      0.0000 
      6 C5         39.8640    3.0800   85.6210 C.ar      1 B96801      0.0000 
      7 C6         40.4630    4.0490   84.8220 C.ar      1 B96801      0.0000 
      8 C31        37.8840    2.0510   86.4970 C.ar      1 B96801      0.0000 
      9 C32        38.6510    1.4610   87.5070 C.ar      1 B96801      0.0000 
     10 C33        40.0150    1.7020   87.6010 C.ar      1 B96801      0.0000 
     11 C34        40.6030    2.5400   86.6750 C.ar      1 B96801      0.0000 
     12 C7         39.7450    4.5690   83.7480 C.ar      1 B96801      0.0000 
     13 C8         38.3990    4.2510   83.5930 C.ar      1 B96801      0.0000 
     14 N9         34.3360    3.1770   83.6820 N.am      1 B96801      0.0000 
     15 C10        33.2960    3.3410   82.8890 C.2       1 B96801      0.0000 
     16 C14        33.5360    2.8790   81.6470 C.2       1 B96801      0.0000 
     17 C13        32.3260    2.7480   81.1040 C.2       1 B96801      0.0000 
     18 N12        31.4450    2.9340   82.0620 N.2       1 B96801      0.0000 
     19 N11        32.0470    2.9610   83.0630 N.pl3     1 B96801      0.0000 
     20 C15        31.4620    3.4240   84.1620 C.ar      1 B96801      0.0000 
     21 C17        31.7730    0.9380   79.4900 C.3       1 B96801      0.0000 
     22 C18        30.6160    3.1530   79.3610 C.3       1 B96801      0.0000 
     23 C19        33.0050    2.9380   78.6740 C.3       1 B96801      0.0000 
     24 C16        31.9330    2.4470   79.6530 C.3       1 B96801      0.0000 
     25 C20        30.1770    3.1310   84.6070 C.ar      1 B96801      0.0000 
     26 C21        29.7500    3.7280   85.8010 C.ar      1 B96801      0.0000 
     27 C22        30.5690    4.5870   86.5410 C.ar      1 B96801      0.0000 
     28 C23        31.8490    4.8650   86.0980 C.ar      1 B96801      0.0000 
     29 C24        32.2850    4.2480   84.9390 C.ar      1 B96801      0.0000 
     30 C25        30.1210    5.1640   87.7200 C.3       1 B96801      0.0000 
     31 O41        41.8270    4.1990   84.8780 O.3       1 B96801      0.0000 
     32 C42        42.0840    5.2860   84.0160 C.3       1 B96801      0.0000 
     33 C43        43.5660    5.6640   83.8960 C.3       1 B96801      0.0000 
     34 N44        44.3310    4.7670   83.0360 N.4       1 B96801      0.0000 
     35 C45        44.1420    3.3640   83.3850 C.3       1 B96801      0.0000 
     36 C46        44.9660    2.4880   82.4440 C.3       1 B96801      0.0000 
     37 O47        46.3790    2.8310   82.5670 O.3       1 B96801      0.0000 
     38 C48        46.5570    4.1900   82.2320 C.3       1 B96801      0.0000 
     39 C49        45.7530    5.1020   83.1440 C.3       1 B96801      0.0000 
     40 H          35.9887    2.7012   85.3379 H         1 B96801      0.0000 
     41 H          36.8748    1.8578   86.4448 H         1 B96801      0.0000 
     42 H          38.1912    0.8370   88.1914 H         1 B96801      0.0000 
     43 H          40.5680    1.2671   88.3403 H         1 B96801      0.0000 
     44 H          41.6088    2.7761   86.7577 H         1 B96801      0.0000 
     45 H          40.2089    5.1868   83.0708 H         1 B96801      0.0000 
     46 H          37.9015    4.5483   82.7374 H         1 B96801      0.0000 
     47 H          34.1504    2.6288   84.6253 H         1 B96801      0.0000 
     48 H          34.3754    2.6928   81.2572 H         1 B96801      0.0000 
     49 H          29.5693    2.5105   84.0914 H         1 B96801      0.0000 
     50 H          28.7897    3.5242   86.1481 H         1 B96801      0.0000 
     51 H          32.4529    5.5046   86.6092 H         1 B96801      0.0000 
     52 H          33.2726    4.3997   84.6233 H         1 B96801      0.0000 
     53 H          41.5410    6.2074   84.3406 H         1 B96801      0.0000 
     54 H          41.7167    5.0864   82.9795 H         1 B96801      0.0000 
     55 H          43.9925    5.6832   84.9186 H         1 B96801      0.0000 
     56 H          43.6186    6.7051   83.5201 H         1 B96801      0.0000 
     57 H          44.0250    4.9222   81.9963 H         1 B96801      0.0000 
     58 H          43.0936    3.0744   83.2922 H         1 B96801      0.0000 
     59 H          44.4668    3.1671   84.4084 H         1 B96801      0.0000 
     60 H          44.6106    2.6512   81.4247 H         1 B96801      0.0000 
     61 H          44.7921    1.4431   82.7083 H         1 B96801      0.0000 
     62 H          46.2446    4.4017   81.1913 H         1 B96801      0.0000 
     63 H          47.6180    4.4968   82.3069 H         1 B96801      0.0000 
     64 H          46.1057    4.9687   84.1676 H         1 B96801      0.0000 
     65 H          45.9310    6.1362   82.8461 H         1 B96801      0.0000 
     66 H          32.6191    0.4496   79.7036 H         1 B96801      0.0000 
     67 H          31.0635    0.5725   80.0925 H         1 B96801      0.0000 
     68 H          31.5196    0.6903   78.5549 H         1 B96801      0.0000 
     69 H          30.6917    4.1433   79.4773 H         1 B96801      0.0000 
     70 H          30.3074    2.9907   78.4238 H         1 B96801      0.0000 
     71 H          29.8851    2.8416   79.9683 H         1 B96801      0.0000 
     72 H          33.8883    2.4994   78.8398 H         1 B96801      0.0000 
     73 H          32.7564    2.7467   77.7245 H         1 B96801      0.0000 
     74 H          33.1497    3.9249   78.7460 H         1 B96801      0.0000 
     75 H          30.8173    5.7497   88.1349 H         1 B96801      0.0000 
     76 H          29.3112    5.7316   87.5714 H         1 B96801      0.0000 
     77 H          29.8746    4.4743   88.4008 H         1 B96801      0.0000 
@<TRIPOS>BOND
     1    2    1 2    
     2    3    1 am   
     3   14    1 am   
     4    4    3 1    
     5   40    3 1    
     6    5    4 ar   
     7   13    4 ar   
     8    6    5 ar   
     9    8    5 ar   
    10    7    6 ar   
    11   11    6 ar   
    12   12    7 ar   
    13   31    7 1    
    14    9    8 ar   
    15   41    8 1    
    16   10    9 ar   
    17   42    9 1    
    18   11   10 ar   
    19   43   10 1    
    20   44   11 1    
    21   13   12 ar   
    22   45   12 1    
    23   46   13 1    
    24   15   14 1    
    25   47   14 1    
    26   16   15 2    
    27   19   15 1    
    28   17   16 1    
    29   48   16 1    
    30   18   17 2    
    31   24   17 1    
    32   19   18 1    
    33   20   19 1    
    34   25   20 ar   
    35   29   20 ar   
    36   24   21 1    
    37   66   21 1    
    38   67   21 1    
    39   68   21 1    
    40   24   22 1    
    41   69   22 1    
    42   70   22 1    
    43   71   22 1    
    44   24   23 1    
    45   72   23 1    
    46   73   23 1    
    47   74   23 1    
    48   26   25 ar   
    49   49   25 1    
    50   27   26 ar   
    51   50   26 1    
    52   28   27 ar   
    53   30   27 1    
    54   29   28 ar   
    55   51   28 1    
    56   52   29 1    
    57   75   30 1    
    58   76   30 1    
    59   77   30 1    
    60   32   31 1    
    61   33   32 1    
    62   53   32 1    
    63   54   32 1    
    64   34   33 1    
    65   55   33 1    
    66   56   33 1    
    67   35   34 1    
    68   39   34 1    
    69   57   34 1    
    70   36   35 1    
    71   58   35 1    
    72   59   35 1    
    73   37   36 1    
    74   60   36 1    
    75   61   36 1    
    76   38   37 1    
    77   39   38 1    
    78   62   38 1    
    79   63   38 1    
    80   64   39 1    
    81   65   39 1    
@<TRIPOS>SUBSTRUCTURE
     1 B96801      1 GROUP   
@<TRIPOS>SET

