#    Name: 1w88_TDP_2_INTS_M
#    Modification time : Tue Mar 25 08:48:22 2014

@<TRIPOS>MOLECULE
1w88_TDP_2_INTS_M
   83     0    15     0     0
SMALL
NO_CHARGES


@<TRIPOS>ATOM
      1 CA         40.0930   49.9455  108.7480 C.3       5 GLC5        0.0000 
      2 CA         38.6030   51.1920  107.8100 C.3      15 GLL5        0.0000 
      3 CA         41.5830   48.6990  109.6860 C.3      10 GLP5        0.0000 
      4 CA         36.9125   51.2325  106.4975 C.3       5 GLC5        0.0000 
      5 CA         39.1050   50.8790  106.4190 C.3      15 GLL5        0.0000 
      6 CA         34.7200   51.5860  106.5760 C.3      10 GLP5        0.0000 
      7 CA         38.8700   52.2355  104.7560 C.3       5 GLC5        0.0000 
      8 CA         38.6350   53.5920  103.0930 C.3      10 GLP5        0.0000 
      9 N          39.4360   53.3780  107.2090 N.am      2 SEC2        0.0000 
     10 N          38.3200   52.4700  108.1320 N.am     12 SEL2        0.0000 
     11 N          40.5520   54.2860  106.2860 N.am      7 SEP2        0.0000 
     12 O          37.9125   55.1070  108.6270 O.2       1 ALC1        0.0000 
     13 O          37.5720   54.1330  109.6490 O.2      11 ALL1        0.0000 
     14 O          38.2530   56.0810  107.6050 O.2       6 ALP1        0.0000 
     15 CA         39.7940   49.5575  109.8185 C.3       5 GLC5        0.0000 
     16 CA         38.0050   50.4160  109.9510 C.3      15 GLL5        0.0000 
     17 CA         35.8865   51.4100  110.5200 C.3       5 GLC5        0.0000 
     18 CA         37.1850   51.9900  111.7780 C.3      15 GLL5        0.0000 
     19 CA         34.5880   50.8300  109.2620 C.3      10 GLP5        0.0000 
     20 CA         39.1380   52.6820  111.1200 C.3       5 GLC5        0.0000 
     21 CA         41.0910   53.3740  110.4620 C.3      10 GLP5        0.0000 
     22 CA         41.0055   49.8680  112.4060 C.3       5 GLC5        0.0000 
     23 CA         39.3990   50.1240  112.9990 C.3      15 GLL5        0.0000 
     24 CA         42.6120   49.6120  111.8130 C.3      10 GLP5        0.0000 
     25 CA         40.2450   51.7490  111.7305 C.3       5 GLC5        0.0000 
     26 CA         40.4530   51.6900  116.0350 C.3       5 GLC5        0.0000 
     27 CA         41.5170   52.1410  114.7060 C.3      15 GLL5        0.0000 
     28 CA         39.3890   51.2390  117.3640 C.3      10 GLP5        0.0000 
     29 CA         42.1360   54.7505  113.2735 C.3       5 GLC5        0.0000 
     30 CA         42.6740   52.6570  113.8390 C.3      15 GLL5        0.0000 
     31 CA         41.5980   56.8440  112.7080 C.3      10 GLP5        0.0000 
     32 Zn         46.7510   52.9415  115.8150 Zn        4 ZIC7        0.0000 
     33 Zn         46.3250   52.5130  114.7810 Zn       14 ZIL7        0.0000 
     34 Zn         47.1770   53.3700  116.8490 Zn        9 ZIP7        0.0000 
     35 N          46.9525   51.4870  113.9585 N.am      2 SEC2        0.0000 
     36 N          46.3250   52.5130  114.7810 N.am     12 SEL2        0.0000 
     37 N          47.5800   50.4610  113.1360 N.am      7 SEP2        0.0000 
     38 N          45.8850   51.8025  111.5185 N.am      2 SEC2        0.0000 
     39 N          45.3790   52.7720  112.5340 N.am     12 SEL2        0.0000 
     40 N          46.3910   50.8330  110.5030 N.am      7 SEP2        0.0000 
     41 NZ         45.2020   55.3355  117.8240 N.4       3 LYC4        0.0000 
     42 NZ         45.3370   54.6530  116.6640 N.4      13 LYL4        0.0000 
     43 NZ         45.7440   57.1570  119.0620 N.4       8 LYP4        0.0000 
     44 Zn         46.2570   54.0115  116.7565 Zn        4 ZIC7        0.0000 
     45 Zn         45.3370   54.6530  116.6640 Zn       14 ZIL7        0.0000 
     46 N          46.0130   56.0360  117.4120 N.am      2 SEC2        0.0000 
     47 N          45.3370   54.6530  116.6640 N.am     12 SEL2        0.0000 
     48 N          46.6890   57.4190  118.1600 N.am      7 SEP2        0.0000 
     49 N          45.2020   55.3355  117.8240 N.am      2 SEC2        0.0000 
     50 N          45.0670   56.0180  118.9840 N.am      7 SEP2        0.0000 
     51 NZ         42.8890   56.6905  116.4490 N.4       3 LYC4        0.0000 
     52 NZ         43.5120   55.7930  115.5440 N.4      13 LYL4        0.0000 
     53 NZ         42.9040   58.7490  117.4460 N.4       8 LYP4        0.0000 
     54 N          42.8590   55.7710  114.4165 N.am      2 SEC2        0.0000 
     55 N          43.5120   55.7930  115.5440 N.am     12 SEL2        0.0000 
     56 N          42.2060   55.7490  113.2890 N.am      7 SEP2        0.0000 
     57 N          43.6875   57.4195  116.0525 N.am      2 SEC2        0.0000 
     58 N          43.8630   59.0460  116.5610 N.am      7 SEP2        0.0000 
     59 N          42.8890   56.6905  116.4490 N.am      2 SEC2        0.0000 
     60 N          42.2660   57.5880  117.3540 N.am      7 SEP2        0.0000 
     61 NZ         46.2370   57.0875  116.7770 N.4       3 LYC4        0.0000 
     62 NZ         45.7850   56.7560  115.3940 N.4      13 LYL4        0.0000 
     63 N          44.8240   57.9010  115.9775 N.am      2 SEC2        0.0000 
     64 N          45.7850   56.7560  115.3940 N.am     12 SEL2        0.0000 
     65 N          46.2370   57.0875  116.7770 N.am      2 SEC2        0.0000 
     66 N          47.0075   56.0905  115.7080 N.am      2 SEC2        0.0000 
     67 N          48.2300   55.4250  116.0220 N.am      7 SEP2        0.0000 
     68 CA         40.4080   52.1073  107.5657 C.3       5 GLC5        0.0000 
     69 CA         41.9620   53.1790  108.0170 C.3      10 GLP5        0.0000 
     70 CA         39.4909   52.3546  110.1834 C.3       5 GLC5        0.0000 
     71 CA         37.8660   52.7960  109.3520 C.3      15 GLL5        0.0000 
     72 CA         39.7160   52.2492  115.6450 C.3       5 GLC5        0.0000 
     73 CA         39.8390   54.0750  113.9190 C.3      15 GLL5        0.0000 
     74 CA         41.1880   50.8235  112.6760 C.3       5 GLC5        0.0000 
     75 CA         40.2470   52.4440  113.9330 C.3      15 GLL5        0.0000 
     76 CA         38.7385   50.8555  114.8240 C.3       5 GLC5        0.0000 
     77 CA         39.2810   51.6260  113.1450 C.3      15 GLL5        0.0000 
     78 CA         38.1370   50.8360  116.5760 C.3      10 GLP5        0.0000 
     79 CA         42.3538   51.0055  113.0427 C.3       5 GLC5        0.0000 
     80 CA         41.5932   52.8865  112.3672 C.3       5 GLC5        0.0000 
     81 CA         43.2267   51.0175  115.0597 C.3       5 GLC5        0.0000 
     82 CA         44.3580   49.6360  115.8470 C.3      10 GLP5        0.0000 
     83 CA         40.2762   53.1724  111.9739 C.3       5 GLC5        0.0000 
@<TRIPOS>BOND
@<TRIPOS>SUBSTRUCTURE
     1 ALC1       12 GROUP        1 X    ALC  0     ROOT ALC X 1
     2 SEC2        9 GROUP        1 X    SEC  0     **** SEC X 2
     3 LYC4       41 GROUP        1 X    LYC  0     **** LYC X 4
     4 ZIC7       32 GROUP        1 X    ZIC  0     **** ZIC X 5
     5 GLC5        1 GROUP        1 X    GLC  0     **** GLC X 6
     6 ALP1       14 GROUP        1 Y    ALP  0     ROOT ALP Y 8
     7 SEP2       11 GROUP        1 Y    SEP  0     **** SEP Y 9
     8 LYP4       43 GROUP        1 Y    LYP  0     **** LYP Y 11
     9 ZIP7       34 GROUP        1 Y    ZIP  0     **** ZIP Y 12
    10 GLP5        3 GROUP        1 Y    GLP  0     **** GLP Y 13
    11 ALL1       13 GROUP        1 Z    ALL  0     ROOT ALL Z 15
    12 SEL2       10 GROUP        1 Z    SEL  0     **** SEL Z 16
    13 LYL4       42 GROUP        1 Z    LYL  0     **** LYL Z 18
    14 ZIL7       33 GROUP        1 Z    ZIL  0     **** ZIL Z 19
    15 GLL5        2 GROUP        1 Z    GLL  0     **** GLL Z 20
@<TRIPOS>SET

