#    Name: 1w88_TDP_2_ligand
#    Modification time : Tue Mar 25 08:48:22 2014

@<TRIPOS>MOLECULE
1w88_TDP_2_ligand
   42    43     1     0     0
SMALL
NO_CHARGES


@<TRIPOS>ATOM
      1 N1'        38.4540   50.1940  108.7020 N.ar      1 TDP1370     0.0000 
      2 C2'        38.6030   51.1920  107.8100 C.ar      1 TDP1370     0.0000 
      3 C2A        39.1050   50.8790  106.4190 C.3       1 TDP1370     0.0000 
      4 N3'        38.3200   52.4700  108.1320 N.ar      1 TDP1370     0.0000 
      5 C4'        37.8660   52.7960  109.3520 C.ar      1 TDP1370     0.0000 
      6 N4'        37.5720   54.1330  109.6490 N.pl3     1 TDP1370     0.0000 
      7 C5'        37.6870   51.7130  110.3650 C.ar      1 TDP1370     0.0000 
      8 C6'        38.0050   50.4160  109.9510 C.ar      1 TDP1370     0.0000 
      9 C35        37.1850   51.9900  111.7780 C.3       1 TDP1370     0.0000 
     10 N3         38.3100   52.4340  112.6200 N.pl3     1 TDP1370     0.0000 
     11 C2         38.4790   53.7380  112.9460 C.2       1 TDP1370     0.0000 
     12 S1         39.8390   54.0750  113.9190 S.3       1 TDP1370     0.0000 
     13 C5         40.2470   52.4440  113.9330 C.2       1 TDP1370     0.0000 
     14 C4         39.2810   51.6260  113.1450 C.2       1 TDP1370     0.0000 
     15 C4A        39.3990   50.1240  112.9990 C.3       1 TDP1370     0.0000 
     16 C5A        41.5170   52.1410  114.7060 C.3       1 TDP1370     0.0000 
     17 C5B        42.6740   52.6570  113.8390 C.3       1 TDP1370     0.0000 
     18 O5G        43.9090   52.6120  114.5400 O.3       1 TDP1370     0.0000 
     19 P1         45.2170   53.1560  113.9880 P.3       1 TDP1370     0.0000 
     20 O11        45.2680   54.6760  114.1340 O.3       1 TDP1370     0.0000 
     21 O12        46.3250   52.5130  114.7810 O.co2     1 TDP1370     0.0000 
     22 O13        45.3790   52.7720  112.5340 O.co2     1 TDP1370     0.0000 
     23 P2         44.9800   55.4620  115.4290 P.3       1 TDP1370     0.0000 
     24 O21        45.3370   54.6530  116.6640 O.co2     1 TDP1370     0.0000 
     25 O22        43.5120   55.7930  115.5440 O.co2     1 TDP1370     0.0000 
     26 O23        45.7850   56.7560  115.3940 O.co2     1 TDP1370     0.0000 
     27 H          37.2343   54.3146  110.5726 H         1 TDP1370     0.0000 
     28 H          37.7250   54.7914  108.9120 H         1 TDP1370     0.0000 
     29 H          37.8864   49.6384  110.6260 H         1 TDP1370     0.0000 
     30 H          36.7445   51.0763  112.1756 H         1 TDP1370     0.0000 
     31 H          36.4149   52.7591  111.7286 H         1 TDP1370     0.0000 
     32 H          37.9766   54.5267  112.7350 H         1 TDP1370     0.0000 
     33 H          41.6203   51.0854  114.8421 H         1 TDP1370     0.0000 
     34 H          41.5125   52.6648  115.6383 H         1 TDP1370     0.0000 
     35 H          42.4165   53.6833  113.5257 H         1 TDP1370     0.0000 
     36 H          42.6983   52.0406  112.9240 H         1 TDP1370     0.0000 
     37 H          40.0134   50.4613  106.4372 H         1 TDP1370     0.0000 
     38 H          38.4996   50.2433  105.9400 H         1 TDP1370     0.0000 
     39 H          39.1720   51.7017  105.8545 H         1 TDP1370     0.0000 
     40 H          39.4835   49.8495  112.0411 H         1 TDP1370     0.0000 
     41 H          40.2004   49.7661  113.4782 H         1 TDP1370     0.0000 
     42 H          38.6000   49.6509  113.3702 H         1 TDP1370     0.0000 
@<TRIPOS>BOND
     1    2    1 ar   
     2    8    1 ar   
     3    3    2 1    
     4    4    2 ar   
     5   37    3 1    
     6   38    3 1    
     7   39    3 1    
     8    5    4 ar   
     9    6    5 1    
    10    7    5 ar   
    11   27    6 1    
    12   28    6 1    
    13    8    7 ar   
    14    9    7 1    
    15   29    8 1    
    16   10    9 1    
    17   30    9 1    
    18   31    9 1    
    19   11   10 2    
    20   14   10 1    
    21   12   11 1    
    22   32   11 1    
    23   13   12 1    
    24   14   13 2    
    25   16   13 1    
    26   15   14 1    
    27   40   15 1    
    28   41   15 1    
    29   42   15 1    
    30   17   16 1    
    31   33   16 1    
    32   34   16 1    
    33   18   17 1    
    34   35   17 1    
    35   36   17 1    
    36   19   18 1    
    37   20   19 1    
    38   21   19 ar   
    39   22   19 ar   
    40   23   20 1    
    41   24   23 ar   
    42   25   23 ar   
    43   26   23 ar   
@<TRIPOS>SUBSTRUCTURE
     1 TDP1370     1 GROUP   
@<TRIPOS>SET

