#    Name: 2QL5_2_CAVITY_N1_ALL.mol2
#    Modification time : Tue Mar 11 08:20:32 2014

@<TRIPOS>MOLECULE
2QL5_2_CAVITY_N1_ALL.mol2
   65     0     4     0     0
SMALL
NO_CHARGES


@<TRIPOS>ATOM
      1 CZ         55.3457  -62.1681   25.1420 C.ar      2 PHE5        0.0000 
      2 CZ         56.0666  -60.1941   25.4305 C.ar      2 PHE5        0.0000 
      3 CZ         53.9801  -60.5759   25.4582 C.ar      2 PHE5        0.0000 
      4 CZ         55.0942  -60.8412   24.4894 C.ar      2 PHE5        0.0000 
      5 CZ         54.1217  -61.4883   23.5483 C.ar      2 PHE5        0.0000 
      6 CZ         56.7875  -58.2200   25.7190 C.ar      2 PHE5        0.0000 
      7 CZ         54.7010  -58.6018   25.7467 C.ar      2 PHE5        0.0000 
      8 CZ         55.8151  -58.8671   24.7779 C.ar      2 PHE5        0.0000 
      9 DU         56.9291  -59.1323   23.8092 H         4 CUB7        0.0000 
     10 CZ         53.7286  -59.2489   24.8056 C.ar      2 PHE5        0.0000 
     11 DU         54.8427  -59.5142   23.8368 H         4 CUB7        0.0000 
     12 CZ         53.8702  -60.1613   22.8957 C.ar      2 PHE5        0.0000 
     13 DU         54.9843  -60.4265   21.9270 H         4 CUB7        0.0000 
     14 DU         56.0984  -60.6918   20.9582 H         4 CUB7        0.0000 
     15 CZ         52.8978  -60.8084   21.9546 C.ar      2 PHE5        0.0000 
     16 DU         54.0119  -61.0736   20.9859 H         4 CUB7        0.0000 
     17 CZ         51.9254  -61.4555   21.0135 C.ar      2 PHE5        0.0000 
     18 N          53.0395  -61.7207   20.0448 N.2       1 ALA2        0.0000 
     19 N          54.1535  -61.9860   19.0760 N.2       1 ALA2        0.0000 
     20 CZ         57.6501  -57.1582   24.0977 C.ar      2 PHE5        0.0000 
     21 DU         58.7641  -57.4235   23.1289 H         4 CUB7        0.0000 
     22 CZ         54.4495  -57.2748   25.0941 C.ar      2 PHE5        0.0000 
     23 CZ         55.5636  -57.5401   24.1253 C.ar      2 PHE5        0.0000 
     24 DU         56.6776  -57.8053   23.1566 H         4 CUB7        0.0000 
     25 DU         57.7917  -58.0706   22.1878 H         4 CUB7        0.0000 
     26 DU         58.9058  -58.3359   21.2191 H         4 CUB7        0.0000 
     27 CZ         53.4771  -57.9219   24.1530 C.ar      2 PHE5        0.0000 
     28 DU         54.5912  -58.1872   23.1843 H         4 CUB7        0.0000 
     29 DU         55.7052  -58.4524   22.2155 H         4 CUB7        0.0000 
     30 O          56.8193  -58.7177   21.2467 O.2       1 ALA2        0.0000 
     31 O          57.9334  -58.9830   20.2780 O.2       1 ALA2        0.0000 
     32 CZ         52.5047  -58.5690   23.2119 C.ar      2 PHE5        0.0000 
     33 CZ         53.6187  -58.8343   22.2432 C.ar      2 PHE5        0.0000 
     34 DU         54.7328  -59.0995   21.2744 H         4 CUB7        0.0000 
     35 O          55.8469  -59.3648   20.3056 O.2       1 ALA2        0.0000 
     36 CZ         52.6463  -59.4814   21.3021 C.ar      2 PHE5        0.0000 
     37 N          53.7604  -59.7466   20.3333 N.2       1 ALA2        0.0000 
     38 N          54.8745  -60.0119   19.3645 N.2       1 ALA2        0.0000 
     39 O          55.9885  -60.2772   18.3958 O.2       1 ALA2        0.0000 
     40 CZ         51.6739  -60.1285   20.3610 C.ar      2 PHE5        0.0000 
     41 CZ         57.3986  -55.8312   23.4451 C.ar      2 PHE5        0.0000 
     42 O          58.5126  -56.0965   22.4764 O.2       1 ALA2        0.0000 
     43 CZ         55.3121  -56.2131   23.4728 C.ar      2 PHE5        0.0000 
     44 CA         56.4261  -56.4783   22.5040 C.3       3 GLY6        0.0000 
     45 O          57.5402  -56.7436   21.5353 O.2       1 ALA2        0.0000 
     46 N          53.2256  -56.5949   23.5004 N.2       1 ALA2        0.0000 
     47 N          54.3397  -56.8602   22.5317 N.2       1 ALA2        0.0000 
     48 N          55.4537  -57.1254   21.5629 N.2       1 ALA2        0.0000 
     49 O          56.5678  -57.3907   20.5942 O.2       1 ALA2        0.0000 
     50 N          52.2532  -57.2420   22.5593 N.2       1 ALA2        0.0000 
     51 N          53.3672  -57.5073   21.5906 N.2       1 ALA2        0.0000 
     52 N          54.4813  -57.7725   20.6218 N.2       1 ALA2        0.0000 
     53 O          55.5954  -58.0378   19.6531 O.2       1 ALA2        0.0000 
     54 O          52.3948  -58.1544   20.6495 O.2       1 ALA2        0.0000 
     55 O          53.5089  -58.4197   19.6807 O.2       1 ALA2        0.0000 
     56 O          54.6230  -58.6849   18.7120 O.2       1 ALA2        0.0000 
     57 O          57.2887  -55.4166   20.8827 O.2       1 ALA2        0.0000 
     58 N          55.2022  -55.7985   20.9104 N.2       1 ALA2        0.0000 
     59 O          56.3163  -56.0637   19.9416 O.2       1 ALA2        0.0000 
     60 N          54.2298  -56.4456   19.9693 N.2       1 ALA2        0.0000 
     61 O          53.2574  -57.0927   19.0282 O.2       1 ALA2        0.0000 
     62 O          57.0372  -54.0896   20.2301 O.2       1 ALA2        0.0000 
     63 O          56.0648  -54.7367   19.2890 O.2       1 ALA2        0.0000 
     64 O          57.1789  -55.0020   18.3203 O.2       1 ALA2        0.0000 
     65 O          55.0924  -55.3838   18.3479 O.2       1 ALA2        0.0000 
@<TRIPOS>BOND
@<TRIPOS>SUBSTRUCTURE
     1 ALA2       18 GROUP   
     2 PHE5        1 GROUP   
     3 GLY6       44 GROUP   
     4 CUB7        9 GROUP   
@<TRIPOS>SET

