#    Name: 2ql5_ASP_MET_GLN_ACE_ASA_2_INTS_M
#    Modification time : Mon Mar 24 22:25:18 2014

@<TRIPOS>MOLECULE
2ql5_ASP_MET_GLN_ACE_ASA_2_INTS_M
   70     0    12     0     0
SMALL
NO_CHARGES


@<TRIPOS>ATOM
      1 O          49.8975  -65.3930   20.7720 O.2       1 ALC1        0.0000 
      2 O          50.6300  -64.5960   19.7090 O.2       9 ALL1        0.0000 
      3 O          49.1650  -66.1900   21.8350 O.2       5 ALP1        0.0000 
      4 CA         51.8315  -63.2230   17.4355 C.3       4 GLC5        0.0000 
      5 CA         50.9150  -63.1880   19.3410 C.3      12 GLL5        0.0000 
      6 CA         52.7480  -63.2580   15.5300 C.3       8 GLP5        0.0000 
      7 CA         49.8685  -61.1885   21.1445 C.3       4 GLC5        0.0000 
      8 CA         49.7150  -62.5770   19.8900 C.3      12 GLL5        0.0000 
      9 CA         50.0220  -59.8000   22.3990 C.3       8 GLP5        0.0000 
     10 CA         48.3865  -62.1805   21.5980 C.3       4 GLC5        0.0000 
     11 CA         47.0580  -61.7840   23.3060 C.3       8 GLP5        0.0000 
     12 N          47.0795  -63.8720   20.8940 N.am      2 SEC2        0.0000 
     13 N          47.3980  -63.0140   19.5190 N.am     10 SEL2        0.0000 
     14 N          46.7610  -64.7300   22.2690 N.am      6 SEP2        0.0000 
     15 O          52.3535  -60.9510   18.4475 O.2       1 ALC1        0.0000 
     16 O          52.7060  -61.5430   19.7120 O.2       9 ALL1        0.0000 
     17 O          52.0010  -60.3590   17.1830 O.2       5 ALP1        0.0000 
     18 N          51.8730  -58.3170   19.2435 N.am      2 SEC2        0.0000 
     19 N          52.7340  -58.8680   20.3320 N.am     10 SEL2        0.0000 
     20 N          51.0120  -57.7660   18.1550 N.am      6 SEP2        0.0000 
     21 CA         55.6785  -62.7565   16.3015 C.3       4 GLC5        0.0000 
     22 CA         57.1540  -61.8610   17.2060 C.3      12 GLL5        0.0000 
     23 CA         54.2030  -63.6520   15.3970 C.3       8 GLP5        0.0000 
     24 CA         54.6770  -56.1690   24.7080 C.3       4 GLC5        0.0000 
     25 CA         54.6930  -57.5040   23.4350 C.3      12 GLL5        0.0000 
     26 CA         54.6610  -54.8340   25.9810 C.3       8 GLP5        0.0000 
     27 CA         53.5440  -56.7400   25.2840 C.3       4 GLC5        0.0000 
     28 CA         53.7470  -58.4340   24.1850 C.3      12 GLL5        0.0000 
     29 CA         53.3410  -55.0460   26.3830 C.3       8 GLP5        0.0000 
     30 CA         51.9740  -59.3905   24.4770 C.3       4 GLC5        0.0000 
     31 CA         50.2010  -60.3470   24.7690 C.3       8 GLP5        0.0000 
     32 CA         53.7580  -59.3035   26.2020 C.3       4 GLC5        0.0000 
     33 CA         53.7690  -60.1730   28.2190 C.3       8 GLP5        0.0000 
     34 CA         52.6455  -64.2210   16.8450 C.3       4 GLC5        0.0000 
     35 CA         52.5430  -65.1840   18.1600 C.3      12 GLL5        0.0000 
     36 N          58.0990  -51.2060   20.8035 N.am      2 SEC2        0.0000 
     37 N          57.2680  -52.4270   20.9640 N.am     10 SEL2        0.0000 
     38 N          58.9300  -49.9850   20.6430 N.am      6 SEP2        0.0000 
     39 N          56.2225  -51.3480   20.9595 N.am      2 SEC2        0.0000 
     40 N          55.1770  -50.2690   20.9550 N.am      6 SEP2        0.0000 
     41 CA         55.1120  -51.5860   18.9910 C.3       4 GLC5        0.0000 
     42 CA         55.3180  -53.6450   19.3320 C.3      12 GLL5        0.0000 
     43 CA         54.9060  -49.5270   18.6500 C.3       8 GLP5        0.0000 
     44 CA         53.4215  -52.8835   20.0110 C.3       4 GLC5        0.0000 
     45 CA         51.5250  -52.1220   20.6900 C.3       8 GLP5        0.0000 
     46 NZ         55.3300  -53.6385   15.7355 N.4       3 LYC4        0.0000 
     47 NZ         54.6970  -53.9160   17.0470 N.4      11 LYL4        0.0000 
     48 NZ         57.2640  -53.5910   14.3310 N.4       7 LYP4        0.0000 
     49 N          55.3300  -53.6385   15.7355 N.am      2 SEC2        0.0000 
     50 N          54.6970  -53.9160   17.0470 N.am     10 SEL2        0.0000 
     51 N          55.9630  -53.3610   14.4240 N.am      6 SEP2        0.0000 
     52 N          53.4050  -53.2480   17.0435 N.am      2 SEC2        0.0000 
     53 N          52.1130  -52.5800   17.0400 N.am      6 SEP2        0.0000 
     54 N          55.0140  -55.4090   16.4435 N.am      2 SEC2        0.0000 
     55 N          55.3310  -56.9020   15.8400 N.am      6 SEP2        0.0000 
     56 NZ         57.2685  -54.4085   16.5420 N.4       3 LYC4        0.0000 
     57 NZ         56.5960  -54.8020   17.6900 N.4      11 LYL4        0.0000 
     58 NZ         56.6840  -56.1380   17.6030 N.4       3 LYC4        0.0000 
     59 NZ         56.0900  -57.8050   16.4450 N.4       7 LYP4        0.0000 
     60 N          57.2685  -54.4085   16.5420 N.am      2 SEC2        0.0000 
     61 N          56.5960  -54.8020   17.6900 N.am     10 SEL2        0.0000 
     62 N          57.9410  -54.0150   15.3940 N.am      6 SEP2        0.0000 
     63 N          55.9635  -55.8520   16.7650 N.am      2 SEC2        0.0000 
     64 N          56.6840  -56.1380   17.6030 N.am      2 SEC2        0.0000 
     65 N          56.7720  -57.4740   17.5160 N.am      6 SEP2        0.0000 
     66 CA         55.1912  -63.2142   17.1765 C.3       4 GLC5        0.0000 
     67 CA         55.3370  -62.6370   19.1930 C.3      12 GLL5        0.0000 
     68 CA         55.4887  -53.5495   21.0525 C.3       4 GLC5        0.0000 
     69 CA         56.0610  -54.4870   20.3540 C.3      12 GLL5        0.0000 
     70 CA         55.2880  -53.0330   22.2620 C.3       8 GLP5        0.0000 
@<TRIPOS>BOND
@<TRIPOS>SUBSTRUCTURE
     1 ALC1        1 GROUP        1 X    ALC  0     ROOT ALC X 1
     2 SEC2       12 GROUP        1 X    SEC  0     **** SEC X 2
     3 LYC4       46 GROUP        1 X    LYC  0     **** LYC X 4
     4 GLC5        4 GROUP        1 X    GLC  0     **** GLC X 6
     5 ALP1        3 GROUP        1 Y    ALP  0     ROOT ALP Y 8
     6 SEP2       14 GROUP        1 Y    SEP  0     **** SEP Y 9
     7 LYP4       48 GROUP        1 Y    LYP  0     **** LYP Y 11
     8 GLP5        6 GROUP        1 Y    GLP  0     **** GLP Y 13
     9 ALL1        2 GROUP        1 Z    ALL  0     ROOT ALL Z 15
    10 SEL2       13 GROUP        1 Z    SEL  0     **** SEL Z 16
    11 LYL4       47 GROUP        1 Z    LYL  0     **** LYL Z 18
    12 GLL5        5 GROUP        1 Z    GLL  0     **** GLL Z 20
@<TRIPOS>SET

