#    Name: 2ql5_ASP_MET_GLN_ACE_ASA_2_ligand
#    Modification time : Mon Mar 24 22:25:18 2014

@<TRIPOS>MOLECULE
2ql5_ASP_MET_GLN_ACE_ASA_2_ligand
   63    62     5     0     0
SMALL
NO_CHARGES


@<TRIPOS>ATOM
      1 N          50.6300  -64.5960   19.7090 N.am      1 ASP802      0.0000
      2 CA         50.9150  -63.1880   19.3410 C.3       1 ASP802      0.0000
      3 C          52.2070  -62.7210   20.0710 C.2       1 ASP802      0.0000
      4 O          52.7110  -63.4000   20.9700 O.2       1 ASP802      0.0000
      5 CB         49.7150  -62.5770   19.8900 C.3       1 ASP802      0.0000
      6 CG         48.5120  -62.8080   18.9950 C.2       1 ASP802      0.0000
      7 OD1        48.6740  -62.7350   17.7530 O.co2     1 ASP802      0.0000
      8 OD2        47.3980  -63.0140   19.5190 O.co2     1 ASP802      0.0000
      9 HNCA       49.7994  -64.8013   20.1753 H         1 ASP802      0.0000
     10 HA         50.9837  -63.0840   18.3232 H         1 ASP802      0.0000
     11 HB2        49.8507  -61.4907   20.0119 H         1 ASP802      0.0000
     12 HB3        49.4879  -62.9887   20.8862 H         1 ASP802      0.0000
     13 N          52.7060  -61.5430   19.7120 N.am      2 MET803      0.0000
     14 CA         53.8690  -60.9840   20.3810 C.3       2 MET803      0.0000
     15 C          53.7020  -59.5110   20.7340 C.2       2 MET803      0.0000
     16 O          52.7340  -58.8680   20.3320 O.2       2 MET803      0.0000
     17 CB         55.1080  -61.1840   19.5320 C.3       2 MET803      0.0000
     18 CG         55.3370  -62.6370   19.1930 C.3       2 MET803      0.0000
     19 SD         57.0220  -62.9160   18.7190 S.3       2 MET803      0.0000
     20 CE         57.1540  -61.8610   17.2060 C.3       2 MET803      0.0000
     21 HNCA       52.2980  -60.9711   18.9484 H         2 MET803      0.0000
     22 HA         54.0417  -61.5281   21.3274 H         2 MET803      0.0000
     23 HB2        55.9808  -60.7945   20.0720 H         2 MET803      0.0000
     24 HB3        55.0057  -60.6058   18.6045 H         2 MET803      0.0000
     25 HG2        54.7864  -62.9670   18.3370 H         2 MET803      0.0000
     26 HG3        55.2074  -63.2949   20.0268 H         2 MET803      0.0000
     27 HE1        58.0682  -61.9027   16.8028 H         2 MET803      0.0000
     28 HE2        56.5080  -62.1452   16.4976 H         2 MET803      0.0000
     29 HE3        56.9654  -60.8995   17.4060 H         2 MET803      0.0000
     30 N          54.6550  -58.9790   21.4880 N.am      3 GLN804      0.0000
     31 CA         54.5780  -57.5920   21.9120 C.3       3 GLN804      0.0000
     32 C          55.6110  -56.6760   21.2780 C.2       3 GLN804      0.0000
     33 O          56.7690  -57.0510   21.0750 O.2       3 GLN804      0.0000
     34 CB         54.6930  -57.5040   23.4350 C.3       3 GLN804      0.0000
     35 CG         53.7470  -58.4340   24.1850 C.3       3 GLN804      0.0000
     36 CD         54.3160  -59.8360   24.3780 C.2       3 GLN804      0.0000
     37 OE1        53.5860  -60.8300   24.3240 O.2       3 GLN804      0.0000
     38 NE2        55.6210  -59.9190   24.6240 N.am      3 GLN804      0.0000
     39 HNCA       55.4838  -59.5114   21.8063 H         3 GLN804      0.0000
     40 HA         53.5791  -57.1837   21.6616 H         3 GLN804      0.0000
     41 HB2        54.4971  -56.4641   23.7467 H         3 GLN804      0.0000
     42 HB3        55.7313  -57.7355   23.7269 H         3 GLN804      0.0000
     43 HG2        52.7998  -58.5049   23.6322 H         3 GLN804      0.0000
     44 HG3        53.5222  -58.0001   25.1694 H         3 GLN804      0.0000
     45 HE21       56.1194  -59.0525   24.6522 H         3 GLN804      0.0000
     46 HE22       55.9857  -60.8404   24.7585 H         3 GLN804      0.0000
     47 C          51.5890  -65.4030   19.3330 C.2       4 ACE801      0.0000
     48 O          51.8660  -66.3820   20.1110 O.2       4 ACE801      0.0000
     49 CH3        52.5430  -65.1840   18.1600 C.3       4 ACE801      0.0000
     50 H          53.0772  -64.3455   18.2673 H         4 ACE801      0.0000
     51 H          53.1946  -65.9367   18.0657 H         4 ACE801      0.0000
     52 H          52.0529  -65.1101   17.2915 H         4 ACE801      0.0000
     53 N          55.1730  -55.4620   20.9600 N.4       5 ASA805      0.0000
     54 CA         56.0610  -54.4870   20.3540 C.3       5 ASA805      0.0000
     55 C          56.7420  -53.6540   21.3700 C.2       5 ASA805      0.0000
     56 O          57.2680  -52.4270   20.9640 O.2       5 ASA805      0.0000
     57 CB         55.3180  -53.6450   19.3320 C.3       5 ASA805      0.0000
     58 CG         55.5510  -54.1530   17.9220 C.2       5 ASA805      0.0000
     59 OD1        54.6970  -53.9160   17.0470 O.co2     5 ASA805      0.0000
     60 OD2        56.5960  -54.8020   17.6900 O.co2     5 ASA805      0.0000
     61 H          56.8483  -55.0396   19.7881 H         5 ASA805      0.0000
     62 H          55.6577  -52.6082   19.4036 H         5 ASA805      0.0000
     63 H          54.2475  -53.6707   19.5534 H         5 ASA805      0.0000
@<TRIPOS>BOND
     1    2    1 1
     2    9    1 1
     3    3    2 1
     4    5    2 1
     5   10    2 1
     6    4    3 2
     7    6    5 1
     8   11    5 1
     9   12    5 1
    10    7    6 ar
    11    8    6 ar
    12   14   13 1
    13   21   13 1
    14   15   14 1
    15   17   14 1
    16   22   14 1
    17   16   15 2
    18   18   17 1
    19   23   17 1
    20   24   17 1
    21   19   18 1
    22   25   18 1
    23   26   18 1
    24   20   19 1
    25   27   20 1
    26   28   20 1
    27   29   20 1
    28   31   30 1
    29   39   30 1
    30   32   31 1
    31   34   31 1
    32   40   31 1
    33   33   32 2
    34   35   34 1
    35   41   34 1
    36   42   34 1
    37   36   35 1
    38   43   35 1
    39   44   35 1
    40   37   36 2
    41   38   36 am
    42   45   38 1
    43   46   38 1
    44   48   47 2
    45   49   47 1
    46   50   49 1
    47   51   49 1
    48   52   49 1
    49   54   53 1
    50   55   54 1
    51   57   54 1
    52   61   54 1
    53   56   55 2
    54   58   57 1
    55   62   57 1
    56   63   57 1
    57   59   58 ar
    58   60   58 ar
    59   47    1 1 
    60   13    3 am
    61   30   15 am
    62   53   32 1 
@<TRIPOS>SUBSTRUCTURE
     1 ASP802      1 RESIDUE
     2 MET803     13 RESIDUE
     3 GLN804     30 RESIDUE
     4 ACE801     47 GROUP
     5 ASA805     53 GROUP
@<TRIPOS>SET

