#    Name: 3r6c_17N_1_INTS_M
#    Modification time : Tue Mar 25 11:04:07 2014

@<TRIPOS>MOLECULE
3r6c_17N_1_INTS_M
   49     0     9     0     0
SMALL
NO_CHARGES


@<TRIPOS>ATOM
      1 CA         10.9195   -4.8360   26.3860 C.3       3 GLC5        0.0000 
      2 CA         10.3760   -6.1330   24.6970 C.3       9 GLL5        0.0000 
      3 CA         11.4630   -3.5390   28.0750 C.3       6 GLP5        0.0000 
      4 CA          8.6750   -7.4520   24.9660 C.3       3 GLC5        0.0000 
      5 CA          6.9740   -8.7710   25.2350 C.3       6 GLP5        0.0000 
      6 NZ          1.7900   -5.3490   28.2910 N.4       2 LYC4        0.0000 
      7 NZ          2.6230   -4.8880   30.0280 N.4       8 LYL4        0.0000 
      8 NZ          0.5350   -4.7460   26.8140 N.4       5 LYP4        0.0000 
      9 N           1.6940   -4.4780   28.9760 N.am      1 SEC2        0.0000 
     10 N           2.6230   -4.8880   30.0280 N.am      7 SEL2        0.0000 
     11 N           0.7650   -4.0680   27.9240 N.am      4 SEP2        0.0000 
     12 NZ          2.3285   -4.4540   27.2140 N.4       2 LYC4        0.0000 
     13 NZ          4.1220   -4.1620   27.6140 N.4       8 LYL4        0.0000 
     14 NZ          2.8150   -6.6300   28.6580 N.4       8 LYL4        0.0000 
     15 N           1.8515   -6.3275   27.6940 N.am      1 SEC2        0.0000 
     16 N           2.8150   -6.6300   28.6580 N.am      7 SEL2        0.0000 
     17 N           0.8880   -6.0250   26.7300 N.am      4 SEP2        0.0000 
     18 N           1.7900   -5.3490   28.2910 N.am      1 SEC2        0.0000 
     19 CA          7.0060   -8.9710   33.3080 C.3       3 GLC5        0.0000 
     20 CA          7.5680   -7.2840   33.2050 C.3       9 GLL5        0.0000 
     21 CA          6.4440  -10.6580   33.4110 C.3       6 GLP5        0.0000 
     22 CA          8.3980   -5.6660   32.6545 C.3       3 GLC5        0.0000 
     23 CA          9.2280   -4.0480   32.1040 C.3       6 GLP5        0.0000 
     24 CA          9.1165   -8.0095   33.5880 C.3       3 GLC5        0.0000 
     25 CA         10.6650   -8.7350   33.9710 C.3       6 GLP5        0.0000 
     26 CA          5.6845   -6.3630   33.8280 C.3       3 GLC5        0.0000 
     27 CA          3.8010   -5.4420   34.4510 C.3       6 GLP5        0.0000 
     28 CA          7.0525   -8.0140   35.2380 C.3       3 GLC5        0.0000 
     29 CA          6.5370   -8.7440   37.2710 C.3       6 GLP5        0.0000 
     30 CA         11.3650   -6.1175   29.2355 C.3       3 GLC5        0.0000 
     31 CA          9.4060   -7.1530   29.5060 C.3       9 GLL5        0.0000 
     32 CA         12.7510   -5.0650   29.3620 C.3       6 GLP5        0.0000 
     33 CA         10.5590   -8.0535   30.8385 C.3       3 GLC5        0.0000 
     34 CA         10.5520   -7.1870   28.7120 C.3       9 GLL5        0.0000 
     35 CA         11.1390   -8.9370   32.5680 C.3       6 GLP5        0.0000 
     36 CA          9.4485   -9.1765   29.5010 C.3       3 GLC5        0.0000 
     37 CA          8.9180  -11.1830   29.8930 C.3       6 GLP5        0.0000 
     38 CA          9.0152   -5.4873   30.6713 C.3       3 GLC5        0.0000 
     39 CA          4.5475   -6.1412   33.0100 C.3       3 GLC5        0.0000 
     40 CA          5.8870   -7.0600   31.8450 C.3       9 GLL5        0.0000 
     41 CA          6.6930   -7.2968   26.3405 C.3       3 GLC5        0.0000 
     42 CA          5.8260   -5.8060   27.8130 C.3       9 GLL5        0.0000 
     43 CA          6.4535   -8.8672   32.4357 C.3       3 GLC5        0.0000 
     44 CA          7.0390   -7.0930   31.0760 C.3       9 GLL5        0.0000 
     45 CA          8.1288   -5.4627   31.2563 C.3       3 GLC5        0.0000 
     46 CA          7.0200   -6.6620   29.7410 C.3       9 GLL5        0.0000 
     47 CA         10.2545   -4.9770   27.7225 C.3       3 GLC5        0.0000 
     48 CA          8.1780   -6.2880   27.6360 C.3       9 GLL5        0.0000 
     49 CA          7.7236   -7.6356   26.6684 C.3       3 GLC5        0.0000 
@<TRIPOS>BOND
@<TRIPOS>SUBSTRUCTURE
     1 SEC2        9 GROUP        1 X    SEC  0     ROOT SEC X 2
     2 LYC4        6 GROUP        1 X    LYC  0     **** LYC X 4
     3 GLC5        1 GROUP        1 X    GLC  0     **** GLC X 6
     4 SEP2       11 GROUP        1 Y    SEP  0     ROOT SEP Y 9
     5 LYP4        8 GROUP        1 Y    LYP  0     **** LYP Y 11
     6 GLP5        3 GROUP        1 Y    GLP  0     **** GLP Y 13
     7 SEL2       10 GROUP        1 Z    SEL  0     ROOT SEL Z 16
     8 LYL4        7 GROUP        1 Z    LYL  0     **** LYL Z 18
     9 GLL5        2 GROUP        1 Z    GLL  0     **** GLL Z 20
@<TRIPOS>SET

