#    Name: 3r6c_17N_1_ligand
#    Modification time : Tue Mar 25 11:04:07 2014

@<TRIPOS>MOLECULE
3r6c_17N_1_ligand
   35    38     1     0     0
SMALL
NO_CHARGES


@<TRIPOS>ATOM
      1 CAA        10.3760   -6.1330   24.6970 C.3       1 17N404      0.0000 
      2 OAB         2.6230   -4.8880   30.0280 O.co2     1 17N404      0.0000 
      3 OAC         4.1220   -4.1620   27.6140 O.co2     1 17N404      0.0000 
      4 OAD         2.8150   -6.6300   28.6580 O.co2     1 17N404      0.0000 
      5 OAE         4.3780   -5.9230   25.9140 O.co2     1 17N404      0.0000 
      6 CAF        10.5520   -7.1870   28.7120 C.ar      1 17N404      0.0000 
      7 CAG        10.5110   -6.7710   27.3790 C.ar      1 17N404      0.0000 
      8 CAH         9.4060   -7.1530   29.5060 C.ar      1 17N404      0.0000 
      9 CAI         4.7010   -6.6210   31.2930 C.ar      1 17N404      0.0000 
     10 CAJ         6.9980   -5.8390   27.0790 C.ar      1 17N404      0.0000 
     11 CAK         7.5680   -7.2840   33.2050 C.3       1 17N404      0.0000 
     12 OAL         9.2160   -5.8790   25.5240 O.3       1 17N404      0.0000 
     13 OAM         6.1660   -7.5030   33.0910 O.3       1 17N404      0.0000 
     14 OAN         8.0440   -7.5620   31.8670 O.3       1 17N404      0.0000 
     15 CAO         3.2760   -5.8030   29.4990 C.2       1 17N404      0.0000 
     16 CAP         5.8870   -7.0600   31.8450 C.ar      1 17N404      0.0000 
     17 CAQ         9.3170   -6.3130   26.8290 C.ar      1 17N404      0.0000 
     18 CAR         4.6620   -6.1910   29.9830 C.ar      1 17N404      0.0000 
     19 CAS         5.8260   -5.8060   27.8130 C.ar      1 17N404      0.0000 
     20 CAT         7.0390   -7.0930   31.0760 C.ar      1 17N404      0.0000 
     21 CAU         8.1780   -6.2880   27.6360 C.ar      1 17N404      0.0000 
     22 CAV         8.1990   -6.7000   28.9710 C.ar      1 17N404      0.0000 
     23 CAW         5.8130   -6.2150   29.1690 C.ar      1 17N404      0.0000 
     24 CAX         7.0200   -6.6620   29.7410 C.ar      1 17N404      0.0000 
     25 CAY         4.7720   -5.3390   27.1420 C.2       1 17N404      0.0000 
     26 H          11.4415   -7.5233   29.1130 H         1 17N404      0.0000 
     27 H          11.3630   -6.8039   26.8065 H         1 17N404      0.0000 
     28 H           9.4496   -7.4612   30.4846 H         1 17N404      0.0000 
     29 H           3.8391   -6.6144   31.8633 H         1 17N404      0.0000 
     30 H           6.9882   -5.5194   26.0897 H         1 17N404      0.0000 
     31 H           8.0147   -7.9654   33.9104 H         1 17N404      0.0000 
     32 H           7.7843   -6.2633   33.4748 H         1 17N404      0.0000 
     33 H          11.1950   -5.6880   25.0592 H         1 17N404      0.0000 
     34 H          10.5783   -7.1101   24.6310 H         1 17N404      0.0000 
     35 H          10.2479   -5.7965   23.7641 H         1 17N404      0.0000 
@<TRIPOS>BOND
     1   12    1 1    
     2   33    1 1    
     3   34    1 1    
     4   35    1 1    
     5   15    2 ar   
     6   25    3 ar   
     7   15    4 ar   
     8   25    5 ar   
     9    7    6 ar   
    10    8    6 ar   
    11   26    6 1    
    12   17    7 ar   
    13   27    7 1    
    14   22    8 ar   
    15   28    8 1    
    16   16    9 ar   
    17   18    9 ar   
    18   29    9 1    
    19   19   10 ar   
    20   21   10 ar   
    21   30   10 1    
    22   13   11 1    
    23   14   11 1    
    24   31   11 1    
    25   32   11 1    
    26   17   12 1    
    27   16   13 1    
    28   20   14 1    
    29   18   15 1    
    30   20   16 ar   
    31   21   17 ar   
    32   23   18 ar   
    33   23   19 ar   
    34   25   19 1    
    35   24   20 ar   
    36   22   21 ar   
    37   24   22 ar   
    38   24   23 ar   
@<TRIPOS>SUBSTRUCTURE
     1 17N404      1 GROUP   
@<TRIPOS>SET

