#    Name: 4lch_1WN_1_INTS_M
#    Modification time : Mon Apr  7 23:58:03 2014

@<TRIPOS>MOLECULE
4lch_1WN_1_INTS_M
   74     0    12     0     0
SMALL
NO_CHARGES


@<TRIPOS>ATOM
      1 Zn         21.3245   -8.5175   -7.6145 Zn        3 ZIC7        0.0000 
      2 Zn         22.1620   -7.7970   -7.3250 Zn       11 ZIL7        0.0000 
      3 Zn         20.4870   -9.2380   -7.9040 Zn        7 ZIP7        0.0000 
      4 N          22.4550   -6.7170   -8.1235 N.am      2 SEC2        0.0000 
      5 N          22.1620   -7.7970   -7.3250 N.am     10 SEL2        0.0000 
      6 N          22.7480   -5.6370   -8.9220 N.am      6 SEP2        0.0000 
      7 O          22.3350   -7.0495   -6.4595 O.2       1 ALC1        0.0000 
      8 O          22.1620   -7.7970   -7.3250 O.2       9 ALL1        0.0000 
      9 O          22.5080   -6.3020   -5.5940 O.2       5 ALP1        0.0000 
     10 O          24.4930   -7.8355   -7.5485 O.2       1 ALC1        0.0000 
     11 O          23.2300   -8.4560   -7.5320 O.2       9 ALL1        0.0000 
     12 O          25.7560   -7.2150   -7.5650 O.2       5 ALP1        0.0000 
     13 Zn         21.3825   -9.8540   -7.9790 Zn        3 ZIC7        0.0000 
     14 Zn         22.2780  -10.4700   -8.0540 Zn       11 ZIL7        0.0000 
     15 N          22.2795  -11.6445   -7.6305 N.am      2 SEC2        0.0000 
     16 N          22.2780  -10.4700   -8.0540 N.am     10 SEL2        0.0000 
     17 N          22.2810  -12.8190   -7.2070 N.am      6 SEP2        0.0000 
     18 CA         24.1675  -16.4650   -5.1410 C.3       4 GLC5        0.0000 
     19 CA         25.5050  -15.1400   -5.6420 C.3      12 GLL5        0.0000 
     20 CA         22.8300  -17.7900   -4.6400 C.3       8 GLP5        0.0000 
     21 CA         28.0290  -16.4355   -5.3745 C.3       4 GLC5        0.0000 
     22 CA         26.4840  -15.1330   -4.6660 C.3      12 GLL5        0.0000 
     23 CA         29.5740  -17.7380   -6.0830 C.3       8 GLP5        0.0000 
     24 CA         28.9795  -19.9405   -2.9810 C.3       4 GLC5        0.0000 
     25 CA         27.4500  -21.1700   -1.9820 C.3      12 GLL5        0.0000 
     26 CA         30.5090  -18.7110   -3.9800 C.3       8 GLP5        0.0000 
     27 CA         29.5295  -13.5715   -4.6415 C.3       4 GLC5        0.0000 
     28 CA         27.3370  -14.0500   -4.5200 C.3      12 GLL5        0.0000 
     29 CA         31.7220  -13.0930   -4.7630 C.3       8 GLP5        0.0000 
     30 O          22.4710   -9.0665  -10.5300 O.2       1 ALC1        0.0000 
     31 O          23.9900   -9.6410  -10.8580 O.2       9 ALL1        0.0000 
     32 O          20.9520   -8.4920  -10.2020 O.2       5 ALP1        0.0000 
     33 CA         22.6510  -12.8315  -11.7970 C.3       4 GLC5        0.0000 
     34 CA         23.3710  -11.6960  -10.3300 C.3      12 GLL5        0.0000 
     35 CA         21.9310  -13.9670  -13.2640 C.3       8 GLP5        0.0000 
     36 CA         21.4360  -11.4745  -10.1890 C.3       4 GLC5        0.0000 
     37 CA         19.5010  -11.2530  -10.0480 C.3       8 GLP5        0.0000 
     38 CA         28.8615   -9.5565   -9.8870 C.3       4 GLC5        0.0000 
     39 CA         27.8650  -10.4150  -11.6710 C.3      12 GLL5        0.0000 
     40 CA         29.8580   -8.6980   -8.1030 C.3       8 GLP5        0.0000 
     41 CA         25.3377  -12.6877   -4.2263 C.3       4 GLC5        0.0000 
     42 CA         25.9950  -12.8280   -6.0770 C.3      12 GLL5        0.0000 
     43 CA         25.0770  -11.9980   -2.2750 C.3       8 GLP5        0.0000 
     44 CA         23.4143  -14.4158   -5.7210 C.3       4 GLC5        0.0000 
     45 CA         25.2020  -13.9270   -6.2780 C.3      12 GLL5        0.0000 
     46 CA         21.4750  -14.2980   -5.4820 C.3       8 GLP5        0.0000 
     47 CA         26.0252  -15.6418   -7.6635 C.3       4 GLC5        0.0000 
     48 CA         26.6970  -16.7500   -9.3670 C.3       8 GLP5        0.0000 
     49 CA         25.9515  -14.8825   -2.5715 C.3       4 GLC5        0.0000 
     50 CA         25.3090  -14.0000   -0.8120 C.3       8 GLP5        0.0000 
     51 CA         27.6195  -17.8128   -5.0525 C.3       4 GLC5        0.0000 
     52 CA         26.7040  -16.3970   -3.9960 C.3      12 GLL5        0.0000 
     53 CA         28.4500  -18.7020   -6.3710 C.3       8 GLP5        0.0000 
     54 CA         26.2890  -17.0587   -1.7160 C.3       4 GLC5        0.0000 
     55 CA         26.8740  -17.4500   -3.4720 C.3      12 GLL5        0.0000 
     56 CA         25.7890  -17.1940    0.3020 C.3       8 GLP5        0.0000 
     57 CA         24.8095  -17.3567   -4.1870 C.3       4 GLC5        0.0000 
     58 CA         28.8320  -19.0077   -3.3258 C.3       4 GLC5        0.0000 
     59 CA         27.0720  -18.7730   -2.8810 C.3      12 GLL5        0.0000 
     60 CA         26.4720  -18.2492   -1.1847 C.3       4 GLC5        0.0000 
     61 CA         25.7430  -19.9947   -1.3362 C.3       4 GLC5        0.0000 
     62 CA         24.3310  -20.6850   -0.0010 C.3       8 GLP5        0.0000 
     63 CA         26.3045  -20.2488   -4.3112 C.3       4 GLC5        0.0000 
     64 CA         27.2380  -19.8360   -2.4620 C.3      12 GLL5        0.0000 
     65 CA         25.4540  -21.1930   -5.9510 C.3       8 GLP5        0.0000 
     66 CA         25.8353  -21.1728   -1.2345 C.3       4 GLC5        0.0000 
     67 CA         27.2290  -22.1510   -2.9540 C.3      12 GLL5        0.0000 
     68 CA         25.5845  -23.6460   -3.1978 C.3       4 GLC5        0.0000 
     69 CA         23.7560  -24.4830   -3.5460 C.3       8 GLP5        0.0000 
     70 CA         26.4611  -21.8784   -4.2788 C.3       4 GLC5        0.0000 
     71 CA         27.5970  -23.4670   -2.7450 C.3      12 GLL5        0.0000 
     72 CA         26.2255  -21.3998   -0.3073 C.3       4 GLC5        0.0000 
     73 CA         28.0210  -21.4490   -0.7620 C.3      12 GLL5        0.0000 
     74 CA         26.1333  -12.7223   -3.5580 C.3       4 GLC5        0.0000 
@<TRIPOS>BOND
@<TRIPOS>SUBSTRUCTURE
     1 ALC1        7 GROUP        1 X    ALC  0     ROOT ALC X 1
     2 SEC2        4 GROUP        1 X    SEC  0     **** SEC X 2
     3 ZIC7        1 GROUP        1 X    ZIC  0     **** ZIC X 5
     4 GLC5       18 GROUP        1 X    GLC  0     **** GLC X 6
     5 ALP1        9 GROUP        1 Y    ALP  0     ROOT ALP Y 8
     6 SEP2        6 GROUP        1 Y    SEP  0     **** SEP Y 9
     7 ZIP7        3 GROUP        1 Y    ZIP  0     **** ZIP Y 12
     8 GLP5       20 GROUP        1 Y    GLP  0     **** GLP Y 13
     9 ALL1        8 GROUP        1 Z    ALL  0     ROOT ALL Z 15
    10 SEL2        5 GROUP        1 Z    SEL  0     **** SEL Z 16
    11 ZIL7        2 GROUP        1 Z    ZIL  0     **** ZIL Z 19
    12 GLL5       19 GROUP        1 Z    GLL  0     **** GLL Z 20
@<TRIPOS>SET

