#    Name: 4lch_1WN_1_ligand
#    Modification time : Mon Apr  7 23:58:04 2014

@<TRIPOS>MOLECULE
4lch_1WN_1_ligand
   58    60     1     0     0
SMALL
NO_CHARGES


@<TRIPOS>ATOM
      1 O01        22.1620   -7.7970   -7.3250 O.3       1 1WN304      0.0000 
      2 N02        23.2300   -8.4560   -7.5320 N.am      1 1WN304      0.0000 
      3 C03        23.2540   -9.7910   -8.0650 C.2       1 1WN304      0.0000 
      4 O04        22.2780  -10.4700   -8.0540 O.2       1 1WN304      0.0000 
      5 C05        24.5440  -10.3530   -8.6810 C.3       1 1WN304      0.0000 
      6 N06        24.8490  -11.5610   -7.9220 N.am      1 1WN304      0.0000 
      7 C07        25.6310  -11.5230   -6.7160 C.2       1 1WN304      0.0000 
      8 O08        26.2100  -10.5570   -6.3430 O.2       1 1WN304      0.0000 
      9 C09        25.9950  -12.8280   -6.0770 C.ar      1 1WN304      0.0000 
     10 C10        25.2020  -13.9270   -6.2780 C.ar      1 1WN304      0.0000 
     11 C11        25.5050  -15.1400   -5.6420 C.ar      1 1WN304      0.0000 
     12 C12        26.4840  -15.1330   -4.6660 C.ar      1 1WN304      0.0000 
     13 C13        26.7040  -16.3970   -3.9960 C.1       1 1WN304      0.0000 
     14 C14        26.8740  -17.4500   -3.4720 C.1       1 1WN304      0.0000 
     15 C15        27.0720  -18.7730   -2.8810 C.1       1 1WN304      0.0000 
     16 C16        27.2380  -19.8360   -2.4620 C.1       1 1WN304      0.0000 
     17 C17        27.4500  -21.1700   -1.9820 C.ar      1 1WN304      0.0000 
     18 C18        27.2290  -22.1510   -2.9540 C.ar      1 1WN304      0.0000 
     19 C19        27.5970  -23.4670   -2.7450 C.ar      1 1WN304      0.0000 
     20 C20        28.0580  -23.7510   -1.4580 C.ar      1 1WN304      0.0000 
     21 N21        28.3170  -25.1140   -1.1600 N.pl3     1 1WN304      0.0000 
     22 C22        28.2190  -22.7800   -0.4650 C.ar      1 1WN304      0.0000 
     23 C23        28.0210  -21.4490   -0.7620 C.ar      1 1WN304      0.0000 
     24 C24        27.3370  -14.0500   -4.5200 C.ar      1 1WN304      0.0000 
     25 C25        27.0420  -12.8430   -5.1620 C.ar      1 1WN304      0.0000 
     26 C26        24.4230  -10.6880  -10.1390 C.3       1 1WN304      0.0000 
     27 O27        23.9900   -9.6410  -10.8580 O.3       1 1WN304      0.0000 
     28 C28        23.3710  -11.6960  -10.3300 C.3       1 1WN304      0.0000 
     29 C29        25.7010  -11.0930  -10.7740 C.ar      1 1WN304      0.0000 
     30 C30        25.9510  -12.4020  -11.3000 C.ar      1 1WN304      0.0000 
     31 C31        27.0740  -12.7240  -12.0730 C.ar      1 1WN304      0.0000 
     32 C32        28.0290  -11.7080  -12.2690 C.ar      1 1WN304      0.0000 
     33 O33        29.1660  -12.0200  -12.9740 O.3       1 1WN304      0.0000 
     34 C34        27.8650  -10.4150  -11.6710 C.ar      1 1WN304      0.0000 
     35 C35        26.6540  -10.0680  -11.0380 C.ar      1 1WN304      0.0000 
     36 H          24.1976   -8.0553   -7.3202 H         1 1WN304      0.0000 
     37 H          25.3278   -9.6298   -8.5287 H         1 1WN304      0.0000 
     38 H          24.4923  -12.4562   -8.2649 H         1 1WN304      0.0000 
     39 H          24.3779  -13.8773   -6.8951 H         1 1WN304      0.0000 
     40 H          25.0159  -15.9901   -5.8969 H         1 1WN304      0.0000 
     41 H          26.7788  -21.8782   -3.8486 H         1 1WN304      0.0000 
     42 H          27.5404  -24.1627   -3.4519 H         1 1WN304      0.0000 
     43 H          28.1506  -25.7655   -1.9001 H         1 1WN304      0.0000 
     44 H          28.6440  -25.3077   -0.2351 H         1 1WN304      0.0000 
     45 H          28.4860  -23.0689    0.4866 H         1 1WN304      0.0000 
     46 H          28.2817  -20.7179   -0.1173 H         1 1WN304      0.0000 
     47 H          28.1826  -14.1280   -3.9445 H         1 1WN304      0.0000 
     48 H          27.5777  -12.0061   -4.9636 H         1 1WN304      0.0000 
     49 H          25.2502  -13.1479  -11.0884 H         1 1WN304      0.0000 
     50 H          27.1956  -13.6366  -12.4707 H         1 1WN304      0.0000 
     51 H          28.6375   -9.7479  -11.7095 H         1 1WN304      0.0000 
     52 H          26.4597   -9.1121  -10.7740 H         1 1WN304      0.0000 
     53 H          23.2655  -11.9449  -11.2928 H         1 1WN304      0.0000 
     54 H          23.5689  -12.5388   -9.8294 H         1 1WN304      0.0000 
     55 H          22.4810  -11.3687  -10.0126 H         1 1WN304      0.0000 
     56 H          22.1853   -7.5653   -6.3524 H         1 1WN304      0.0000 
     57 H          23.0601   -9.4704  -10.5323 H         1 1WN304      0.0000 
     58 H          29.8184  -12.3370  -12.2856 H         1 1WN304      0.0000 
@<TRIPOS>BOND
     1    2    1 1    
     2   56    1 1    
     3    3    2 am   
     4   36    2 1    
     5    4    3 2    
     6    5    3 1    
     7    6    5 1    
     8   26    5 1    
     9   37    5 1    
    10    7    6 am   
    11   38    6 1    
    12    8    7 2    
    13    9    7 1    
    14   10    9 ar   
    15   25    9 ar   
    16   11   10 ar   
    17   39   10 1    
    18   12   11 ar   
    19   40   11 1    
    20   13   12 1    
    21   24   12 ar   
    22   14   13 3    
    23   15   14 1    
    24   16   15 3    
    25   17   16 1    
    26   18   17 ar   
    27   23   17 ar   
    28   19   18 ar   
    29   41   18 1    
    30   20   19 ar   
    31   42   19 1    
    32   21   20 1    
    33   22   20 ar   
    34   43   21 1    
    35   44   21 1    
    36   23   22 ar   
    37   45   22 1    
    38   46   23 1    
    39   25   24 ar   
    40   47   24 1    
    41   48   25 1    
    42   27   26 1    
    43   28   26 1    
    44   29   26 1    
    45   57   27 1    
    46   53   28 1    
    47   54   28 1    
    48   55   28 1    
    49   30   29 ar   
    50   35   29 ar   
    51   31   30 ar   
    52   49   30 1    
    53   32   31 ar   
    54   50   31 1    
    55   33   32 1    
    56   34   32 ar   
    57   58   33 1    
    58   35   34 ar   
    59   51   34 1    
    60   52   35 1    
@<TRIPOS>SUBSTRUCTURE
     1 1WN304      1 GROUP   
@<TRIPOS>SET

