#    Name: 3w0t_HPU_4_INTS_M
#    Modification time : Tue Mar 25 01:57:20 2014

@<TRIPOS>MOLECULE
3w0t_HPU_4_INTS_M
   57     0     9     0     0
SMALL
NO_CHARGES


@<TRIPOS>ATOM
      1 CA         10.7985  -27.0915   -8.8755 C.3       3 GLC5        0.0000 
      2 CA         11.5320  -28.9820   -7.9110 C.3       9 GLL5        0.0000 
      3 CA         10.0650  -25.2010   -9.8400 C.3       6 GLP5        0.0000 
      4 CA         10.9705  -25.7280   -8.1555 C.3       3 GLC5        0.0000 
      5 CA         11.8760  -26.2550   -6.4710 C.3       9 GLL5        0.0000 
      6 CA         13.5505  -23.3855   -4.1570 C.3       3 GLC5        0.0000 
      7 CA         13.5890  -25.0620   -5.1910 C.3       9 GLL5        0.0000 
      8 CA         13.5120  -21.7090   -3.1230 C.3       6 GLP5        0.0000 
      9 CA         16.3275  -22.6730   -2.7895 C.3       3 GLC5        0.0000 
     10 CA         15.5670  -24.5980   -2.1260 C.3       9 GLL5        0.0000 
     11 CA         17.0880  -20.7480   -3.4530 C.3       6 GLP5        0.0000 
     12 CA         14.5395  -23.1535   -2.6245 C.3       3 GLC5        0.0000 
     13 CA         14.6185  -23.8635   -0.6595 C.3       3 GLC5        0.0000 
     14 CA         13.6700  -23.1290    0.8070 C.3       6 GLP5        0.0000 
     15 Zn         13.8765  -28.8690   -3.7425 Zn        2 ZIC7        0.0000 
     16 Zn         15.3640  -26.4200   -4.2080 Zn        8 ZIL7        0.0000 
     17 Zn         12.3890  -31.3180   -3.2770 Zn        5 ZIP7        0.0000 
     18 Zn         12.4485  -30.4585   -3.8255 Zn        2 ZIC7        0.0000 
     19 Zn         12.5080  -29.5990   -4.3740 Zn        8 ZIL7        0.0000 
     20 Zn         12.0110  -31.6345   -4.2190 Zn        2 ZIC7        0.0000 
     21 Zn         11.6330  -31.9510   -5.1610 Zn        8 ZIL7        0.0000 
     22 N          11.1275  -33.0735   -4.4595 N.am      1 SEC2        0.0000 
     23 N          11.6330  -31.9510   -5.1610 N.am      7 SEL2        0.0000 
     24 N          10.6220  -34.1960   -3.7580 N.am      4 SEP2        0.0000 
     25 CA          8.2080  -28.5760  -12.5585 C.3       3 GLC5        0.0000 
     26 CA          9.4290  -29.8670  -11.6010 C.3       9 GLL5        0.0000 
     27 CA          6.9870  -27.2850  -13.5160 C.3       6 GLP5        0.0000 
     28 CA          9.9825  -27.3925  -10.0735 C.3       3 GLC5        0.0000 
     29 CA          9.9000  -29.5840  -10.3070 C.3       9 GLL5        0.0000 
     30 CA         13.2575  -29.8042   -7.6732 C.3       3 GLC5        0.0000 
     31 CA         14.7400  -30.7550   -8.0840 C.3       6 GLP5        0.0000 
     32 CA         10.0080  -27.9827   -6.9783 C.3       3 GLC5        0.0000 
     33 CA          8.2410  -27.1120   -6.6940 C.3       6 GLP5        0.0000 
     34 CA         10.2160  -26.9883   -6.5117 C.3       3 GLC5        0.0000 
     35 CA         13.9090  -29.1105   -6.9372 C.3       3 GLC5        0.0000 
     36 CA         12.5060  -27.4740   -6.1880 C.3       9 GLL5        0.0000 
     37 CA         13.9573  -23.6107   -6.6270 C.3       3 GLC5        0.0000 
     38 CA         14.9100  -22.1590   -7.6760 C.3       6 GLP5        0.0000 
     39 CA          9.3555  -31.0330   -7.9198 C.3       3 GLC5        0.0000 
     40 CA         11.1080  -30.2770   -8.2870 C.3       9 GLL5        0.0000 
     41 CA          7.5990  -31.2800   -8.0440 C.3       6 GLP5        0.0000 
     42 CA         12.8072  -30.7120   -8.3884 C.3       3 GLC5        0.0000 
     43 CA          9.1837  -31.2242   -8.9733 C.3       3 GLC5        0.0000 
     44 CA         10.6370  -30.5520   -9.5900 C.3       9 GLL5        0.0000 
     45 CA         12.0410  -32.8565  -11.7812 C.3       3 GLC5        0.0000 
     46 CA         10.9000  -31.7850  -10.2150 C.3       9 GLL5        0.0000 
     47 CA         13.4210  -33.7820  -12.6990 C.3       6 GLP5        0.0000 
     48 CA          9.6740  -33.2925  -10.0693 C.3       3 GLC5        0.0000 
     49 CA         10.4220  -32.0770  -11.5120 C.3       9 GLL5        0.0000 
     50 CA          8.6870  -34.6540   -9.2750 C.3       6 GLP5        0.0000 
     51 CA          9.0625  -33.3522  -12.4447 C.3       3 GLC5        0.0000 
     52 CA          8.0730  -35.1140  -13.0340 C.3       6 GLP5        0.0000 
     53 CA          8.0550  -32.0162  -11.4683 C.3       3 GLC5        0.0000 
     54 CA          6.0580  -32.4420  -11.0810 C.3       6 GLP5        0.0000 
     55 CA          8.6318  -30.5028   -9.4990 C.3       3 GLC5        0.0000 
     56 CA         10.6402  -30.4374  -13.3966 C.3       3 GLC5        0.0000 
     57 CA         11.5400  -30.1460  -15.0650 C.3       6 GLP5        0.0000 
@<TRIPOS>BOND
@<TRIPOS>SUBSTRUCTURE
     1 SEC2       22 GROUP        1 X    SEC  0     ROOT SEC X 2
     2 ZIC7       15 GROUP        1 X    ZIC  0     **** ZIC X 5
     3 GLC5        1 GROUP        1 X    GLC  0     **** GLC X 6
     4 SEP2       24 GROUP        1 Y    SEP  0     ROOT SEP Y 9
     5 ZIP7       17 GROUP        1 Y    ZIP  0     **** ZIP Y 12
     6 GLP5        3 GROUP        1 Y    GLP  0     **** GLP Y 13
     7 SEL2       23 GROUP        1 Z    SEL  0     ROOT SEL Z 16
     8 ZIL7       16 GROUP        1 Z    ZIL  0     **** ZIL Z 19
     9 GLL5        2 GROUP        1 Z    GLL  0     **** GLL Z 20
@<TRIPOS>SET

