#    Name: 3w0t_HPU_4_ligand
#    Modification time : Tue Mar 25 01:57:20 2014

@<TRIPOS>MOLECULE
3w0t_HPU_4_ligand
   40    42     1     0     0
SMALL
NO_CHARGES


@<TRIPOS>ATOM
      1 C14        11.5320  -28.9820   -7.9110 C.2       1 HPU203      0.0000 
      2 C11        11.8760  -26.2550   -6.4710 C.ar      1 HPU203      0.0000 
      3 C7         14.2260  -26.2800   -4.9110 C.ar      1 HPU203      0.0000 
      4 C8         13.6500  -27.4580   -5.3930 C.ar      1 HPU203      0.0000 
      5 C9         13.5890  -25.0620   -5.1910 C.ar      1 HPU203      0.0000 
      6 C10        12.4200  -25.0630   -5.9650 C.ar      1 HPU203      0.0000 
      7 C12        12.5060  -27.4740   -6.1880 C.ar      1 HPU203      0.0000 
      8 C13        12.0180  -28.7250   -6.6140 C.2       1 HPU203      0.0000 
      9 C1         15.5670  -24.5980   -2.1260 C.3       1 HPU203      0.0000 
     10 S2         16.3250  -25.2300   -3.6010 S.o2      1 HPU203      0.0000 
     11 O3         17.6800  -25.8090   -3.2880 O.2       1 HPU203      0.0000 
     12 O4         16.5110  -24.1140   -4.5980 O.2       1 HPU203      0.0000 
     13 N5         15.3640  -26.4200   -4.2080 N.pl3     1 HPU203      0.0000 
     14 N15        12.0350  -29.7710   -5.6730 N.am      1 HPU203      0.0000 
     15 O16        12.5080  -29.5990   -4.3740 O.co2     1 HPU203      0.0000 
     16 C18        11.6340  -31.0560   -6.0260 C.2       1 HPU203      0.0000 
     17 O19        11.6330  -31.9510   -5.1610 O.2       1 HPU203      0.0000 
     18 C20        11.1160  -31.2950   -7.3040 C.2       1 HPU203      0.0000 
     19 C21        11.1080  -30.2770   -8.2870 C.2       1 HPU203      0.0000 
     20 C22        10.6370  -30.5520   -9.5900 C.ar      1 HPU203      0.0000 
     21 C23        10.9000  -31.7850  -10.2150 C.ar      1 HPU203      0.0000 
     22 C24        10.4220  -32.0770  -11.5120 C.ar      1 HPU203      0.0000 
     23 C25         9.6820  -31.1040  -12.1990 C.ar      1 HPU203      0.0000 
     24 C26         9.4290  -29.8670  -11.6010 C.ar      1 HPU203      0.0000 
     25 C27         9.9000  -29.5840  -10.3070 C.ar      1 HPU203      0.0000 
     26 H          11.4841  -28.2167   -8.5968 H         1 HPU203      0.0000 
     27 H          11.0293  -26.2317   -7.0396 H         1 HPU203      0.0000 
     28 H          14.1005  -28.3712   -5.1441 H         1 HPU203      0.0000 
     29 H          13.9716  -24.1870   -4.8359 H         1 HPU203      0.0000 
     30 H          11.9465  -24.1659   -6.1687 H         1 HPU203      0.0000 
     31 H          15.7812  -27.3623   -3.9593 H         1 HPU203      0.0000 
     32 H          10.7342  -32.2214   -7.5388 H         1 HPU203      0.0000 
     33 H          11.4574  -32.4974   -9.7140 H         1 HPU203      0.0000 
     34 H          10.6140  -32.9795  -11.9363 H         1 HPU203      0.0000 
     35 H           9.3275  -31.3027  -13.1404 H         1 HPU203      0.0000 
     36 H           8.8915  -29.1514  -12.1110 H         1 HPU203      0.0000 
     37 H           9.7093  -28.6729   -9.8801 H         1 HPU203      0.0000 
     38 H          15.4419  -25.3122   -1.4374 H         1 HPU203      0.0000 
     39 H          16.1181  -23.8778   -1.7046 H         1 HPU203      0.0000 
     40 H          14.6651  -24.2072   -2.3101 H         1 HPU203      0.0000 
@<TRIPOS>BOND
     1    8    1 2    
     2   19    1 1    
     3   26    1 1    
     4    6    2 ar   
     5    7    2 ar   
     6   27    2 1    
     7    4    3 ar   
     8    5    3 ar   
     9   13    3 1    
    10    7    4 ar   
    11   28    4 1    
    12    6    5 ar   
    13   29    5 1    
    14   30    6 1    
    15    8    7 1    
    16   14    8 1    
    17   10    9 1    
    18   38    9 1    
    19   39    9 1    
    20   40    9 1    
    21   11   10 2    
    22   12   10 2    
    23   13   10 1    
    24   31   13 1    
    25   15   14 1    
    26   16   14 am   
    27   17   16 2    
    28   18   16 1    
    29   19   18 2    
    30   32   18 1    
    31   20   19 1    
    32   21   20 ar   
    33   25   20 ar   
    34   22   21 ar   
    35   33   21 1    
    36   23   22 ar   
    37   34   22 1    
    38   24   23 ar   
    39   35   23 1    
    40   25   24 ar   
    41   36   24 1    
    42   37   25 1    
@<TRIPOS>SUBSTRUCTURE
     1 HPU203      1 GROUP   
@<TRIPOS>SET

