#    Name: 1qfz_NDP_2_INTS_M
#    Modification time : Mon Mar 24 23:25:03 2014

@<TRIPOS>MOLECULE
1qfz_NDP_2_INTS_M
   98     0    12     0     0
SMALL
NO_CHARGES


@<TRIPOS>ATOM
      1 CA          7.4950    1.4195   -4.7920 C.3       4 GLC5        0.0000 
      2 CA          8.0110    1.4420   -6.7440 C.3      12 GLL5        0.0000 
      3 CA          6.9790    1.3970   -2.8400 C.3       8 GLP5        0.0000 
      4 O          11.2575   -1.3930   -9.2275 O.2       1 ALC1        0.0000 
      5 O          10.3350   -0.8300   -8.3070 O.2       9 ALL1        0.0000 
      6 O          12.1800   -1.9560  -10.1480 O.2       5 ALP1        0.0000 
      7 CA          2.3355   -1.0025  -11.8250 C.3       4 GLC5        0.0000 
      8 CA          4.0860   -0.4730  -12.7350 C.3      12 GLL5        0.0000 
      9 CA          0.5850   -1.5320  -10.9150 C.3       8 GLP5        0.0000 
     10 O           1.8225   -0.1720  -13.5825 O.2       1 ALC1        0.0000 
     11 O           3.4270    0.2010  -13.6670 O.2       9 ALL1        0.0000 
     12 O           0.2180   -0.5450  -13.4980 O.2       5 ALP1        0.0000 
     13 CA          4.3135   -2.1075   -9.2030 C.3       4 GLC5        0.0000 
     14 CA          4.3750   -2.3990  -11.4240 C.3      12 GLL5        0.0000 
     15 CA          4.2520   -1.8160   -6.9820 C.3       8 GLP5        0.0000 
     16 CA          5.7620   -3.8680  -11.8770 C.3       4 GLC5        0.0000 
     17 CA          7.1490   -5.3370  -12.3300 C.3       8 GLP5        0.0000 
     18 CA          3.8980   -3.8965  -10.0900 C.3       4 GLC5        0.0000 
     19 CA          3.4210   -5.3940   -8.7560 C.3       8 GLP5        0.0000 
     20 CA          2.4800   -1.9655  -11.1695 C.3       4 GLC5        0.0000 
     21 NZ          9.6900    6.9165   -4.6500 N.4       3 LYC4        0.0000 
     22 NZ          8.1310    6.4680   -4.7980 N.4      11 LYL4        0.0000 
     23 NZ         11.2490    7.3650   -4.5020 N.4       7 LYP4        0.0000 
     24 N           9.6900    6.9165   -4.6500 N.am      2 SEC2        0.0000 
     25 N           8.1310    6.4680   -4.7980 N.am     10 SEL2        0.0000 
     26 N          11.2490    7.3650   -4.5020 N.am      6 SEP2        0.0000 
     27 N           6.7030    3.8085   -2.1665 N.am      2 SEC2        0.0000 
     28 N           7.3790    4.7030   -3.1330 N.am     10 SEL2        0.0000 
     29 N           6.0270    2.9140   -1.2000 N.am      6 SEP2        0.0000 
     30 CA          5.1690    5.3895   -1.8195 C.3       4 GLC5        0.0000 
     31 CA          4.8710    5.9230   -3.9100 C.3      12 GLL5        0.0000 
     32 CA          5.4670    4.8560    0.2710 C.3       8 GLP5        0.0000 
     33 O          -0.3250    8.0735   -5.0080 O.2       1 ALC1        0.0000 
     34 O           1.2530    8.2920   -5.2690 O.2       9 ALL1        0.0000 
     35 O          -1.9030    7.8550   -4.7470 O.2       5 ALP1        0.0000 
     36 CA          1.1270    4.0450   -4.2075 C.3       4 GLC5        0.0000 
     37 CA          1.3700    6.0920   -4.2250 C.3      12 GLL5        0.0000 
     38 CA          0.8840    1.9980   -4.1900 C.3       8 GLP5        0.0000 
     39 CA          0.1790    3.7900   -3.4875 C.3       4 GLC5        0.0000 
     40 CA         -0.5260    5.5820   -2.7850 C.3      12 GLL5        0.0000 
     41 CA         -1.7215    6.7180   -4.2610 C.3       4 GLC5        0.0000 
     42 CA         -2.9170    7.8540   -5.7370 C.3       8 GLP5        0.0000 
     43 O          -2.5610    4.7005    1.1180 O.2       1 ALC1        0.0000 
     44 O          -3.0880    4.7400   -0.3350 O.2       9 ALL1        0.0000 
     45 O          -2.0340    4.6610    2.5710 O.2       5 ALP1        0.0000 
     46 O          -4.5310    4.2835    0.3425 O.2       1 ALC1        0.0000 
     47 O          -5.9740    3.8270    1.0200 O.2       5 ALP1        0.0000 
     48 CA         -0.7035    4.6970    1.5750 C.3       4 GLC5        0.0000 
     49 CA         -0.2590    4.7980   -0.5260 C.3      12 GLL5        0.0000 
     50 CA         -1.1480    4.5960    3.6760 C.3       8 GLP5        0.0000 
     51 CA          1.2900    3.6330   -3.0245 C.3       4 GLC5        0.0000 
     52 CA          1.6960    5.2680   -1.8590 C.3      12 GLL5        0.0000 
     53 NZ         13.2655    2.4540  -10.6195 N.4       3 LYC4        0.0000 
     54 NZ         11.3390    2.1240  -10.6190 N.4      11 LYL4        0.0000 
     55 NZ         15.1920    2.7840  -10.6200 N.4       7 LYP4        0.0000 
     56 NZ         12.4955   -0.2150  -13.2215 N.4       3 LYC4        0.0000 
     57 NZ         12.2050    0.2540  -11.8040 N.4      11 LYL4        0.0000 
     58 NZ         12.7860   -0.6840  -14.6390 N.4       7 LYP4        0.0000 
     59 N          12.1925   -0.8510  -10.9760 N.am      2 SEC2        0.0000 
     60 N          12.2050    0.2540  -11.8040 N.am     10 SEL2        0.0000 
     61 N          12.1800   -1.9560  -10.1480 N.am      6 SEP2        0.0000 
     62 N          13.0955    1.6440  -11.4610 N.am      2 SEC2        0.0000 
     63 N          13.9860    3.0340  -11.1180 N.am      6 SEP2        0.0000 
     64 N          12.4955   -0.2150  -13.2215 N.am      2 SEC2        0.0000 
     65 N          12.7860   -0.6840  -14.6390 N.am      6 SEP2        0.0000 
     66 NZ         11.5610    0.3980  -13.6735 N.4       3 LYC4        0.0000 
     67 NZ         10.3360    1.4800  -12.7080 N.4      11 LYL4        0.0000 
     68 CA          6.2575    0.1165   -6.5873 C.3       4 GLC5        0.0000 
     69 CA          8.4010    0.1940   -7.4530 C.3      12 GLL5        0.0000 
     70 CA          4.3090   -0.5850   -6.0760 C.3       8 GLP5        0.0000 
     71 CA          6.6760    1.6740   -8.0787 C.3       4 GLC5        0.0000 
     72 CA          5.1460    2.5300   -9.0590 C.3       8 GLP5        0.0000 
     73 CA          9.8830   -0.7785   -6.4295 C.3       4 GLC5        0.0000 
     74 CA         10.7830   -1.8420   -4.9310 C.3       8 GLP5        0.0000 
     75 CA         10.6062    0.6275   -6.7869 C.3       4 GLC5        0.0000 
     76 CA          9.5650    0.3760   -8.4030 C.3      12 GLL5        0.0000 
     77 CA         12.3270    0.6580   -5.8230 C.3       8 GLP5        0.0000 
     78 CA          8.6653   -0.9430  -11.3320 C.3       4 GLC5        0.0000 
     79 CA          9.0050    0.5330   -9.7660 C.3      12 GLL5        0.0000 
     80 CA          8.9330   -2.0180  -12.9340 C.3       8 GLP5        0.0000 
     81 CA          6.7717    1.3310   -9.3945 C.3       4 GLC5        0.0000 
     82 CA          7.7900   -0.2690   -9.6940 C.3      12 GLL5        0.0000 
     83 CA          5.3293    1.1260  -10.3390 C.3       4 GLC5        0.0000 
     84 CA          5.8480   -0.6250  -11.1420 C.3      12 GLL5        0.0000 
     85 CA          4.2855    5.3410   -6.0648 C.3       4 GLC5        0.0000 
     86 CA          3.6510    6.4210   -4.6130 C.3      12 GLL5        0.0000 
     87 CA          4.3100    4.5100   -7.8680 C.3       8 GLP5        0.0000 
     88 CA          1.6895    9.0873   -2.9265 C.3       4 GLC5        0.0000 
     89 CA          3.1200    7.6700   -3.9360 C.3      12 GLL5        0.0000 
     90 CA          0.9950   10.5520   -1.8440 C.3       8 GLP5        0.0000 
     91 CA          3.4422    4.9573   -0.4948 C.3       4 GLC5        0.0000 
     92 CA          1.1390    4.8490   -0.6620 C.3      12 GLL5        0.0000 
     93 CA         -0.6718    3.2015   -0.6432 C.3       4 GLC5        0.0000 
     94 CA         -1.5750    1.4860   -0.4230 C.3       8 GLP5        0.0000 
     95 CA          1.6300    3.2579   -0.9982 C.3       4 GLC5        0.0000 
     96 CA          2.1920    1.4700   -0.7700 C.3       8 GLP5        0.0000 
     97 CA          1.3190    6.9039   -0.7163 C.3       4 GLC5        0.0000 
     98 CA          1.5700    8.7620   -0.2060 C.3       8 GLP5        0.0000 
@<TRIPOS>BOND
@<TRIPOS>SUBSTRUCTURE
     1 ALC1        4 GROUP        1 X    ALC  0     ROOT ALC X 1
     2 SEC2       24 GROUP        1 X    SEC  0     **** SEC X 2
     3 LYC4       21 GROUP        1 X    LYC  0     **** LYC X 4
     4 GLC5        1 GROUP        1 X    GLC  0     **** GLC X 6
     5 ALP1        6 GROUP        1 Y    ALP  0     ROOT ALP Y 8
     6 SEP2       26 GROUP        1 Y    SEP  0     **** SEP Y 9
     7 LYP4       23 GROUP        1 Y    LYP  0     **** LYP Y 11
     8 GLP5        3 GROUP        1 Y    GLP  0     **** GLP Y 13
     9 ALL1        5 GROUP        1 Z    ALL  0     ROOT ALL Z 15
    10 SEL2       25 GROUP        1 Z    SEL  0     **** SEL Z 16
    11 LYL4       22 GROUP        1 Z    LYL  0     **** LYL Z 18
    12 GLL5        2 GROUP        1 Z    GLL  0     **** GLL Z 20
@<TRIPOS>SET

