#    Name: 1qfz_NDP_2_ligand
#    Modification time : Mon Mar 24 23:25:04 2014

@<TRIPOS>MOLECULE
1qfz_NDP_2_ligand
   74    78     1     0     0
SMALL
NO_CHARGES


@<TRIPOS>ATOM
      1 PA          8.6380    3.9210   -6.7550 P.3       1 NDP310      0.0000 
      2 O1A         8.7100    4.9810   -7.7970 O.co2     1 NDP310      0.0000 
      3 O2A         9.8580    3.8270   -5.9050 O.co2     1 NDP310      0.0000 
      4 O5B         8.6860    2.5060   -7.3590 O.3       1 NDP310      0.0000 
      5 C5B         8.0110    1.4420   -6.7440 C.3       1 NDP310      0.0000 
      6 C4B         8.4010    0.1940   -7.4530 C.3       1 NDP310      0.0000 
      7 O4B         7.2760   -0.1670   -8.3350 O.3       1 NDP310      0.0000 
      8 C3B         9.5650    0.3760   -8.4030 C.3       1 NDP310      0.0000 
      9 O3B        10.3350   -0.8300   -8.3070 O.3       1 NDP310      0.0000 
     10 C2B         9.0050    0.5330   -9.7660 C.3       1 NDP310      0.0000 
     11 O2B         9.9330    0.0210  -10.7220 O.3       1 NDP310      0.0000 
     12 C1B         7.7900   -0.2690   -9.6940 C.3       1 NDP310      0.0000 
     13 N9A         6.8310    0.1400  -10.7290 N.pl3     1 NDP310      0.0000 
     14 C8A         6.7760    1.3090  -11.4220 C.2       1 NDP310      0.0000 
     15 N7A         5.7310    1.2530  -12.2810 N.2       1 NDP310      0.0000 
     16 C5A         5.1770    0.0690  -12.0960 C.ar      1 NDP310      0.0000 
     17 C6A         4.0860   -0.4730  -12.7350 C.ar      1 NDP310      0.0000 
     18 N6A         3.4270    0.2010  -13.6670 N.pl3     1 NDP310      0.0000 
     19 N1A         3.7010   -1.7150  -12.3730 N.ar      1 NDP310      0.0000 
     20 C2A         4.3750   -2.3990  -11.4240 C.ar      1 NDP310      0.0000 
     21 N3A         5.4400   -1.8650  -10.8100 N.ar      1 NDP310      0.0000 
     22 C4A         5.8480   -0.6250  -11.1420 C.ar      1 NDP310      0.0000 
     23 O3          7.5430    4.0600   -5.4930 O.3       1 NDP310      0.0000 
     24 PN          7.3020    5.3040   -4.4680 P.3       1 NDP310      0.0000 
     25 O1N         8.1310    6.4680   -4.7980 O.co2     1 NDP310      0.0000 
     26 O2N         7.3790    4.7030   -3.1330 O.co2     1 NDP310      0.0000 
     27 O5D         5.8070    5.5640   -4.8900 O.3       1 NDP310      0.0000 
     28 C5D         4.8710    5.9230   -3.9100 C.3       1 NDP310      0.0000 
     29 C4D         3.6510    6.4210   -4.6130 C.3       1 NDP310      0.0000 
     30 O4D         2.6210    5.4180   -4.5280 O.3       1 NDP310      0.0000 
     31 C3D         3.1200    7.6700   -3.9360 C.3       1 NDP310      0.0000 
     32 O3D         3.6360    8.8440   -4.5590 O.3       1 NDP310      0.0000 
     33 C2D         1.6480    7.5750   -4.0820 C.3       1 NDP310      0.0000 
     34 O2D         1.2530    8.2920   -5.2690 O.3       1 NDP310      0.0000 
     35 C1D         1.3700    6.0920   -4.2250 C.3       1 NDP310      0.0000 
     36 N1N         0.8470    5.6350   -2.9140 N.pl3     1 NDP310      0.0000 
     37 C2N        -0.5260    5.5820   -2.7850 C.2       1 NDP310      0.0000 
     38 C3N        -1.0930    5.1720   -1.6040 C.2       1 NDP310      0.0000 
     39 C7N        -2.6010    5.1420   -1.5060 C.2       1 NDP310      0.0000 
     40 O7N        -3.2800    5.4880   -2.4710 O.2       1 NDP310      0.0000 
     41 N7N        -3.0880    4.7400   -0.3350 N.am      1 NDP310      0.0000 
     42 C4N        -0.2590    4.7980   -0.5260 C.3       1 NDP310      0.0000 
     43 C5N         1.1390    4.8490   -0.6620 C.2       1 NDP310      0.0000 
     44 C6N         1.6960    5.2680   -1.8590 C.2       1 NDP310      0.0000 
     45 P2B        10.9870    0.9990  -11.4760 P.3       1 NDP310      0.0000 
     46 O1X        11.3390    2.1240  -10.6190 O.co2     1 NDP310      0.0000 
     47 O2X        12.2050    0.2540  -11.8040 O.co2     1 NDP310      0.0000 
     48 O3X        10.3360    1.4800  -12.7080 O.co2     1 NDP310      0.0000 
     49 H           6.9240    1.5536   -6.8083 H         1 NDP310      0.0000 
     50 H           8.2802    1.3409   -5.6879 H         1 NDP310      0.0000 
     51 H           8.5954   -0.5943   -6.7859 H         1 NDP310      0.0000 
     52 H          10.1110    1.2262   -8.1136 H         1 NDP310      0.0000 
     53 H           8.7629    1.5514   -9.9187 H         1 NDP310      0.0000 
     54 H           8.0787   -1.3219   -9.8755 H         1 NDP310      0.0000 
     55 H           7.3817    2.0514  -11.3165 H         1 NDP310      0.0000 
     56 H           2.6186   -0.2489  -14.0466 H         1 NDP310      0.0000 
     57 H           3.7979    1.0983  -13.9062 H         1 NDP310      0.0000 
     58 H           4.0557   -3.3664  -11.1653 H         1 NDP310      0.0000 
     59 H           5.2423    6.7189   -3.2576 H         1 NDP310      0.0000 
     60 H           4.5851    5.0735   -3.2826 H         1 NDP310      0.0000 
     61 H           3.8797    6.6487   -5.6284 H         1 NDP310      0.0000 
     62 H           3.3715    7.6087   -2.8962 H         1 NDP310      0.0000 
     63 H           1.1793    7.9344   -3.2087 H         1 NDP310      0.0000 
     64 H           0.6476    5.9495   -4.9815 H         1 NDP310      0.0000 
     65 H          -1.1267    5.8526   -3.5823 H         1 NDP310      0.0000 
     66 H          -4.0841    4.6818   -0.2694 H         1 NDP310      0.0000 
     67 H          -2.4140    4.5323    0.3739 H         1 NDP310      0.0000 
     68 H          -0.5614    3.7376   -0.1785 H         1 NDP310      0.0000 
     69 H          -0.5657    5.4107    0.4053 H         1 NDP310      0.0000 
     70 H           1.7348    4.5759    0.1251 H         1 NDP310      0.0000 
     71 H           2.7083    5.3120   -1.9799 H         1 NDP310      0.0000 
     72 H          10.8646   -0.8669   -9.1545 H         1 NDP310      0.0000 
     73 H           2.8565    9.2456   -5.0397 H         1 NDP310      0.0000 
     74 H           0.2532    8.2736   -5.2617 H         1 NDP310      0.0000 
@<TRIPOS>BOND
     1    2    1 ar   
     2    3    1 ar   
     3    4    1 1    
     4   23    1 1    
     5    5    4 1    
     6    6    5 1    
     7   49    5 1    
     8   50    5 1    
     9    7    6 1    
    10    8    6 1    
    11   51    6 1    
    12   12    7 1    
    13    9    8 1    
    14   10    8 1    
    15   52    8 1    
    16   72    9 1    
    17   11   10 1    
    18   12   10 1    
    19   53   10 1    
    20   45   11 1    
    21   13   12 1    
    22   54   12 1    
    23   14   13 1    
    24   22   13 1    
    25   15   14 2    
    26   55   14 1    
    27   16   15 1    
    28   17   16 ar   
    29   22   16 ar   
    30   18   17 1    
    31   19   17 ar   
    32   56   18 1    
    33   57   18 1    
    34   20   19 ar   
    35   21   20 ar   
    36   58   20 1    
    37   22   21 ar   
    38   24   23 1    
    39   25   24 ar   
    40   26   24 ar   
    41   27   24 1    
    42   28   27 1    
    43   29   28 1    
    44   59   28 1    
    45   60   28 1    
    46   30   29 1    
    47   31   29 1    
    48   61   29 1    
    49   35   30 1    
    50   32   31 1    
    51   33   31 1    
    52   62   31 1    
    53   73   32 1    
    54   34   33 1    
    55   35   33 1    
    56   63   33 1    
    57   74   34 1    
    58   36   35 1    
    59   64   35 1    
    60   37   36 1    
    61   44   36 1    
    62   38   37 2    
    63   65   37 1    
    64   39   38 1    
    65   42   38 1    
    66   40   39 2    
    67   41   39 am   
    68   66   41 1    
    69   67   41 1    
    70   43   42 1    
    71   68   42 1    
    72   69   42 1    
    73   44   43 2    
    74   70   43 1    
    75   71   44 1    
    76   46   45 ar   
    77   47   45 ar   
    78   48   45 ar   
@<TRIPOS>SUBSTRUCTURE
     1 NDP310      1 GROUP   
@<TRIPOS>SET

