#    Name: 1sb8_UD2_1_INTS_M
#    Modification time : Tue Mar 25 02:13:05 2014

@<TRIPOS>MOLECULE
1sb8_UD2_1_INTS_M
   98     0    12     0     0
SMALL
NO_CHARGES


@<TRIPOS>ATOM
      1 CA         40.3640    5.3170   85.3035 C.3       4 GLC5        0.0000 
      2 CA         39.6140    3.9770   86.5930 C.3      12 GLL5        0.0000 
      3 CA         41.1140    6.6570   84.0140 C.3       8 GLP5        0.0000 
      4 CA         38.0380    3.0360   84.3840 C.3       4 GLC5        0.0000 
      5 CA         38.5700    2.8810   86.3960 C.3      12 GLL5        0.0000 
      6 CA         37.5060    3.1910   82.3720 C.3       8 GLP5        0.0000 
      7 CA         44.8265    2.0695   85.7090 C.3       4 GLC5        0.0000 
      8 CA         42.8080    2.1740   86.3780 C.3      12 GLL5        0.0000 
      9 CA         46.8450    1.9650   85.0400 C.3       8 GLP5        0.0000 
     10 CA         44.2550    3.8200   86.1665 C.3       4 GLC5        0.0000 
     11 CA         45.7020    5.4660   85.9550 C.3       8 GLP5        0.0000 
     12 CA         42.9665    1.7365   84.6690 C.3       4 GLC5        0.0000 
     13 CA         43.1250    1.2990   82.9600 C.3       8 GLP5        0.0000 
     14 CA         34.6905    4.1335   88.5725 C.3       4 GLC5        0.0000 
     15 CA         34.9100    3.6670   86.7580 C.3      12 GLL5        0.0000 
     16 CA         34.4710    4.6000   90.3870 C.3       8 GLP5        0.0000 
     17 CA         34.3285    5.3880   85.7995 C.3       4 GLC5        0.0000 
     18 CA         33.7470    7.1090   84.8410 C.3       8 GLP5        0.0000 
     19 CA         33.2675    3.4280   87.4245 C.3       4 GLC5        0.0000 
     20 CA         31.6250    3.1890   88.0910 C.3       8 GLP5        0.0000 
     21 O          36.8465    2.7335   88.4340 O.2       1 ALC1        0.0000 
     22 O          37.2920    3.2840   86.9980 O.2       9 ALL1        0.0000 
     23 O          36.4010    2.1830   89.8700 O.2       5 ALP1        0.0000 
     24 N          38.5020    0.3740   84.9850 N.am      2 SEC2        0.0000 
     25 N          38.2050    0.5190   86.6530 N.am     10 SEL2        0.0000 
     26 N          38.7990    0.2290   83.3170 N.am      6 SEP2        0.0000 
     27 N          36.6680    0.4490   86.3515 N.am      2 SEC2        0.0000 
     28 N          35.1310    0.3790   86.0500 N.am      6 SEP2        0.0000 
     29 O          38.5020    0.3740   84.9850 O.2       1 ALC1        0.0000 
     30 O          38.2050    0.5190   86.6530 O.2       9 ALL1        0.0000 
     31 O          38.7990    0.2290   83.3170 O.2       5 ALP1        0.0000 
     32 N          39.6350    0.6005   84.2430 N.am      2 SEC2        0.0000 
     33 N          40.4710    0.9720   85.1690 N.am     10 SEL2        0.0000 
     34 N          41.7070    0.5565   84.4295 N.am      2 SEC2        0.0000 
     35 N          42.9430    0.1410   83.6900 N.am      6 SEP2        0.0000 
     36 N          44.7500    3.5465   86.4345 N.am      2 SEC2        0.0000 
     37 N          43.6530    3.0650   87.0900 N.am     10 SEL2        0.0000 
     38 N          45.8470    4.0280   85.7790 N.am      6 SEP2        0.0000 
     39 O          40.8115   13.3175   96.1620 O.2       1 ALC1        0.0000 
     40 O          41.0310   12.4920   95.1370 O.2       9 ALL1        0.0000 
     41 O          40.5920   14.1430   97.1870 O.2       5 ALP1        0.0000 
     42 CA         42.2130    8.9295   94.9270 C.3       4 GLC5        0.0000 
     43 CA         42.4160   10.8010   94.0630 C.3      12 GLL5        0.0000 
     44 CA         42.0100    7.0580   95.7910 C.3       8 GLP5        0.0000 
     45 CA         40.9080    8.8940   94.4315 C.3       4 GLC5        0.0000 
     46 CA         41.2940   10.4170   93.3930 C.3      12 GLL5        0.0000 
     47 CA         40.5220    7.3710   95.4700 C.3       8 GLP5        0.0000 
     48 N          38.4445   13.9575   94.4185 N.am      2 SEC2        0.0000 
     49 N          38.8410   12.6330   94.6130 N.am     10 SEL2        0.0000 
     50 N          38.0480   15.2820   94.2240 N.am      6 SEP2        0.0000 
     51 N          42.2695   11.8830   97.0320 N.am      2 SEC2        0.0000 
     52 N          43.2460   12.3630   95.6870 N.am     10 SEL2        0.0000 
     53 N          41.2930   11.4030   98.3770 N.am      6 SEP2        0.0000 
     54 CA         39.4370    9.4850   94.6350 C.3       4 GLC5        0.0000 
     55 CA         38.8870   10.5510   92.8210 C.3      12 GLL5        0.0000 
     56 CA         39.9870    8.4190   96.4490 C.3       8 GLP5        0.0000 
     57 CA         37.1715   10.7795   93.5835 C.3       4 GLC5        0.0000 
     58 CA         35.4560   11.0080   94.3460 C.3       8 GLP5        0.0000 
     59 N          39.7915   12.7445   91.2815 N.am      2 SEC2        0.0000 
     60 N          38.8590   11.7210   90.7160 N.am     10 SEL2        0.0000 
     61 N          40.7240   13.7680   91.8470 N.am      6 SEP2        0.0000 
     62 CA         39.2025    7.9675   93.8000 C.3       4 GLC5        0.0000 
     63 CA         37.8830    8.5640   92.1300 C.3      12 GLL5        0.0000 
     64 CA         36.7860    8.6555   93.7505 C.3       4 GLC5        0.0000 
     65 CA         35.6890    8.7470   95.3710 C.3       8 GLP5        0.0000 
     66 O          36.9885    9.8750   89.1340 O.2       1 ALC1        0.0000 
     67 O          36.8030   10.1250   90.6980 O.2       9 ALL1        0.0000 
     68 O          37.1740    9.6250   87.5700 O.2       5 ALP1        0.0000 
     69 O          36.3315   10.6635   89.5290 O.2       1 ALC1        0.0000 
     70 O          35.8600   11.2020   88.3600 O.2       5 ALP1        0.0000 
     71 CA         39.1455    6.6630   93.7150 C.3       4 GLC5        0.0000 
     72 CA         38.6040    7.2320   91.9240 C.3      12 GLL5        0.0000 
     73 CA         39.6870    6.0940   95.5060 C.3       8 GLP5        0.0000 
     74 NZ         41.9550    8.0165   89.6615 N.4       3 LYC4        0.0000 
     75 NZ         42.3140    6.8720   90.4870 N.4      11 LYL4        0.0000 
     76 NZ         42.0880   10.3710   89.0690 N.4       7 LYP4        0.0000 
     77 N          41.9550    8.0165   89.6615 N.am      2 SEC2        0.0000 
     78 N          42.3140    6.8720   90.4870 N.am     10 SEL2        0.0000 
     79 N          41.5960    9.1610   88.8360 N.am      6 SEP2        0.0000 
     80 N          41.8345    5.9495   93.5955 N.am      2 SEC2        0.0000 
     81 N          41.0460    5.5850   92.4960 N.am     10 SEL2        0.0000 
     82 N          42.6230    6.3140   94.6950 N.am      6 SEP2        0.0000 
     83 NZ         36.6670    6.6180   88.6525 N.4       3 LYC4        0.0000 
     84 NZ         37.8380    5.6720   88.8250 N.4      11 LYL4        0.0000 
     85 NZ         34.7110    6.7240   89.1430 N.4       7 LYP4        0.0000 
     86 N          37.8700    4.5335   89.9245 N.am      2 SEC2        0.0000 
     87 N          37.8380    5.6720   88.8250 N.am     10 SEL2        0.0000 
     88 N          37.9020    3.3950   91.0240 N.am      6 SEP2        0.0000 
     89 N          36.5320    5.6400   89.2385 N.am      2 SEC2        0.0000 
     90 N          35.2260    5.6080   89.6520 N.am      6 SEP2        0.0000 
     91 N          36.6670    6.6180   88.6525 N.am      2 SEC2        0.0000 
     92 N          35.4960    7.5640   88.4800 N.am      6 SEP2        0.0000 
     93 CA         41.5165    2.0415   84.7750 C.3       4 GLC5        0.0000 
     94 CA         40.4900    1.2700   86.5680 C.3      12 GLL5        0.0000 
     95 CA         42.0890    2.2190   82.8570 C.3       8 GLP5        0.0000 
     96 CA         40.6659    0.0760   87.1434 C.3       4 GLC5        0.0000 
     97 CA         41.3980    2.4580   86.8180 C.3      12 GLL5        0.0000 
     98 CA         40.7430   -1.7920   87.4780 C.3       8 GLP5        0.0000 
@<TRIPOS>BOND
@<TRIPOS>SUBSTRUCTURE
     1 ALC1       21 GROUP        1 X    ALC  0     ROOT ALC X 1
     2 SEC2       24 GROUP        1 X    SEC  0     **** SEC X 2
     3 LYC4       74 GROUP        1 X    LYC  0     **** LYC X 4
     4 GLC5        1 GROUP        1 X    GLC  0     **** GLC X 6
     5 ALP1       23 GROUP        1 Y    ALP  0     ROOT ALP Y 8
     6 SEP2       26 GROUP        1 Y    SEP  0     **** SEP Y 9
     7 LYP4       76 GROUP        1 Y    LYP  0     **** LYP Y 11
     8 GLP5        3 GROUP        1 Y    GLP  0     **** GLP Y 13
     9 ALL1       22 GROUP        1 Z    ALL  0     ROOT ALL Z 15
    10 SEL2       25 GROUP        1 Z    SEL  0     **** SEL Z 16
    11 LYL4       75 GROUP        1 Z    LYL  0     **** LYL Z 18
    12 GLL5        2 GROUP        1 Z    GLL  0     **** GLL Z 20
@<TRIPOS>SET

