#    Name: 1sb8_UD2_1_ligand
#    Modification time : Tue Mar 25 02:13:05 2014

@<TRIPOS>MOLECULE
1sb8_UD2_1_ligand
   64    66     1     0     0
SMALL
NO_CHARGES


@<TRIPOS>ATOM
      1 C1'        39.6140    3.9770   86.5930 C.3       1 UD2343      0.0000 
      2 C2'        38.5700    2.8810   86.3960 C.3       1 UD2343      0.0000 
      3 C3'        39.0690    1.5900   87.0310 C.3       1 UD2343      0.0000 
      4 C4'        40.4900    1.2700   86.5680 C.3       1 UD2343      0.0000 
      5 C5'        41.3980    2.4580   86.8180 C.3       1 UD2343      0.0000 
      6 C6'        42.8080    2.1740   86.3780 C.3       1 UD2343      0.0000 
      7 C7'        36.3010    3.8160   86.1970 C.2       1 UD2343      0.0000 
      8 C8'        34.9100    3.6670   86.7580 C.3       1 UD2343      0.0000 
      9 N2'        37.2920    3.2840   86.9980 N.am      1 UD2343      0.0000 
     10 O1'        39.8850    4.1060   87.9790 O.3       1 UD2343      0.0000 
     11 O3'        38.2050    0.5190   86.6530 O.3       1 UD2343      0.0000 
     12 O4'        40.4710    0.9720   85.1690 O.3       1 UD2343      0.0000 
     13 O5'        40.8960    3.5850   86.0870 O.3       1 UD2343      0.0000 
     14 O6'        43.6530    3.0650   87.0900 O.3       1 UD2343      0.0000 
     15 O7'        36.5190    4.3640   85.1380 O.2       1 UD2343      0.0000 
     16 N1         40.0690   11.0170   93.5580 N.am      1 UD2343      0.0000 
     17 C2         39.9120   12.0810   94.4460 C.2       1 UD2343      0.0000 
     18 N3         41.0310   12.4920   95.1370 N.am      1 UD2343      0.0000 
     19 C4         42.3010   11.9430   95.0340 C.2       1 UD2343      0.0000 
     20 C5         42.4160   10.8010   94.0630 C.2       1 UD2343      0.0000 
     21 C6         41.2940   10.4170   93.3930 C.2       1 UD2343      0.0000 
     22 O2         38.8410   12.6330   94.6130 O.2       1 UD2343      0.0000 
     23 O4         43.2460   12.3630   95.6870 O.2       1 UD2343      0.0000 
     24 C1B        38.8870   10.5510   92.8210 C.3       1 UD2343      0.0000 
     25 C2B        39.0630   10.4560   91.3340 C.3       1 UD2343      0.0000 
     26 O2'        38.8590   11.7210   90.7160 O.3       1 UD2343      0.0000 
     27 C3B        38.0400    9.4620   90.9140 C.3       1 UD2343      0.0000 
     28 C4B        37.8830    8.5640   92.1300 C.3       1 UD2343      0.0000 
     29 O4B        38.4780    9.2500   93.2450 O.3       1 UD2343      0.0000 
     30 O3B        36.8030   10.1250   90.6980 O.3       1 UD2343      0.0000 
     31 C5B        38.6040    7.2320   91.9240 C.3       1 UD2343      0.0000 
     32 O5B        39.8430    7.5160   91.3190 O.3       1 UD2343      0.0000 
     33 PA         40.9220    6.3360   91.0730 P.3       1 UD2343      0.0000 
     34 O1A        42.3140    6.8720   90.4870 O.co2     1 UD2343      0.0000 
     35 O2A        41.0460    5.5850   92.4960 O.co2     1 UD2343      0.0000 
     36 O3A        40.1600    5.2760   90.1450 O.3       1 UD2343      0.0000 
     37 PB         39.4270    5.4450   88.7240 P.3       1 UD2343      0.0000 
     38 O1B        37.8380    5.6720   88.8250 O.co2     1 UD2343      0.0000 
     39 O2B        40.2380    6.6350   88.0050 O.co2     1 UD2343      0.0000 
     40 H          39.2872    4.8789   86.1771 H         1 UD2343      0.0000 
     41 H          38.4501    2.7151   85.3368 H         1 UD2343      0.0000 
     42 H          39.0825    1.7180   88.1003 H         1 UD2343      0.0000 
     43 H          40.8502    0.4339   87.1397 H         1 UD2343      0.0000 
     44 H          41.3993    2.6683   87.8784 H         1 UD2343      0.0000 
     45 H          42.8707    2.3272   85.3021 H         1 UD2343      0.0000 
     46 H          43.0355    1.1330   86.6009 H         1 UD2343      0.0000 
     47 H          37.1771    3.1566   87.9973 H         1 UD2343      0.0000 
     48 H          40.9131   13.3126   95.8190 H         1 UD2343      0.0000 
     49 H          43.3182   10.3788   93.9584 H         1 UD2343      0.0000 
     50 H          41.3646    9.6123   92.7062 H         1 UD2343      0.0000 
     51 H          38.0475   11.2489   92.9984 H         1 UD2343      0.0000 
     52 H          40.0356   10.0503   91.1406 H         1 UD2343      0.0000 
     53 H          38.3762    8.9003   90.1100 H         1 UD2343      0.0000 
     54 H          36.8469    8.3816   92.2976 H         1 UD2343      0.0000 
     55 H          37.9683    6.6058   91.3000 H         1 UD2343      0.0000 
     56 H          38.7138    6.7619   92.9000 H         1 UD2343      0.0000 
     57 H          34.6661    2.7071   86.8960 H         1 UD2343      0.0000 
     58 H          34.8154    4.1236   87.6426 H         1 UD2343      0.0000 
     59 H          34.2202    4.0602   86.1500 H         1 UD2343      0.0000 
     60 H          38.5502    0.2084   85.7674 H         1 UD2343      0.0000 
     61 H          40.1873    1.8230   84.7271 H         1 UD2343      0.0000 
     62 H          43.2196    3.9615   86.9982 H         1 UD2343      0.0000 
     63 H          39.4468   11.7115   89.9070 H         1 UD2343      0.0000 
     64 H          36.8222   10.4018   89.7373 H         1 UD2343      0.0000 
@<TRIPOS>BOND
     1    2    1 1    
     2   10    1 1    
     3   13    1 1    
     4   40    1 1    
     5    3    2 1    
     6    9    2 1    
     7   41    2 1    
     8    4    3 1    
     9   11    3 1    
    10   42    3 1    
    11    5    4 1    
    12   12    4 1    
    13   43    4 1    
    14    6    5 1    
    15   13    5 1    
    16   44    5 1    
    17   14    6 1    
    18   45    6 1    
    19   46    6 1    
    20    8    7 1    
    21    9    7 am   
    22   15    7 2    
    23   57    8 1    
    24   58    8 1    
    25   59    8 1    
    26   47    9 1    
    27   37   10 1    
    28   60   11 1    
    29   61   12 1    
    30   62   14 1    
    31   17   16 1    
    32   21   16 1    
    33   24   16 1    
    34   18   17 1    
    35   22   17 2    
    36   19   18 1    
    37   48   18 1    
    38   20   19 1    
    39   23   19 2    
    40   21   20 2    
    41   49   20 1    
    42   50   21 1    
    43   25   24 1    
    44   29   24 1    
    45   51   24 1    
    46   26   25 1    
    47   27   25 1    
    48   52   25 1    
    49   63   26 1    
    50   28   27 1    
    51   30   27 1    
    52   53   27 1    
    53   29   28 1    
    54   31   28 1    
    55   54   28 1    
    56   64   30 1    
    57   32   31 1    
    58   55   31 1    
    59   56   31 1    
    60   33   32 1    
    61   34   33 ar   
    62   35   33 ar   
    63   36   33 1    
    64   37   36 1    
    65   38   37 ar   
    66   39   37 ar   
@<TRIPOS>SUBSTRUCTURE
     1 UD2343      1 GROUP   
@<TRIPOS>SET

