#    Name: 3pxv_FMN_3_INTS_M
#    Modification time : Tue Mar 25 08:41:54 2014

@<TRIPOS>MOLECULE
3pxv_FMN_3_INTS_M
   86     0    12     0     0
SMALL
NO_CHARGES


@<TRIPOS>ATOM
      1 N          -0.3000   17.2625   72.4415 N.am      2 SEC2        0.0000 
      2 N          -1.0990   18.5480   72.0710 N.am     10 SEL2        0.0000 
      3 N           0.4990   15.9770   72.8120 N.am      6 SEP2        0.0000 
      4 N          -0.9460   16.9450   74.5220 N.am      2 SEC2        0.0000 
      5 N          -2.0280   17.7730   73.9760 N.am     10 SEL2        0.0000 
      6 N           0.1360   16.1170   75.0680 N.am      6 SEP2        0.0000 
      7 N          -0.7645   16.8750   73.3940 N.am      2 SEC2        0.0000 
      8 O          -4.2820   19.0545   73.7820 O.2       1 ALC1        0.0000 
      9 O          -3.3180   19.1300   72.7290 O.2       9 ALL1        0.0000 
     10 O          -5.2460   18.9790   74.8350 O.2       5 ALP1        0.0000 
     11 N          -5.5985   21.3685   71.1170 N.am      2 SEC2        0.0000 
     12 N          -4.4910   20.4790   71.4070 N.am     10 SEL2        0.0000 
     13 N          -6.7060   22.2580   70.8270 N.am      6 SEP2        0.0000 
     14 N          -3.4100   21.9745   69.7705 N.am      2 SEC2        0.0000 
     15 N          -2.4850   20.7520   69.5260 N.am     10 SEL2        0.0000 
     16 N          -4.3350   23.1970   70.0150 N.am      6 SEP2        0.0000 
     17 CA         -2.1605   22.3210   70.3270 C.3       4 GLC5        0.0000 
     18 CA         -1.3590   20.9850   68.7360 C.3      12 GLL5        0.0000 
     19 CA         -2.9620   23.6570   71.9180 C.3       8 GLP5        0.0000 
     20 CA         -3.4275   22.6325   68.3835 C.3       4 GLC5        0.0000 
     21 CA         -1.4260   21.8980   67.6840 C.3      12 GLL5        0.0000 
     22 CA         -5.4290   23.3670   69.0830 C.3       8 GLP5        0.0000 
     23 CA         -1.8480   24.0635   67.6290 C.3       4 GLC5        0.0000 
     24 CA         -2.2700   26.2290   67.5740 C.3       8 GLP5        0.0000 
     25 CA          0.5190   24.0445   67.3070 C.3       4 GLC5        0.0000 
     26 CA         -0.4470   23.1680   65.7420 C.3      12 GLL5        0.0000 
     27 CA          1.4850   24.9210   68.8720 C.3       8 GLP5        0.0000 
     28 CA         -1.3585   24.6985   66.6580 C.3       4 GLC5        0.0000 
     29 CA         -0.5185   24.3675   64.3215 C.3       4 GLC5        0.0000 
     30 CA         -0.5900   25.5670   62.9010 C.3       8 GLP5        0.0000 
     31 CA          1.3270   23.7205   65.0980 C.3       4 GLC5        0.0000 
     32 CA          3.1010   24.2730   64.4540 C.3       8 GLP5        0.0000 
     33 CA          1.7725   23.3490   67.5620 C.3       4 GLC5        0.0000 
     34 CA          2.0600   21.7770   66.2520 C.3      12 GLL5        0.0000 
     35 CA          3.9465   21.3730   66.8660 C.3       4 GLC5        0.0000 
     36 CA          5.8330   20.9690   67.4800 C.3       8 GLP5        0.0000 
     37 CA          2.6815   18.6830   71.9915 C.3       4 GLC5        0.0000 
     38 CA          1.1430   18.7040   70.4550 C.3      12 GLL5        0.0000 
     39 CA          4.2200   18.6620   73.5280 C.3       8 GLP5        0.0000 
     40 CA          1.3050   19.8015   72.1960 C.3       4 GLC5        0.0000 
     41 CA          1.4670   20.8990   73.9370 C.3       8 GLP5        0.0000 
     42 N           0.7565   16.2030   71.2400 N.am      2 SEC2        0.0000 
     43 N           1.0140   16.4290   69.6680 N.am     10 SEL2        0.0000 
     44 CA          3.6770   18.1100   71.5255 C.3       4 GLC5        0.0000 
     45 CA          3.1340   17.5580   69.5230 C.3      12 GLL5        0.0000 
     46 CA          6.7970   15.1740   68.4705 C.3       4 GLC5        0.0000 
     47 CA          5.1250   16.2090   68.7790 C.3      12 GLL5        0.0000 
     48 CA          8.4690   14.1390   68.1620 C.3       8 GLP5        0.0000 
     49 N           6.7520   18.0460   73.0470 N.am      2 SEC2        0.0000 
     50 N           6.9350   16.9120   72.0130 N.am     10 SEL2        0.0000 
     51 N           6.5690   19.1800   74.0810 N.am      6 SEP2        0.0000 
     52 NZ          6.8175   19.9175   70.6830 N.4       3 LYC4        0.0000 
     53 NZ          6.0610   18.7160   70.5260 N.4      11 LYL4        0.0000 
     54 NZ          8.5890   21.1000   69.9890 N.4       7 LYP4        0.0000 
     55 N           6.8175   19.9175   70.6830 N.am      2 SEC2        0.0000 
     56 N           6.0610   18.7160   70.5260 N.am     10 SEL2        0.0000 
     57 N           7.5740   21.1190   70.8400 N.am      6 SEP2        0.0000 
     58 N           7.4585   19.3465   69.9325 N.am      2 SEC2        0.0000 
     59 N           8.8560   19.9770   69.3390 N.am      6 SEP2        0.0000 
     60 N           5.1245   18.9500   71.3695 N.am      2 SEC2        0.0000 
     61 N           4.1880   19.1840   72.2130 N.am      6 SEP2        0.0000 
     62 NZ          8.4065   18.6090   69.5850 N.4       3 LYC4        0.0000 
     63 NZ          7.9570   17.2410   69.8310 N.4      11 LYL4        0.0000 
     64 N           8.4065   18.6090   69.5850 N.am      2 SEC2        0.0000 
     65 N           7.9570   17.2410   69.8310 N.am     10 SEL2        0.0000 
     66 N           8.7260   16.0230   70.0670 N.am      2 SEC2        0.0000 
     67 N           9.4950   14.8050   70.3030 N.am      6 SEP2        0.0000 
     68 N           8.4285   16.8885   68.6955 N.am      2 SEC2        0.0000 
     69 N           8.9000   16.5360   67.5600 N.am      6 SEP2        0.0000 
     70 CA         -0.1898   22.6152   68.9920 C.3       4 GLC5        0.0000 
     71 CA          1.0130   23.7890   69.7740 C.3       8 GLP5        0.0000 
     72 CA         -0.9238   19.8738   66.7275 C.3       4 GLC5        0.0000 
     73 CA         -0.4550   18.3060   65.2450 C.3       8 GLP5        0.0000 
     74 CA          0.6370   22.8120   68.3842 C.3       4 GLC5        0.0000 
     75 CA         -0.3360   22.1690   66.8710 C.3      12 GLL5        0.0000 
     76 CA          2.3110   20.3675   65.5220 C.3       4 GLC5        0.0000 
     77 CA          0.8580   21.5010   67.1180 C.3      12 GLL5        0.0000 
     78 CA          3.1630   19.0960   64.3590 C.3       8 GLP5        0.0000 
     79 CA          2.2800   22.9560   65.5695 C.3       4 GLC5        0.0000 
     80 CA          0.3528   20.0560   65.9341 C.3       4 GLC5        0.0000 
     81 CA          0.6995   22.1183   69.1762 C.3       4 GLC5        0.0000 
     82 CA          0.9360   20.5840   68.1660 C.3      12 GLL5        0.0000 
     83 CA         -0.0345   19.3768   66.9117 C.3       4 GLC5        0.0000 
     84 CA          3.9407   14.8173   67.5845 C.3       4 GLC5        0.0000 
     85 CA          3.5860   16.2600   68.8930 C.3      12 GLL5        0.0000 
     86 CA          3.5260   13.4000   66.3330 C.3       8 GLP5        0.0000 
@<TRIPOS>BOND
@<TRIPOS>SUBSTRUCTURE
     1 ALC1        8 GROUP        1 X    ALC  0     ROOT ALC X 1
     2 SEC2        1 GROUP        1 X    SEC  0     **** SEC X 2
     3 LYC4       52 GROUP        1 X    LYC  0     **** LYC X 4
     4 GLC5       17 GROUP        1 X    GLC  0     **** GLC X 6
     5 ALP1       10 GROUP        1 Y    ALP  0     ROOT ALP Y 8
     6 SEP2        3 GROUP        1 Y    SEP  0     **** SEP Y 9
     7 LYP4       54 GROUP        1 Y    LYP  0     **** LYP Y 11
     8 GLP5       19 GROUP        1 Y    GLP  0     **** GLP Y 13
     9 ALL1        9 GROUP        1 Z    ALL  0     ROOT ALL Z 15
    10 SEL2        2 GROUP        1 Z    SEL  0     **** SEL Z 16
    11 LYL4       53 GROUP        1 Z    LYL  0     **** LYL Z 18
    12 GLL5       18 GROUP        1 Z    GLL  0     **** GLL Z 20
@<TRIPOS>SET

