#    Name: 3pxv_FMN_3_ligand
#    Modification time : Tue Mar 25 08:41:54 2014

@<TRIPOS>MOLECULE
3pxv_FMN_3_ligand
   50    52     1     0     0
SMALL
NO_CHARGES


@<TRIPOS>ATOM
      1 N1         -1.0990   18.5480   72.0710 N.2       1 FMN200      0.0000 
      2 C2         -2.1440   18.4560   72.9660 C.2       1 FMN200      0.0000 
      3 O2         -2.0280   17.7730   73.9760 O.2       1 FMN200      0.0000 
      4 N3         -3.3180   19.1300   72.7290 N.am      1 FMN200      0.0000 
      5 C4         -3.4360   19.8890   71.5910 C.2       1 FMN200      0.0000 
      6 O4         -4.4910   20.4790   71.4070 O.2       1 FMN200      0.0000 
      7 C4A        -2.3800   19.9900   70.6750 C.2       1 FMN200      0.0000 
      8 N5         -2.4850   20.7520   69.5260 N.2       1 FMN200      0.0000 
      9 C5A        -1.3590   20.9850   68.7360 C.ar      1 FMN200      0.0000 
     10 C6         -1.4260   21.8980   67.6840 C.ar      1 FMN200      0.0000 
     11 C7         -0.3360   22.1690   66.8710 C.ar      1 FMN200      0.0000 
     12 C7M        -0.4470   23.1680   65.7420 C.3       1 FMN200      0.0000 
     13 C8          0.8580   21.5010   67.1180 C.ar      1 FMN200      0.0000 
     14 C8M         2.0600   21.7770   66.2520 C.3       1 FMN200      0.0000 
     15 C9          0.9360   20.5840   68.1660 C.ar      1 FMN200      0.0000 
     16 C9A        -0.1640   20.3110   68.9910 C.ar      1 FMN200      0.0000 
     17 N10        -0.1280   19.3910   70.0480 N.pl3     1 FMN200      0.0000 
     18 C10        -1.2020   19.3130   70.9290 C.2       1 FMN200      0.0000 
     19 C1'         1.1430   18.7040   70.4550 C.3       1 FMN200      0.0000 
     20 C2'         1.6120   17.6830   69.4330 C.3       1 FMN200      0.0000 
     21 O2'         1.0140   16.4290   69.6680 O.3       1 FMN200      0.0000 
     22 C3'         3.1340   17.5580   69.5230 C.3       1 FMN200      0.0000 
     23 O3'         3.7790   18.6290   68.8710 O.3       1 FMN200      0.0000 
     24 C4'         3.5860   16.2600   68.8930 C.3       1 FMN200      0.0000 
     25 O4'         3.0010   15.2260   69.6720 O.3       1 FMN200      0.0000 
     26 C5'         5.1250   16.2090   68.7790 C.3       1 FMN200      0.0000 
     27 O5'         5.6640   16.2050   70.0780 O.3       1 FMN200      0.0000 
     28 P           6.6570   17.3240   70.6090 P.3       1 FMN200      0.0000 
     29 O1P         6.9350   16.9120   72.0130 O.co2     1 FMN200      0.0000 
     30 O2P         6.0610   18.7160   70.5260 O.co2     1 FMN200      0.0000 
     31 O3P         7.9570   17.2410   69.8310 O.co2     1 FMN200      0.0000 
     32 H          -4.0979   19.0663   73.3960 H         1 FMN200      0.0000 
     33 H          -2.3279   22.3919   67.5055 H         1 FMN200      0.0000 
     34 H           1.8312   20.0888   68.3423 H         1 FMN200      0.0000 
     35 H           0.9948   18.1975   71.4212 H         1 FMN200      0.0000 
     36 H           1.9368   19.4532   70.5991 H         1 FMN200      0.0000 
     37 H           1.3759   18.0637   68.4474 H         1 FMN200      0.0000 
     38 H           3.4009   17.5216   70.5774 H         1 FMN200      0.0000 
     39 H           3.1738   16.2497   67.8755 H         1 FMN200      0.0000 
     40 H           5.4336   17.0795   68.1971 H         1 FMN200      0.0000 
     41 H           5.3763   15.3085   68.2155 H         1 FMN200      0.0000 
     42 H           0.4132   23.2584   65.2402 H         1 FMN200      0.0000 
     43 H          -1.1467   22.9026   65.0787 H         1 FMN200      0.0000 
     44 H          -0.6893   24.0793   66.0749 H         1 FMN200      0.0000 
     45 H           2.8532   21.2376   66.5347 H         1 FMN200      0.0000 
     46 H           1.8842   21.5587   65.2921 H         1 FMN200      0.0000 
     47 H           2.3314   22.7388   66.2889 H         1 FMN200      0.0000 
     48 H           1.6289   15.7653   69.2420 H         1 FMN200      0.0000 
     49 H           4.6201   18.7793   69.3905 H         1 FMN200      0.0000 
     50 H           3.4891   15.2517   70.5444 H         1 FMN200      0.0000 
@<TRIPOS>BOND
     1    2    1 1    
     2   18    1 2    
     3    3    2 2    
     4    4    2 am   
     5    5    4 am   
     6   32    4 1    
     7    6    5 2    
     8    7    5 1    
     9    8    7 2    
    10   18    7 1    
    11    9    8 1    
    12   10    9 ar   
    13   16    9 ar   
    14   11   10 ar   
    15   33   10 1    
    16   12   11 1    
    17   13   11 ar   
    18   42   12 1    
    19   43   12 1    
    20   44   12 1    
    21   14   13 1    
    22   15   13 ar   
    23   45   14 1    
    24   46   14 1    
    25   47   14 1    
    26   16   15 ar   
    27   34   15 1    
    28   17   16 1    
    29   18   17 1    
    30   19   17 1    
    31   20   19 1    
    32   35   19 1    
    33   36   19 1    
    34   21   20 1    
    35   22   20 1    
    36   37   20 1    
    37   48   21 1    
    38   23   22 1    
    39   24   22 1    
    40   38   22 1    
    41   49   23 1    
    42   25   24 1    
    43   26   24 1    
    44   39   24 1    
    45   50   25 1    
    46   27   26 1    
    47   40   26 1    
    48   41   26 1    
    49   28   27 1    
    50   29   28 ar   
    51   30   28 ar   
    52   31   28 ar   
@<TRIPOS>SUBSTRUCTURE
     1 FMN200      1 GROUP   
@<TRIPOS>SET

