#    Name: 2a1y_5GP_1_INTS_M
#    Modification time : Mon Mar 24 18:14:06 2014

@<TRIPOS>MOLECULE
2a1y_5GP_1_INTS_M
   48     0    12     0     0
SMALL
NO_CHARGES


@<TRIPOS>ATOM
      1 N         -35.5335  -27.5315    6.2575 N.am      2 SEC2        0.0000 
      2 N         -36.3930  -28.4370    5.6130 N.am     10 SEL2        0.0000 
      3 N         -34.6740  -26.6260    6.9020 N.am      6 SEP2        0.0000 
      4 N         -36.1715  -28.3280    7.2905 N.am      2 SEC2        0.0000 
      5 N         -35.9500  -28.2190    8.9680 N.am      6 SEP2        0.0000 
      6 N         -39.7795  -28.9175    7.0325 N.am      2 SEC2        0.0000 
      7 N         -38.1780  -28.2870    7.3320 N.am     10 SEL2        0.0000 
      8 N         -41.3810  -29.5480    6.7330 N.am      6 SEP2        0.0000 
      9 N         -37.0640  -28.2530    8.1500 N.am      2 SEC2        0.0000 
     10 N         -38.1730  -27.2305    8.3030 N.am      2 SEC2        0.0000 
     11 N         -38.1680  -26.1740    9.2740 N.am      6 SEP2        0.0000 
     12 NZ        -38.4285  -30.7775    5.5030 N.4       3 LYC4        0.0000 
     13 NZ        -38.6290  -29.3590    5.1480 N.4      11 LYL4        0.0000 
     14 NZ        -39.3790  -32.9330    5.8850 N.4       7 LYP4        0.0000 
     15 N         -40.0050  -29.4535    5.9405 N.am      2 SEC2        0.0000 
     16 N         -38.6290  -29.3590    5.1480 N.am     10 SEL2        0.0000 
     17 N         -38.5800  -29.7540    3.7120 N.am      2 SEC2        0.0000 
     18 N         -38.5310  -30.1490    2.2760 N.am      6 SEP2        0.0000 
     19 N         -38.4285  -30.7775    5.5030 N.am      2 SEC2        0.0000 
     20 N         -38.2280  -32.1960    5.8580 N.am      6 SEP2        0.0000 
     21 CA        -37.8880  -26.6905    3.5630 C.3       4 GLC5        0.0000 
     22 CA        -37.7490  -25.6050    5.3100 C.3      12 GLL5        0.0000 
     23 CA        -38.0270  -27.7760    1.8160 C.3       8 GLP5        0.0000 
     24 CA        -36.4865  -25.8420    6.7250 C.3       4 GLC5        0.0000 
     25 CA        -35.2240  -26.0790    8.1400 C.3       8 GLP5        0.0000 
     26 CA        -36.8885  -22.7755    5.9535 C.3       4 GLC5        0.0000 
     27 CA        -38.5270  -23.0530    4.9720 C.3      12 GLL5        0.0000 
     28 CA        -35.2500  -22.4980    6.9350 C.3       8 GLP5        0.0000 
     29 O         -37.2085  -23.3670    2.9960 O.2       1 ALC1        0.0000 
     30 O         -37.4220  -22.9800    4.1410 O.2       9 ALL1        0.0000 
     31 O         -36.9950  -23.7540    1.8510 O.2       5 ALP1        0.0000 
     32 O         -37.6910  -22.5630    2.4775 O.2       1 ALC1        0.0000 
     33 O         -37.9600  -22.1460    0.8140 O.2       5 ALP1        0.0000 
     34 O         -38.8700  -22.4625    1.8020 O.2       1 ALC1        0.0000 
     35 O         -39.7800  -22.7790    2.7900 O.2       9 ALL1        0.0000 
     36 CA        -43.0510  -21.6365    8.9770 C.3       4 GLC5        0.0000 
     37 CA        -43.3090  -22.1720    7.0380 C.3      12 GLL5        0.0000 
     38 CA        -42.7930  -21.1010   10.9160 C.3       8 GLP5        0.0000 
     39 O         -47.2420  -22.8850    3.3795 O.2       1 ALC1        0.0000 
     40 O         -45.9750  -22.1800    3.9470 O.2       9 ALL1        0.0000 
     41 O         -48.5090  -23.5900    2.8120 O.2       5 ALP1        0.0000 
     42 CA        -43.9675  -24.3455    5.5590 C.3       4 GLC5        0.0000 
     43 CA        -42.9320  -22.6340    5.7840 C.3      12 GLL5        0.0000 
     44 CA        -45.0030  -26.0570    5.3340 C.3       8 GLP5        0.0000 
     45 CA        -36.7592  -23.7658    6.1680 C.3       4 GLC5        0.0000 
     46 CA        -38.7880  -24.4620    5.4920 C.3      12 GLL5        0.0000 
     47 CA        -38.5677  -22.9723    6.9915 C.3       4 GLC5        0.0000 
     48 CA        -38.4780  -22.1870    8.7510 C.3       8 GLP5        0.0000 
@<TRIPOS>BOND
@<TRIPOS>SUBSTRUCTURE
     1 ALC1       29 GROUP        1 X    ALC  0     ROOT ALC X 1
     2 SEC2        1 GROUP        1 X    SEC  0     **** SEC X 2
     3 LYC4       12 GROUP        1 X    LYC  0     **** LYC X 4
     4 GLC5       21 GROUP        1 X    GLC  0     **** GLC X 6
     5 ALP1       31 GROUP        1 Y    ALP  0     ROOT ALP Y 8
     6 SEP2        3 GROUP        1 Y    SEP  0     **** SEP Y 9
     7 LYP4       14 GROUP        1 Y    LYP  0     **** LYP Y 11
     8 GLP5       23 GROUP        1 Y    GLP  0     **** GLP Y 13
     9 ALL1       30 GROUP        1 Z    ALL  0     ROOT ALL Z 15
    10 SEL2        2 GROUP        1 Z    SEL  0     **** SEL Z 16
    11 LYL4       13 GROUP        1 Z    LYL  0     **** LYL Z 18
    12 GLL5       22 GROUP        1 Z    GLL  0     **** GLL Z 20
@<TRIPOS>SET

