#    Name: 2a1y_5GP_1_ligand
#    Modification time : Mon Mar 24 18:14:06 2014

@<TRIPOS>MOLECULE
2a1y_5GP_1_ligand
   36    38     1     0     0
SMALL
NO_CHARGES


@<TRIPOS>ATOM
      1 P         -37.8600  -28.2800    5.8270 P.3       1 5GP1344     0.0000 
      2 O1P       -36.3930  -28.4370    5.6130 O.co2     1 5GP1344     0.0000 
      3 O2P       -38.1780  -28.2870    7.3320 O.co2     1 5GP1344     0.0000 
      4 O3P       -38.6290  -29.3590    5.1480 O.co2     1 5GP1344     0.0000 
      5 O5'       -38.3610  -26.9030    5.2190 O.3       1 5GP1344     0.0000 
      6 C5'       -37.7490  -25.6050    5.3100 C.3       1 5GP1344     0.0000 
      7 C4'       -38.7880  -24.4620    5.4920 C.3       1 5GP1344     0.0000 
      8 O4'       -40.1270  -24.7220    5.0180 O.3       1 5GP1344     0.0000 
      9 C3'       -38.5270  -23.0530    4.9720 C.3       1 5GP1344     0.0000 
     10 O3'       -37.4220  -22.9800    4.1410 O.3       1 5GP1344     0.0000 
     11 C2'       -39.8100  -22.6250    4.2280 C.3       1 5GP1344     0.0000 
     12 O2'       -39.7800  -22.7790    2.7900 O.3       1 5GP1344     0.0000 
     13 C1'       -40.8950  -23.5630    4.7070 C.3       1 5GP1344     0.0000 
     14 N9        -41.6530  -23.0180    5.8490 N.pl3     1 5GP1344     0.0000 
     15 C8        -41.2180  -22.8050    7.0950 C.2       1 5GP1344     0.0000 
     16 N7        -42.2290  -22.2880    7.8390 N.2       1 5GP1344     0.0000 
     17 C5        -43.3090  -22.1720    7.0380 C.2       1 5GP1344     0.0000 
     18 C6        -44.6150  -21.7180    7.2460 C.2       1 5GP1344     0.0000 
     19 O6        -44.9560  -21.2930    8.3740 O.2       1 5GP1344     0.0000 
     20 N1        -45.4860  -21.7420    6.2200 N.am      1 5GP1344     0.0000 
     21 C2        -45.1050  -22.1770    4.9900 C.2       1 5GP1344     0.0000 
     22 N2        -45.9750  -22.1800    3.9470 N.pl3     1 5GP1344     0.0000 
     23 N3        -43.8430  -22.6330    4.7700 N.2       1 5GP1344     0.0000 
     24 C4        -42.9320  -22.6340    5.7840 C.2       1 5GP1344     0.0000 
     25 H         -37.1634  -25.3667    4.4039 H         1 5GP1344     0.0000 
     26 H         -37.0499  -25.5436    6.1633 H         1 5GP1344     0.0000 
     27 H         -38.9102  -24.3128    6.6324 H         1 5GP1344     0.0000 
     28 H         -38.4509  -22.4003    5.8412 H         1 5GP1344     0.0000 
     29 H         -40.0796  -21.6410    4.5276 H         1 5GP1344     0.0000 
     30 H         -41.5337  -23.7603    3.8633 H         1 5GP1344     0.0000 
     31 H         -40.3231  -22.9872    7.4270 H         1 5GP1344     0.0000 
     32 H         -46.4726  -21.4221    6.3657 H         1 5GP1344     0.0000 
     33 H         -46.1919  -23.0751    3.5575 H         1 5GP1344     0.0000 
     34 H         -46.3219  -21.2868    3.6608 H         1 5GP1344     0.0000 
     35 H         -37.6918  -23.4643    3.3087 H         1 5GP1344     0.0000 
     36 H         -38.9715  -22.2714    2.4923 H         1 5GP1344     0.0000 
@<TRIPOS>BOND
     1    2    1 ar   
     2    3    1 ar   
     3    4    1 ar   
     4    5    1 1    
     5    6    5 1    
     6    7    6 1    
     7   25    6 1    
     8   26    6 1    
     9    8    7 1    
    10    9    7 1    
    11   27    7 1    
    12   13    8 1    
    13   10    9 1    
    14   11    9 1    
    15   28    9 1    
    16   35   10 1    
    17   12   11 1    
    18   13   11 1    
    19   29   11 1    
    20   36   12 1    
    21   14   13 1    
    22   30   13 1    
    23   15   14 1    
    24   24   14 1    
    25   16   15 2    
    26   31   15 1    
    27   17   16 1    
    28   18   17 1    
    29   24   17 2    
    30   19   18 2    
    31   20   18 am   
    32   21   20 1    
    33   32   20 1    
    34   22   21 1    
    35   23   21 2    
    36   33   22 1    
    37   34   22 1    
    38   24   23 1    
@<TRIPOS>SUBSTRUCTURE
     1 5GP1344     1 GROUP   
@<TRIPOS>SET

