#    Name: 1lrj_UD1_1_INTS_M
#    Modification time : Mon Apr  7 14:16:08 2014

@<TRIPOS>MOLECULE
1lrj_UD1_1_INTS_M
   61     0    12     0     0
SMALL
NO_CHARGES


@<TRIPOS>ATOM
      1 CA         18.3210    3.1805   36.3340 C.3       4 GLC5        0.0000 
      2 CA         19.2870    4.3180   35.2290 C.3      12 GLL5        0.0000 
      3 CA         17.3550    2.0430   37.4390 C.3       8 GLP5        0.0000 
      4 CA         20.8325    3.7340   35.7360 C.3       4 GLC5        0.0000 
      5 CA         22.3780    3.1500   36.2430 C.3       8 GLP5        0.0000 
      6 N          19.5750    2.5635   33.1500 N.am      2 SEC2        0.0000 
      7 N          19.3640    3.1070   34.3780 N.am     10 SEL2        0.0000 
      8 N          19.7860    2.0200   31.9220 N.am      6 SEP2        0.0000 
      9 O          18.8970    1.8350   34.9065 O.2       1 ALC1        0.0000 
     10 O          19.3640    3.1070   34.3780 O.2       9 ALL1        0.0000 
     11 O          18.4300    0.5630   35.4350 O.2       5 ALP1        0.0000 
     12 O          15.8045   18.4165   40.5995 O.2       1 ALC1        0.0000 
     13 O          16.3980   17.0790   40.1870 O.2       9 ALL1        0.0000 
     14 O          15.2110   19.7540   41.0120 O.2       5 ALP1        0.0000 
     15 CA         16.9835   16.8555   38.5170 C.3       4 GLC5        0.0000 
     16 CA         17.8500   15.2410   39.6710 C.3      12 GLL5        0.0000 
     17 CA         16.1170   18.4700   37.3630 C.3       8 GLP5        0.0000 
     18 N          13.0575   18.0210   39.5060 N.am      2 SEC2        0.0000 
     19 N          14.0860   16.8320   40.0420 N.am     10 SEL2        0.0000 
     20 N          12.0290   19.2100   38.9700 N.am      6 SEP2        0.0000 
     21 CA         15.2660   14.3790   41.2320 C.3       4 GLC5        0.0000 
     22 CA         14.2140   14.2920   39.3750 C.3      12 GLL5        0.0000 
     23 CA         16.3180   14.4660   43.0890 C.3       8 GLP5        0.0000 
     24 CA         12.7785   13.9835   40.5860 C.3       4 GLC5        0.0000 
     25 CA         11.3430   13.6750   41.7970 C.3       8 GLP5        0.0000 
     26 O          12.9045   14.7095   35.8980 O.2       1 ALC1        0.0000 
     27 O          12.5570   14.5280   37.4250 O.2       9 ALL1        0.0000 
     28 O          13.2520   14.8910   34.3710 O.2       5 ALP1        0.0000 
     29 CA         14.5025   12.1325   41.5555 C.3       4 GLC5        0.0000 
     30 CA         13.8510   12.0000   39.4830 C.3      12 GLL5        0.0000 
     31 CA         15.1540   12.2650   43.6280 C.3       8 GLP5        0.0000 
     32 CA         16.2775   11.6525   41.1050 C.3       4 GLC5        0.0000 
     33 CA         15.0360   11.0750   39.4340 C.3      12 GLL5        0.0000 
     34 CA         17.5190   12.2300   42.7760 C.3       8 GLP5        0.0000 
     35 CA         14.7505    9.7020   41.0360 C.3       4 GLC5        0.0000 
     36 CA         14.4650    8.3290   42.6380 C.3       8 GLP5        0.0000 
     37 NZ         17.3540   12.6955   36.4630 N.4       3 LYC4        0.0000 
     38 NZ         17.9840   11.7160   37.1120 N.4      11 LYL4        0.0000 
     39 NZ         16.8240   14.9370   35.3500 N.4       7 LYP4        0.0000 
     40 N          17.3540   12.6955   36.4630 N.am      2 SEC2        0.0000 
     41 N          17.9840   11.7160   37.1120 N.am     10 SEL2        0.0000 
     42 N          16.7240   13.6750   35.8140 N.am      6 SEP2        0.0000 
     43 N          18.9640   11.4965   40.5410 N.am      2 SEC2        0.0000 
     44 N          18.2020   10.8440   39.3410 N.am     10 SEL2        0.0000 
     45 N          19.7260   12.1490   41.7410 N.am      6 SEP2        0.0000 
     46 N          15.7385    6.8335   37.9355 N.am      2 SEC2        0.0000 
     47 N          15.2840    7.6780   36.7050 N.am     10 SEL2        0.0000 
     48 N          16.1930    5.9890   39.1660 N.am      6 SEP2        0.0000 
     49 N          13.5060    9.7260   36.2495 N.am      2 SEC2        0.0000 
     50 N          15.0210   10.0700   36.0460 N.am     10 SEL2        0.0000 
     51 N          11.9910    9.3820   36.4530 N.am      6 SEP2        0.0000 
     52 CA         20.6500    8.8285   32.7020 C.3       4 GLC5        0.0000 
     53 CA         19.4640    8.6960   34.6390 C.3      12 GLL5        0.0000 
     54 CA         21.3270    9.4160   31.1560 C.3       8 GLP5        0.0000 
     55 CA         21.1867    4.6033   35.3858 C.3       4 GLC5        0.0000 
     56 CA         20.6580    6.4530   34.5940 C.3      12 GLL5        0.0000 
     57 CA         16.8058   14.6760   41.3347 C.3       4 GLC5        0.0000 
     58 CA         16.7370   14.5310   39.4900 C.3      12 GLL5        0.0000 
     59 CA         12.4500   12.9410   40.2982 C.3       4 GLC5        0.0000 
     60 CA         13.2492   10.1520   39.0074 C.3       4 GLC5        0.0000 
     61 CA         12.2020    8.6630   38.8980 C.3       8 GLP5        0.0000 
@<TRIPOS>BOND
@<TRIPOS>SUBSTRUCTURE
     1 ALC1        9 GROUP        1 X    ALC  0     ROOT ALC X 1
     2 SEC2        6 GROUP        1 X    SEC  0     **** SEC X 2
     3 LYC4       37 GROUP        1 X    LYC  0     **** LYC X 4
     4 GLC5        1 GROUP        1 X    GLC  0     **** GLC X 6
     5 ALP1       11 GROUP        1 Y    ALP  0     ROOT ALP Y 8
     6 SEP2        8 GROUP        1 Y    SEP  0     **** SEP Y 9
     7 LYP4       39 GROUP        1 Y    LYP  0     **** LYP Y 11
     8 GLP5        3 GROUP        1 Y    GLP  0     **** GLP Y 13
     9 ALL1       10 GROUP        1 Z    ALL  0     ROOT ALL Z 15
    10 SEL2        7 GROUP        1 Z    SEL  0     **** SEL Z 16
    11 LYL4       38 GROUP        1 Z    LYL  0     **** LYL Z 18
    12 GLL5        2 GROUP        1 Z    GLL  0     **** GLL Z 20
@<TRIPOS>SET

