#    Name: 1lrj_UD1_1_ligand
#    Modification time : Mon Apr  7 14:16:08 2014

@<TRIPOS>MOLECULE
1lrj_UD1_1_ligand
   64    66     1     0     0
SMALL
NO_CHARGES


@<TRIPOS>ATOM
      1 C1'        18.2850    7.9320   35.2990 C.3       1 UD1341      0.0000 
      2 C2'        19.4640    8.6960   34.6390 C.3       1 UD1341      0.0000 
      3 C3'        20.4820    7.7860   33.8570 C.3       1 UD1341      0.0000 
      4 C4'        20.6580    6.4530   34.5940 C.3       1 UD1341      0.0000 
      5 C5'        19.3330    5.6600   34.4630 C.3       1 UD1341      0.0000 
      6 C6'        19.2870    4.3180   35.2290 C.3       1 UD1341      0.0000 
      7 C7'        19.4320   11.0410   34.6210 C.2       1 UD1341      0.0000 
      8 C8'        18.6140   12.2830   34.4930 C.3       1 UD1341      0.0000 
      9 N2'        19.0810    9.9300   33.9530 N.am      1 UD1341      0.0000 
     10 O1'        17.0550    8.6950   35.1300 O.3       1 UD1341      0.0000 
     11 O3'        21.8160    8.3770   33.7660 O.3       1 UD1341      0.0000 
     12 O4'        21.8320    5.7230   34.1520 O.3       1 UD1341      0.0000 
     13 O5'        18.1600    6.4800   34.9020 O.3       1 UD1341      0.0000 
     14 O6'        19.3640    3.1070   34.3780 O.3       1 UD1341      0.0000 
     15 O7'        20.4170   11.0600   35.3620 O.2       1 UD1341      0.0000 
     16 N1         15.4400   15.0690   39.6050 N.am      1 UD1341      0.0000 
     17 C2         15.2300   16.3650   39.9820 C.2       1 UD1341      0.0000 
     18 N3         16.3980   17.0790   40.1870 N.am      1 UD1341      0.0000 
     19 C4         17.7310   16.6010   40.0830 C.2       1 UD1341      0.0000 
     20 C5         17.8500   15.2410   39.6710 C.2       1 UD1341      0.0000 
     21 C6         16.7370   14.5310   39.4900 C.2       1 UD1341      0.0000 
     22 O2         14.0860   16.8320   40.0420 O.2       1 UD1341      0.0000 
     23 O4         18.6470   17.3460   40.3070 O.2       1 UD1341      0.0000 
     24 C1B        14.2140   14.2920   39.3750 C.3       1 UD1341      0.0000 
     25 C2B        13.7860   13.8540   37.8970 C.3       1 UD1341      0.0000 
     26 O2'        12.5570   14.5280   37.4250 O.3       1 UD1341      0.0000 
     27 C3B        13.2630   12.4140   38.1160 C.3       1 UD1341      0.0000 
     28 C4B        13.8510   12.0000   39.4830 C.3       1 UD1341      0.0000 
     29 O4B        14.2430   13.1990   40.2160 O.3       1 UD1341      0.0000 
     30 O3B        11.8260   12.4570   38.1230 O.3       1 UD1341      0.0000 
     31 C5B        15.0360   11.0750   39.4340 C.3       1 UD1341      0.0000 
     32 O5B        15.9940   11.7880   38.6600 O.3       1 UD1341      0.0000 
     33 PA         17.2760   11.0020   38.1980 P.3       1 UD1341      0.0000 
     34 O1A        17.9840   11.7160   37.1120 O.co2     1 UD1341      0.0000 
     35 O2A        18.2020   10.8440   39.3410 O.co2     1 UD1341      0.0000 
     36 O3A        16.8840    9.4840   37.6680 O.3       1 UD1341      0.0000 
     37 PB         16.0410    9.0000   36.4350 P.3       1 UD1341      0.0000 
     38 O1B        15.2840    7.6780   36.7050 O.co2     1 UD1341      0.0000 
     39 O2B        15.0210   10.0700   36.0460 O.co2     1 UD1341      0.0000 
     40 H          18.5263    7.9454   36.4105 H         1 UD1341      0.0000 
     41 H          20.1011    9.0465   35.5694 H         1 UD1341      0.0000 
     42 H          20.0825    7.5798   32.8883 H         1 UD1341      0.0000 
     43 H          20.7516    6.7102   35.6695 H         1 UD1341      0.0000 
     44 H          19.1862    5.4244   33.3934 H         1 UD1341      0.0000 
     45 H          18.3524    4.3049   35.8286 H         1 UD1341      0.0000 
     46 H          20.1191    4.3219   35.9643 H         1 UD1341      0.0000 
     47 H          18.6156    9.8848   33.0924 H         1 UD1341      0.0000 
     48 H          16.2983   18.1178   40.4570 H         1 UD1341      0.0000 
     49 H          18.7881   14.8591   39.5291 H         1 UD1341      0.0000 
     50 H          16.7977   13.5005   39.2447 H         1 UD1341      0.0000 
     51 H          13.3385   14.9492   39.7266 H         1 UD1341      0.0000 
     52 H          14.5568   13.8499   37.2694 H         1 UD1341      0.0000 
     53 H          13.6715   11.8037   37.3646 H         1 UD1341      0.0000 
     54 H          13.0480   11.5048   40.0498 H         1 UD1341      0.0000 
     55 H          14.7379   10.1551   38.9622 H         1 UD1341      0.0000 
     56 H          15.3783   10.8972   40.4384 H         1 UD1341      0.0000 
     57 H          18.9888   13.0324   35.0388 H         1 UD1341      0.0000 
     58 H          18.5702   12.6030   33.5466 H         1 UD1341      0.0000 
     59 H          17.6724   12.1406   34.7981 H         1 UD1341      0.0000 
     60 H          22.4463    7.6028   33.8227 H         1 UD1341      0.0000 
     61 H          21.4768    4.9842   33.5793 H         1 UD1341      0.0000 
     62 H          19.4403    2.3441   35.0200 H         1 UD1341      0.0000 
     63 H          12.7050   14.6814   36.4480 H         1 UD1341      0.0000 
     64 H          11.5957   13.4263   38.0360 H         1 UD1341      0.0000 
@<TRIPOS>BOND
     1    2    1 1    
     2   10    1 1    
     3   13    1 1    
     4   40    1 1    
     5    3    2 1    
     6    9    2 1    
     7   41    2 1    
     8    4    3 1    
     9   11    3 1    
    10   42    3 1    
    11    5    4 1    
    12   12    4 1    
    13   43    4 1    
    14    6    5 1    
    15   13    5 1    
    16   44    5 1    
    17   14    6 1    
    18   45    6 1    
    19   46    6 1    
    20    8    7 1    
    21    9    7 am   
    22   15    7 2    
    23   57    8 1    
    24   58    8 1    
    25   59    8 1    
    26   47    9 1    
    27   37   10 1    
    28   60   11 1    
    29   61   12 1    
    30   62   14 1    
    31   17   16 1    
    32   21   16 1    
    33   24   16 1    
    34   18   17 1    
    35   22   17 2    
    36   19   18 1    
    37   48   18 1    
    38   20   19 1    
    39   23   19 2    
    40   21   20 2    
    41   49   20 1    
    42   50   21 1    
    43   25   24 1    
    44   29   24 1    
    45   51   24 1    
    46   26   25 1    
    47   27   25 1    
    48   52   25 1    
    49   63   26 1    
    50   28   27 1    
    51   30   27 1    
    52   53   27 1    
    53   29   28 1    
    54   31   28 1    
    55   54   28 1    
    56   64   30 1    
    57   32   31 1    
    58   55   31 1    
    59   56   31 1    
    60   33   32 1    
    61   34   33 ar   
    62   35   33 ar   
    63   36   33 1    
    64   37   36 1    
    65   38   37 ar   
    66   39   37 ar   
@<TRIPOS>SUBSTRUCTURE
     1 UD1341      1 GROUP   
@<TRIPOS>SET

