#    Name: 1ics_FMN_1_INTS_M
#    Modification time : Tue Mar 25 06:54:52 2014

@<TRIPOS>MOLECULE
1ics_FMN_1_INTS_M
   77     0    12     0     0
SMALL
NO_CHARGES


@<TRIPOS>ATOM
      1 N           0.1450   -1.0335   -0.3015 N.am      2 SEC2        0.0000 
      2 N           1.1970   -1.9940   -0.5710 N.am     10 SEL2        0.0000 
      3 N          -0.9070   -0.0730   -0.0320 N.am      6 SEP2        0.0000 
      4 N           2.4290   -1.4575   -1.1650 N.am      2 SEC2        0.0000 
      5 N           3.6610   -0.9210   -1.7590 N.am      6 SEP2        0.0000 
      6 O           0.2095   -1.7065    1.8340 O.2       1 ALC1        0.0000 
      7 O           1.1000   -2.8380    1.5320 O.2       9 ALL1        0.0000 
      8 O          -0.6810   -0.5750    2.1360 O.2       5 ALP1        0.0000 
      9 N           0.7775   -4.5555    4.5270 N.am      2 SEC2        0.0000 
     10 N           0.9310   -3.6360    3.6330 N.am     10 SEL2        0.0000 
     11 N           0.6240   -5.4750    5.4210 N.am      6 SEP2        0.0000 
     12 N           0.0445   -2.6040    4.5310 N.am      2 SEC2        0.0000 
     13 N          -0.8420   -1.5720    5.4290 N.am      6 SEP2        0.0000 
     14 N           3.4110   -4.3765    4.7590 N.am      2 SEC2        0.0000 
     15 N           3.5840   -4.6730    3.4710 N.am     10 SEL2        0.0000 
     16 N           3.2380   -4.0800    6.0470 N.am      6 SEP2        0.0000 
     17 CA          4.7300   -3.6235    4.3875 C.3       4 GLC5        0.0000 
     18 CA          4.8840   -5.0990    3.3090 C.3      12 GLL5        0.0000 
     19 CA          4.5760   -2.1480    5.4660 C.3       8 GLP5        0.0000 
     20 CA          3.3090   -5.5705    4.7125 C.3       4 GLC5        0.0000 
     21 CA          1.7340   -6.0420    6.1160 C.3       8 GLP5        0.0000 
     22 CA          4.0150   -5.3635    5.6615 C.3       4 GLC5        0.0000 
     23 CA          5.5800   -5.7790    4.4060 C.3      12 GLL5        0.0000 
     24 CA          2.4500   -4.9480    6.9170 C.3       8 GLP5        0.0000 
     25 CA          8.9290   -5.4595    6.2545 C.3       4 GLC5        0.0000 
     26 CA          7.6110   -6.8880    5.4970 C.3      12 GLL5        0.0000 
     27 CA         10.2470   -4.0310    7.0120 C.3       8 GLP5        0.0000 
     28 CA          8.5425   -7.9275    6.6855 C.3       4 GLC5        0.0000 
     29 CA          9.4740   -8.9670    7.8740 C.3       8 GLP5        0.0000 
     30 CA          6.8285   -8.3230    5.2865 C.3       4 GLC5        0.0000 
     31 CA          6.0460   -9.7580    5.0760 C.3       8 GLP5        0.0000 
     32 CA         10.8935   -5.8110    2.8425 C.3       4 GLC5        0.0000 
     33 CA          9.0710   -6.4310    2.9330 C.3      12 GLL5        0.0000 
     34 CA         12.7160   -5.1910    2.7520 C.3       8 GLP5        0.0000 
     35 CA         10.5130   -7.2895    4.0245 C.3       4 GLC5        0.0000 
     36 CA         11.9550   -8.1480    5.1160 C.3       8 GLP5        0.0000 
     37 CA          6.9505   -2.4835    2.0950 C.3       4 GLC5        0.0000 
     38 CA          6.4050   -2.5730    0.0970 C.3      12 GLL5        0.0000 
     39 CA          7.4960   -2.3940    4.0930 C.3       8 GLP5        0.0000 
     40 N           4.6095   -1.1935   -0.6885 N.am      2 SEC2        0.0000 
     41 N           5.5580   -1.4660    0.3820 N.am     10 SEL2        0.0000 
     42 O           4.9480   -1.4350    1.6280 O.2       1 ALC1        0.0000 
     43 O           5.5580   -1.4660    0.3820 O.2       9 ALL1        0.0000 
     44 O           4.3380   -1.4040    2.8740 O.2       5 ALP1        0.0000 
     45 N           5.1805   -1.4275   -2.0055 N.am      2 SEC2        0.0000 
     46 N           6.7000   -1.9340   -2.2520 N.am     10 SEL2        0.0000 
     47 N           5.9575   -0.6610   -2.3470 N.am      2 SEC2        0.0000 
     48 N           5.2150    0.6120   -2.4420 N.am      6 SEP2        0.0000 
     49 CA         10.1560   -2.0660   -3.6810 C.3       4 GLC5        0.0000 
     50 CA          9.5510   -2.5420   -2.0690 C.3      12 GLL5        0.0000 
     51 CA         10.7610   -1.5900   -5.2930 C.3       8 GLP5        0.0000 
     52 NZ         13.5430   -3.9675   -1.8480 N.4       3 LYC4        0.0000 
     53 NZ         12.9590   -2.7720   -1.9250 N.4      11 LYL4        0.0000 
     54 NZ         14.0180   -5.9110   -0.6750 N.4       7 LYP4        0.0000 
     55 N          12.9810   -2.4565   -3.2465 N.am      2 SEC2        0.0000 
     56 N          12.9590   -2.7720   -1.9250 N.am     10 SEL2        0.0000 
     57 N          13.0030   -2.1410   -4.5680 N.am      6 SEP2        0.0000 
     58 N          13.5430   -3.9675   -1.8480 N.am      2 SEC2        0.0000 
     59 N          14.1270   -5.1630   -1.7710 N.am      6 SEP2        0.0000 
     60 NZ         12.6450   -4.2430    0.3600 N.4       3 LYC4        0.0000 
     61 NZ         11.8440   -3.0820    0.3040 N.4      11 LYL4        0.0000 
     62 N          11.9480   -2.6405    1.6790 N.am      2 SEC2        0.0000 
     63 N          11.8440   -3.0820    0.3040 N.am     10 SEL2        0.0000 
     64 N          12.0520   -2.1990    3.0540 N.am      6 SEP2        0.0000 
     65 N          12.6450   -4.2430    0.3600 N.am      2 SEC2        0.0000 
     66 N          13.4460   -5.4040    0.4160 N.am      6 SEP2        0.0000 
     67 N          11.8195   -0.1655    0.5740 N.am      2 SEC2        0.0000 
     68 N          12.5830   -0.7700   -0.4550 N.am     10 SEL2        0.0000 
     69 N          11.0560    0.4390    1.6030 N.am      6 SEP2        0.0000 
     70 CA          6.8635   -4.1918    4.2312 C.3       4 GLC5        0.0000 
     71 CA          6.8820   -6.2000    4.3330 C.3      12 GLL5        0.0000 
     72 CA          7.9250   -4.3015    3.5497 C.3       4 GLC5        0.0000 
     73 CA          7.6370   -5.9870    3.0800 C.3      12 GLL5        0.0000 
     74 CA          6.9062   -3.7550    3.0790 C.3       4 GLC5        0.0000 
     75 CA          6.9870   -5.3440    2.0340 C.3      12 GLL5        0.0000 
     76 CA          7.0855   -0.4055    0.3573 C.3       4 GLC5        0.0000 
     77 CA          7.2790    1.4870    1.1390 C.3       8 GLP5        0.0000 
@<TRIPOS>BOND
@<TRIPOS>SUBSTRUCTURE
     1 ALC1        6 GROUP        1 X    ALC  0     ROOT ALC X 1
     2 SEC2        1 GROUP        1 X    SEC  0     **** SEC X 2
     3 LYC4       52 GROUP        1 X    LYC  0     **** LYC X 4
     4 GLC5       17 GROUP        1 X    GLC  0     **** GLC X 6
     5 ALP1        8 GROUP        1 Y    ALP  0     ROOT ALP Y 8
     6 SEP2        3 GROUP        1 Y    SEP  0     **** SEP Y 9
     7 LYP4       54 GROUP        1 Y    LYP  0     **** LYP Y 11
     8 GLP5       19 GROUP        1 Y    GLP  0     **** GLP Y 13
     9 ALL1        7 GROUP        1 Z    ALL  0     ROOT ALL Z 15
    10 SEL2        2 GROUP        1 Z    SEL  0     **** SEL Z 16
    11 LYL4       53 GROUP        1 Z    LYL  0     **** LYL Z 18
    12 GLL5       18 GROUP        1 Z    GLL  0     **** GLL Z 20
@<TRIPOS>SET

