#    Name: 1ics_FMN_1_ligand
#    Modification time : Tue Mar 25 06:54:52 2014

@<TRIPOS>MOLECULE
1ics_FMN_1_ligand
   50    52     1     0     0
SMALL
NO_CHARGES


@<TRIPOS>ATOM
      1 N1          3.0720   -3.0850    0.1720 N.2       1 FMN501      0.0000 
      2 C2          1.7850   -2.6080    0.3000 C.2       1 FMN501      0.0000 
      3 O2          1.1970   -1.9940   -0.5710 O.2       1 FMN501      0.0000 
      4 N3          1.1000   -2.8380    1.5320 N.am      1 FMN501      0.0000 
      5 C4          1.6060   -3.5020    2.6070 C.2       1 FMN501      0.0000 
      6 O4          0.9310   -3.6360    3.6330 O.2       1 FMN501      0.0000 
      7 C4A         2.9830   -4.0190    2.4710 C.2       1 FMN501      0.0000 
      8 N5          3.5840   -4.6730    3.4710 N.2       1 FMN501      0.0000 
      9 C5A         4.8840   -5.0990    3.3090 C.ar      1 FMN501      0.0000 
     10 C6          5.5800   -5.7790    4.4060 C.ar      1 FMN501      0.0000 
     11 C7          6.8820   -6.2000    4.3330 C.ar      1 FMN501      0.0000 
     12 C7M         7.6110   -6.8880    5.4970 C.3       1 FMN501      0.0000 
     13 C8          7.6370   -5.9870    3.0800 C.ar      1 FMN501      0.0000 
     14 C8M         9.0710   -6.4310    2.9330 C.3       1 FMN501      0.0000 
     15 C9          6.9870   -5.3440    2.0340 C.ar      1 FMN501      0.0000 
     16 C9A         5.6460   -4.8880    2.0960 C.ar      1 FMN501      0.0000 
     17 N10         4.9580   -4.1970    1.0500 N.pl3     1 FMN501      0.0000 
     18 C10         3.6600   -3.7490    1.1780 C.2       1 FMN501      0.0000 
     19 C1'         5.6490   -3.8870   -0.2160 C.3       1 FMN501      0.0000 
     20 C2'         6.4050   -2.5730    0.0970 C.3       1 FMN501      0.0000 
     21 O2'         5.5580   -1.4660    0.3820 O.3       1 FMN501      0.0000 
     22 C3'         7.3790   -2.0230   -0.9460 C.3       1 FMN501      0.0000 
     23 O3'         6.7000   -1.9340   -2.2520 O.3       1 FMN501      0.0000 
     24 C4'         8.5780   -2.9340   -0.9710 C.3       1 FMN501      0.0000 
     25 O4'         9.2380   -2.8770    0.3180 O.3       1 FMN501      0.0000 
     26 C5'         9.5510   -2.5420   -2.0690 C.3       1 FMN501      0.0000 
     27 O5'        10.6940   -1.8280   -1.5760 O.3       1 FMN501      0.0000 
     28 P          12.0660   -2.1770   -0.8750 P.3       1 FMN501      0.0000 
     29 O1P        12.9590   -2.7720   -1.9250 O.co2     1 FMN501      0.0000 
     30 O2P        11.8440   -3.0820    0.3040 O.co2     1 FMN501      0.0000 
     31 O3P        12.5830   -0.7700   -0.4550 O.co2     1 FMN501      0.0000 
     32 H           0.1094   -2.4459    1.5886 H         1 FMN501      0.0000 
     33 H           5.0186   -5.9329    5.2750 H         1 FMN501      0.0000 
     34 H           7.5117   -5.1801    1.1368 H         1 FMN501      0.0000 
     35 H           4.9572   -3.6993   -1.0014 H         1 FMN501      0.0000 
     36 H           6.3622   -4.6357   -0.4638 H         1 FMN501      0.0000 
     37 H           7.0291   -2.7560    1.0164 H         1 FMN501      0.0000 
     38 H           7.6889   -1.0438   -0.6124 H         1 FMN501      0.0000 
     39 H           8.2358   -3.9460   -1.1642 H         1 FMN501      0.0000 
     40 H           8.9940   -1.9371   -2.8142 H         1 FMN501      0.0000 
     41 H           9.8571   -3.4692   -2.5964 H         1 FMN501      0.0000 
     42 H           8.5519   -7.1267    5.2567 H         1 FMN501      0.0000 
     43 H           7.6548   -6.3020    6.3061 H         1 FMN501      0.0000 
     44 H           7.1551   -7.7343    5.7724 H         1 FMN501      0.0000 
     45 H           9.4356   -6.2152    2.0272 H         1 FMN501      0.0000 
     46 H           9.6675   -5.9878    3.6022 H         1 FMN501      0.0000 
     47 H           9.1692   -7.4179    3.0610 H         1 FMN501      0.0000 
     48 H           5.1871   -1.6516    1.2920 H         1 FMN501      0.0000 
     49 H           6.1834   -2.7863   -2.3336 H         1 FMN501      0.0000 
     50 H          10.0682   -3.4234    0.2079 H         1 FMN501      0.0000 
@<TRIPOS>BOND
     1    2    1 1    
     2   18    1 2    
     3    3    2 2    
     4    4    2 am   
     5    5    4 am   
     6   32    4 1    
     7    6    5 2    
     8    7    5 1    
     9    8    7 2    
    10   18    7 1    
    11    9    8 1    
    12   10    9 ar   
    13   16    9 ar   
    14   11   10 ar   
    15   33   10 1    
    16   12   11 1    
    17   13   11 ar   
    18   42   12 1    
    19   43   12 1    
    20   44   12 1    
    21   14   13 1    
    22   15   13 ar   
    23   45   14 1    
    24   46   14 1    
    25   47   14 1    
    26   16   15 ar   
    27   34   15 1    
    28   17   16 1    
    29   18   17 1    
    30   19   17 1    
    31   20   19 1    
    32   35   19 1    
    33   36   19 1    
    34   21   20 1    
    35   22   20 1    
    36   37   20 1    
    37   48   21 1    
    38   23   22 1    
    39   24   22 1    
    40   38   22 1    
    41   49   23 1    
    42   25   24 1    
    43   26   24 1    
    44   39   24 1    
    45   50   25 1    
    46   27   26 1    
    47   40   26 1    
    48   41   26 1    
    49   28   27 1    
    50   29   28 ar   
    51   30   28 ar   
    52   31   28 ar   
@<TRIPOS>SUBSTRUCTURE
     1 FMN501      1 GROUP   
@<TRIPOS>SET

