#    Name: 2ym8_YM8_1_INTS_M
#    Modification time : Tue Mar 25 09:30:13 2014

@<TRIPOS>MOLECULE
2ym8_YM8_1_INTS_M
   65     0     9     0     0
SMALL
NO_CHARGES


@<TRIPOS>ATOM
      1 CA         16.0075   -3.5980    9.3160 C.3       3 GLC5        0.0000 
      2 CA         15.1990   -3.3210   11.2440 C.3       9 GLL5        0.0000 
      3 CA         16.8160   -3.8750    7.3880 C.3       6 GLP5        0.0000 
      4 CA         15.6795   -5.2225   10.8190 C.3       3 GLC5        0.0000 
      5 CA         16.1600   -7.1240   10.3940 C.3       6 GLP5        0.0000 
      6 CA         13.9470   -3.5000    9.7190 C.3       3 GLC5        0.0000 
      7 CA         12.6950   -3.6790    8.1940 C.3       6 GLP5        0.0000 
      8 CA         15.6845   -0.8165   16.9045 C.3       3 GLC5        0.0000 
      9 CA         15.6290   -1.7460   15.0200 C.3       9 GLL5        0.0000 
     10 CA         15.7400    0.1130   18.7890 C.3       6 GLP5        0.0000 
     11 CA         16.5960   -0.1710   14.5200 C.3       3 GLC5        0.0000 
     12 CA         17.5630    1.4040   14.0200 C.3       6 GLP5        0.0000 
     13 CA         14.3620    0.0530   15.2255 C.3       3 GLC5        0.0000 
     14 CA         13.0950    1.8520   15.4310 C.3       6 GLP5        0.0000 
     15 N           9.0405   -2.9435   13.7515 N.am      2 SEC2        0.0000 
     16 N          10.1130   -1.8040   13.6000 N.am      8 SEL2        0.0000 
     17 N           7.9680   -4.0830   13.9030 N.am      5 SEP2        0.0000 
     18 CA         19.4275    1.1250    6.1370 C.3       3 GLC5        0.0000 
     19 CA         20.6760    0.9060    7.4620 C.3       9 GLL5        0.0000 
     20 CA         18.1790    1.3440    4.8120 C.3       6 GLP5        0.0000 
     21 CA         20.7115    2.8165    7.0305 C.3       3 GLC5        0.0000 
     22 CA         20.7470    4.7270    6.5990 C.3       6 GLP5        0.0000 
     23 CA         10.3065   -0.9415   14.8695 C.3       3 GLC5        0.0000 
     24 CA         10.8770   -1.3100   12.9130 C.3       9 GLL5        0.0000 
     25 CA          9.7360   -0.5730   16.8260 C.3       6 GLP5        0.0000 
     26 CA         11.5595    2.6340   11.1100 C.3       3 GLC5        0.0000 
     27 CA         12.4270    0.9940   10.5920 C.3       9 GLL5        0.0000 
     28 CA         10.6920    4.2740   11.6280 C.3       6 GLP5        0.0000 
     29 CA         10.7145    1.3945    9.7290 C.3       3 GLC5        0.0000 
     30 CA          9.0020    1.7950    8.8660 C.3       6 GLP5        0.0000 
     31 CA         17.6650    3.1880    8.4120 C.3       3 GLC5        0.0000 
     32 CA         17.8180    1.2220    8.2660 C.3       9 GLL5        0.0000 
     33 CA         17.5120    5.1540    8.5580 C.3       6 GLP5        0.0000 
     34 N          16.5415    2.9135    8.1885 N.am      2 SEC2        0.0000 
     35 N          16.5490    1.4730    8.5440 N.am      8 SEL2        0.0000 
     36 N          16.5340    4.3540    7.8330 N.am      5 SEP2        0.0000 
     37 O          13.7680    2.2975    8.9420 O.2       1 ALC1        0.0000 
     38 O          14.5570    1.0550    9.6150 O.2       7 ALL1        0.0000 
     39 O          12.9790    3.5400    8.2690 O.2       4 ALP1        0.0000 
     40 CA         19.0330   -1.4765    7.0870 C.3       3 GLC5        0.0000 
     41 CA         19.8130   -0.1020    8.5750 C.3       9 GLL5        0.0000 
     42 CA         18.2530   -2.8510    5.5990 C.3       6 GLP5        0.0000 
     43 CA         12.4720    0.5805   13.7435 C.3       3 GLC5        0.0000 
     44 CA         11.8490   -0.6910   12.0560 C.3       9 GLL5        0.0000 
     45 CA         14.1695    0.4125    8.0575 C.3       3 GLC5        0.0000 
     46 CA         15.8320    0.7050    9.3810 C.3       9 GLL5        0.0000 
     47 CA         12.5070    0.1200    6.7340 C.3       6 GLP5        0.0000 
     48 CA         12.8945   -2.4825   10.0315 C.3       3 GLC5        0.0000 
     49 CA         13.0940   -1.2860   11.8690 C.3       9 GLL5        0.0000 
     50 CA         14.3650    0.3840   12.2135 C.3       3 GLC5        0.0000 
     51 CA         15.6360    2.0540   12.5580 C.3       6 GLP5        0.0000 
     52 CA          9.8530   -0.5867   11.3843 C.3       3 GLC5        0.0000 
     53 CA          8.3430   -0.1730   10.2840 C.3       6 GLP5        0.0000 
     54 CA         21.2166    0.8598    9.8761 C.3       3 GLC5        0.0000 
     55 CA         20.4560   -1.1750    9.1820 C.3       9 GLL5        0.0000 
     56 CA         22.0830    2.1060   11.1520 C.3       6 GLP5        0.0000 
     57 CA         12.7812    0.4147    8.6178 C.3       3 GLC5        0.0000 
     58 CA         13.6840    0.4250   10.4110 C.3       9 GLL5        0.0000 
     59 CA         14.3457    1.3817   11.5297 C.3       3 GLC5        0.0000 
     60 CA         17.0637   -0.6068    7.3148 C.3       3 GLC5        0.0000 
     61 CA         15.9800   -1.9030    6.0640 C.3       6 GLP5        0.0000 
     62 CA         16.0602   -0.8672    7.8827 C.3       3 GLC5        0.0000 
     63 CA         17.6277   -2.5631    8.6876 C.3       3 GLC5        0.0000 
     64 CA         17.7850   -0.6490    9.7550 C.3       9 GLL5        0.0000 
     65 CA         16.2994    0.9069   11.1431 C.3       3 GLC5        0.0000 
@<TRIPOS>BOND
@<TRIPOS>SUBSTRUCTURE
     1 ALC1       37 GROUP        1 X    ALC  0     ROOT ALC X 1
     2 SEC2       15 GROUP        1 X    SEC  0     **** SEC X 2
     3 GLC5        1 GROUP        1 X    GLC  0     **** GLC X 6
     4 ALP1       39 GROUP        1 Y    ALP  0     ROOT ALP Y 8
     5 SEP2       17 GROUP        1 Y    SEP  0     **** SEP Y 9
     6 GLP5        3 GROUP        1 Y    GLP  0     **** GLP Y 13
     7 ALL1       38 GROUP        1 Z    ALL  0     ROOT ALL Z 15
     8 SEL2       16 GROUP        1 Z    SEL  0     **** SEL Z 16
     9 GLL5        2 GROUP        1 Z    GLL  0     **** GLL Z 20
@<TRIPOS>SET

