#    Name: 2ym8_YM8_1_ligand
#    Modification time : Tue Mar 25 09:30:13 2014

@<TRIPOS>MOLECULE
2ym8_YM8_1_ligand
   47    49     1     0     0
SMALL
NO_CHARGES


@<TRIPOS>ATOM
      1 CAA        15.1990   -3.3210   11.2440 C.3       1 YM81271     0.0000 
      2 CAB        15.3130   -3.9110   16.0280 C.3       1 YM81271     0.0000 
      3 CAC        15.6290   -1.7460   15.0200 C.3       1 YM81271     0.0000 
      4 NAD        10.1130   -1.8040   13.6000 N.1       1 YM81271     0.0000 
      5 CL         20.6760    0.9060    7.4620 Cl        1 YM81271     0.0000 
      6 CAF        10.8770   -1.3100   12.9130 C.1       1 YM81271     0.0000 
      7 CAG        19.7620   -1.9840   10.0760 C.ar      1 YM81271     0.0000 
      8 CAH        20.4560   -1.1750    9.1820 C.ar      1 YM81271     0.0000 
      9 CAI        18.4260   -1.7230   10.3630 C.ar      1 YM81271     0.0000 
     10 CAJ        12.4270    0.9940   10.5920 C.ar      1 YM81271     0.0000 
     11 CAK        17.8180    1.2220    8.2660 C.ar      1 YM81271     0.0000 
     12 CAL        16.4490   -0.3680   10.0220 C.ar      1 YM81271     0.0000 
     13 CAM        15.2830   -3.6260   13.6120 C.3       1 YM81271     0.0000 
     14 NAN        11.5370    0.4300   11.3880 N.ar      1 YM81271     0.0000 
     15 NAO        16.5490    1.4730    8.5440 N.ar      1 YM81271     0.0000 
     16 NAP        14.0070   -0.6810   11.0940 N.ar      1 YM81271     0.0000 
     17 NAQ        14.5570    1.0550    9.6150 N.pl3     1 YM81271     0.0000 
     18 OAR        13.4210   -2.4050   12.5800 O.3       1 YM81271     0.0000 
     19 CAS        19.8130   -0.1020    8.5750 C.ar      1 YM81271     0.0000 
     20 CAT        11.8490   -0.6910   12.0560 C.ar      1 YM81271     0.0000 
     21 CAU        13.6840    0.4250   10.4110 C.ar      1 YM81271     0.0000 
     22 CAV        15.8320    0.7050    9.3810 C.ar      1 YM81271     0.0000 
     23 CAW        13.0940   -1.2860   11.8690 C.ar      1 YM81271     0.0000 
     24 CAX        17.7850   -0.6490    9.7550 C.ar      1 YM81271     0.0000 
     25 CAY        18.4770    0.1570    8.8650 C.ar      1 YM81271     0.0000 
     26 CAZ        14.8450   -2.6230   12.5590 C.3       1 YM81271     0.0000 
     27 NBA        14.9300   -3.0350   14.9130 N.4       1 YM81271     0.0000 
     28 H          20.2382   -2.7777   10.5263 H         1 YM81271     0.0000 
     29 H          21.4424   -1.3704    8.9708 H         1 YM81271     0.0000 
     30 H          17.9147   -2.3219   11.0221 H         1 YM81271     0.0000 
     31 H          12.2149    1.8795   10.0772 H         1 YM81271     0.0000 
     32 H          18.3548    1.8142    7.5929 H         1 YM81271     0.0000 
     33 H          15.9217   -0.9443   10.6843 H         1 YM81271     0.0000 
     34 H          16.3468   -3.7752   13.5334 H         1 YM81271     0.0000 
     35 H          14.7562   -4.5523   13.4548 H         1 YM81271     0.0000 
     36 H          14.1952    1.9481    9.1011 H         1 YM81271     0.0000 
     37 H          15.4147   -1.7514   12.6368 H         1 YM81271     0.0000 
     38 H          13.8610   -2.8530   14.9398 H         1 YM81271     0.0000 
     39 H          16.1768   -3.5210   11.1812 H         1 YM81271     0.0000 
     40 H          14.7150   -4.1902   11.1429 H         1 YM81271     0.0000 
     41 H          14.9630   -2.7600   10.4505 H         1 YM81271     0.0000 
     42 H          16.2960   -4.0943   16.0355 H         1 YM81271     0.0000 
     43 H          15.0834   -3.5070   16.9135 H         1 YM81271     0.0000 
     44 H          14.8501   -4.7962   15.9808 H         1 YM81271     0.0000 
     45 H          16.6222   -1.8588   14.9928 H         1 YM81271     0.0000 
     46 H          15.3837   -1.1274   14.2736 H         1 YM81271     0.0000 
     47 H          15.4108   -1.2750   15.8747 H         1 YM81271     0.0000 
@<TRIPOS>BOND
     1   26    1 1    
     2   39    1 1    
     3   40    1 1    
     4   41    1 1    
     5   27    2 1    
     6   42    2 1    
     7   43    2 1    
     8   44    2 1    
     9   27    3 1    
    10   45    3 1    
    11   46    3 1    
    12   47    3 1    
    13    6    4 3    
    14   19    5 1    
    15   20    6 1    
    16    8    7 ar   
    17    9    7 ar   
    18   28    7 1    
    19   19    8 ar   
    20   29    8 1    
    21   24    9 ar   
    22   30    9 1    
    23   14   10 ar   
    24   21   10 ar   
    25   31   10 1    
    26   15   11 ar   
    27   25   11 ar   
    28   32   11 1    
    29   22   12 ar   
    30   24   12 ar   
    31   33   12 1    
    32   26   13 1    
    33   27   13 1    
    34   34   13 1    
    35   35   13 1    
    36   20   14 ar   
    37   22   15 ar   
    38   21   16 ar   
    39   23   16 ar   
    40   21   17 1    
    41   22   17 1    
    42   36   17 1    
    43   23   18 1    
    44   26   18 1    
    45   25   19 ar   
    46   23   20 ar   
    47   25   24 ar   
    48   37   26 1    
    49   38   27 1    
@<TRIPOS>SUBSTRUCTURE
     1 YM81271     1 GROUP   
@<TRIPOS>SET

