#    Name: 4ix5_ANP_2_INTS_M
#    Modification time : Tue Mar 25 04:52:51 2014

@<TRIPOS>MOLECULE
4ix5_ANP_2_INTS_M
   51     0    12     0     0
SMALL
NO_CHARGES


@<TRIPOS>ATOM
      1 Zn         37.0535   23.4220    9.2585 Zn        3 ZIC7        0.0000 
      2 Zn         36.5160   24.1590   10.0440 Zn       11 ZIL7        0.0000 
      3 Zn         37.5910   22.6850    8.4730 Zn        7 ZIP7        0.0000 
      4 N          34.9290   23.7315    4.4785 N.am      2 SEC2        0.0000 
      5 N          34.1930   23.1200    5.6310 N.am     10 SEL2        0.0000 
      6 N          35.6650   24.3430    3.3260 N.am      6 SEP2        0.0000 
      7 Zn         36.6935   22.8615    8.0735 Zn        3 ZIC7        0.0000 
      8 Zn         35.7960   23.0380    7.6740 Zn       11 ZIL7        0.0000 
      9 CA         32.6695   25.4230    7.6720 C.3       4 GLC5        0.0000 
     10 CA         33.3990   24.3570    9.2450 C.3      12 GLL5        0.0000 
     11 CA         31.9400   26.4890    6.0990 C.3       8 GLP5        0.0000 
     12 CA         30.4130   24.9145   10.3735 C.3       4 GLC5        0.0000 
     13 CA         32.2610   23.8700   10.1360 C.3      12 GLL5        0.0000 
     14 CA         28.5650   25.9590   10.6110 C.3       8 GLP5        0.0000 
     15 CA         32.4765   19.8480   11.6395 C.3       4 GLC5        0.0000 
     16 CA         31.9320   21.4980   10.2770 C.3      12 GLL5        0.0000 
     17 CA         33.0210   18.1980   13.0020 C.3       8 GLP5        0.0000 
     18 CA         29.0840   23.0535    9.6340 C.3       4 GLC5        0.0000 
     19 CA         30.7670   22.1380    9.5510 C.3      12 GLL5        0.0000 
     20 CA         27.4010   23.9690    9.7170 C.3       8 GLP5        0.0000 
     21 CA         29.8170   18.0000    4.3385 C.3       4 GLC5        0.0000 
     22 CA         28.9400   19.1800    6.0140 C.3      12 GLL5        0.0000 
     23 CA         30.6940   16.8200    2.6630 C.3       8 GLP5        0.0000 
     24 CA         26.8485   18.7215    5.8555 C.3       4 GLC5        0.0000 
     25 CA         24.7570   18.2630    5.6970 C.3       8 GLP5        0.0000 
     26 O          27.7670   18.4300    4.1450 O.2       1 ALC1        0.0000 
     27 O          29.0490   18.8270    4.7220 O.2       9 ALL1        0.0000 
     28 O          26.4850   18.0330    3.5680 O.2       5 ALP1        0.0000 
     29 N          27.0930   17.4995    6.5580 N.am      2 SEC2        0.0000 
     30 N          28.0280   18.6410    6.8300 N.am     10 SEL2        0.0000 
     31 N          26.1580   16.3580    6.2860 N.am      6 SEP2        0.0000 
     32 CA         27.2125   20.5595    7.2350 C.3       4 GLC5        0.0000 
     33 CA         27.9210   18.9940    8.1150 C.3      12 GLL5        0.0000 
     34 CA         26.5040   22.1250    6.3550 C.3       8 GLP5        0.0000 
     35 CA         26.3390   18.6285    6.9060 C.3       4 GLC5        0.0000 
     36 CA         29.2105   17.9230    8.4270 C.3       4 GLC5        0.0000 
     37 CA         30.5000   16.8520    8.7390 C.3       8 GLP5        0.0000 
     38 CA         28.5305   22.2550    8.8520 C.3       4 GLC5        0.0000 
     39 CA         29.6600   20.5410    7.9870 C.3      12 GLL5        0.0000 
     40 CA         28.0820   21.3330    7.1710 C.3       4 GLC5        0.0000 
     41 CA         31.8310   19.9800    8.0165 C.3       4 GLC5        0.0000 
     42 CA         34.0020   19.4190    8.0460 C.3       8 GLP5        0.0000 
     43 CA         32.6715   25.9588   10.5747 C.3       4 GLC5        0.0000 
     44 CA         32.5130   27.8040   11.4590 C.3       8 GLP5        0.0000 
     45 CA         32.6758   20.6185    8.9800 C.3       4 GLC5        0.0000 
     46 CA         28.5735   20.8325    5.2430 C.3       4 GLC5        0.0000 
     47 CA         29.8320   20.2080    6.5720 C.3      12 GLL5        0.0000 
     48 CA         27.7610   21.9710    4.1930 C.3       8 GLP5        0.0000 
     49 CA         31.0715   18.5755    6.0430 C.3       4 GLC5        0.0000 
     50 CA         32.7570   17.4570    5.7930 C.3       8 GLP5        0.0000 
     51 CA         30.0115   18.4847    7.9395 C.3       4 GLC5        0.0000 
@<TRIPOS>BOND
@<TRIPOS>SUBSTRUCTURE
     1 ALC1       26 GROUP        1 X    ALC  0     ROOT ALC X 1
     2 SEC2        4 GROUP        1 X    SEC  0     **** SEC X 2
     3 ZIC7        1 GROUP        1 X    ZIC  0     **** ZIC X 5
     4 GLC5        9 GROUP        1 X    GLC  0     **** GLC X 6
     5 ALP1       28 GROUP        1 Y    ALP  0     ROOT ALP Y 8
     6 SEP2        6 GROUP        1 Y    SEP  0     **** SEP Y 9
     7 ZIP7        3 GROUP        1 Y    ZIP  0     **** ZIP Y 12
     8 GLP5       11 GROUP        1 Y    GLP  0     **** GLP Y 13
     9 ALL1       27 GROUP        1 Z    ALL  0     ROOT ALL Z 15
    10 SEL2        5 GROUP        1 Z    SEL  0     **** SEL Z 16
    11 ZIL7        2 GROUP        1 Z    ZIL  0     **** ZIL Z 19
    12 GLL5       10 GROUP        1 Z    GLL  0     **** GLL Z 20
@<TRIPOS>SET

