#    Name: 4ix5_ANP_2_ligand
#    Modification time : Tue Mar 25 04:52:51 2014

@<TRIPOS>MOLECULE
4ix5_ANP_2_ligand
   43    45     1     0     0
SMALL
NO_CHARGES


@<TRIPOS>ATOM
      1 PG         35.9270   25.5740   10.5110 P.3       1 ANP602      0.0000 
      2 O1G        37.0540   26.4140   10.9610 O.co2     1 ANP602      0.0000 
      3 O2G        36.5160   24.1590   10.0440 O.co2     1 ANP602      0.0000 
      4 O3G        34.9480   25.3810   11.7580 O.co2     1 ANP602      0.0000 
      5 PB         35.8960   26.1540    7.5680 P.3       1 ANP602      0.0000 
      6 O1B        35.9640   27.4730    6.8970 O.co2     1 ANP602      0.0000 
      7 O2B        37.3720   25.5230    7.7430 O.co2     1 ANP602      0.0000 
      8 N3B        35.1330   26.2980    9.1390 N.4       1 ANP602      0.0000 
      9 PA         34.6330   23.6760    6.9580 P.3       1 ANP602      0.0000 
     10 O1A        34.1930   23.1200    5.6310 O.co2     1 ANP602      0.0000 
     11 O2A        35.7960   23.0380    7.6740 O.co2     1 ANP602      0.0000 
     12 O3A        34.9820   25.2140    6.6420 O.3       1 ANP602      0.0000 
     13 O5'        33.3910   23.6920    7.9780 O.3       1 ANP602      0.0000 
     14 C5'        33.3990   24.3570    9.2450 C.3       1 ANP602      0.0000 
     15 C4'        32.2610   23.8700   10.1360 C.3       1 ANP602      0.0000 
     16 O4'        31.1350   23.4970    9.3420 O.3       1 ANP602      0.0000 
     17 C3'        32.6600   22.6370   10.9230 C.3       1 ANP602      0.0000 
     18 O3'        32.1120   22.7040   12.2270 O.3       1 ANP602      0.0000 
     19 C2'        31.9320   21.4980   10.2770 C.3       1 ANP602      0.0000 
     20 O2'        31.4530   20.6800   11.3300 O.3       1 ANP602      0.0000 
     21 C1'        30.7670   22.1380    9.5510 C.3       1 ANP602      0.0000 
     22 N9         30.5600   21.4800    8.2480 N.pl3     1 ANP602      0.0000 
     23 C8         31.2580   21.7180    7.1320 C.2       1 ANP602      0.0000 
     24 N7         30.8310   20.9590    6.1040 N.2       1 ANP602      0.0000 
     25 C5         29.8320   20.2080    6.5720 C.ar      1 ANP602      0.0000 
     26 C6         28.9400   19.1800    6.0140 C.ar      1 ANP602      0.0000 
     27 N6         29.0490   18.8270    4.7220 N.pl3     1 ANP602      0.0000 
     28 N1         28.0280   18.6410    6.8300 N.ar      1 ANP602      0.0000 
     29 C2         27.9210   18.9940    8.1150 C.ar      1 ANP602      0.0000 
     30 N3         28.7030   19.9140    8.6950 N.ar      1 ANP602      0.0000 
     31 C4         29.6600   20.5410    7.9870 C.ar      1 ANP602      0.0000 
     32 H          33.2902   25.4483    9.1288 H         1 ANP602      0.0000 
     33 H          34.3449   24.1848    9.7853 H         1 ANP602      0.0000 
     34 H          32.0006   24.6464   10.8306 H         1 ANP602      0.0000 
     35 H          33.6744   22.4819   10.8892 H         1 ANP602      0.0000 
     36 H          32.5555   21.0119    9.6050 H         1 ANP602      0.0000 
     37 H          29.9007   22.0575   10.1596 H         1 ANP602      0.0000 
     38 H          31.9988   22.3710    7.0643 H         1 ANP602      0.0000 
     39 H          28.2055   18.5300    4.2744 H         1 ANP602      0.0000 
     40 H          29.9639   18.8929    4.3235 H         1 ANP602      0.0000 
     41 H          27.1727   18.5179    8.7117 H         1 ANP602      0.0000 
     42 H          31.7784   21.7803   12.4152 H         1 ANP602      0.0000 
     43 H          30.6089   20.2745   10.9791 H         1 ANP602      0.0000 
@<TRIPOS>BOND
     1    2    1 ar   
     2    3    1 ar   
     3    4    1 ar   
     4    8    1 1    
     5    6    5 ar   
     6    7    5 ar   
     7    8    5 1    
     8   12    5 1    
     9   10    9 ar   
    10   11    9 ar   
    11   12    9 1    
    12   13    9 1    
    13   14   13 1    
    14   15   14 1    
    15   32   14 1    
    16   33   14 1    
    17   16   15 1    
    18   17   15 1    
    19   34   15 1    
    20   21   16 1    
    21   18   17 1    
    22   19   17 1    
    23   35   17 1    
    24   42   18 1    
    25   20   19 1    
    26   21   19 1    
    27   36   19 1    
    28   43   20 1    
    29   22   21 1    
    30   37   21 1    
    31   23   22 1    
    32   31   22 1    
    33   24   23 2    
    34   38   23 1    
    35   25   24 1    
    36   26   25 ar   
    37   31   25 ar   
    38   27   26 1    
    39   28   26 ar   
    40   39   27 1    
    41   40   27 1    
    42   29   28 ar   
    43   30   29 ar   
    44   41   29 1    
    45   31   30 ar   
@<TRIPOS>SUBSTRUCTURE
     1 ANP602      1 GROUP   
@<TRIPOS>SET

