#    Name: 3s45_478_3_INTS_M
#    Modification time : Tue Mar 25 12:08:45 2014

@<TRIPOS>MOLECULE
3s45_478_3_INTS_M
   87     0     9     0     0
SMALL
NO_CHARGES


@<TRIPOS>ATOM
      1 CA         25.0690   12.8455   14.9775 C.3       3 GLC5        0.0000 
      2 CA         25.3390   14.6720   16.1890 C.3       9 GLL5        0.0000 
      3 CA         24.7990   11.0190   13.7660 C.3       6 GLP5        0.0000 
      4 CA         19.1535   11.6765   13.9360 C.3       3 GLC5        0.0000 
      5 CA         19.5440   11.3920   16.1260 C.3       9 GLL5        0.0000 
      6 CA         18.7630   11.9610   11.7460 C.3       6 GLP5        0.0000 
      7 CA         19.4860   12.8135   13.5195 C.3       3 GLC5        0.0000 
      8 CA         20.2090   13.6660   15.2930 C.3       9 GLL5        0.0000 
      9 CA         18.2175    7.2145   16.9540 C.3       3 GLC5        0.0000 
     10 CA         19.7050    8.6550   17.6290 C.3       9 GLL5        0.0000 
     11 CA         16.7300    5.7740   16.2790 C.3       6 GLP5        0.0000 
     12 CA         16.0740    9.9530   17.4080 C.3       3 GLC5        0.0000 
     13 CA         16.2610    8.5470   18.7700 C.3       9 GLL5        0.0000 
     14 CA         15.8870   11.3590   16.0460 C.3       6 GLP5        0.0000 
     15 CA         15.1955    8.1160   16.6770 C.3       3 GLC5        0.0000 
     16 CA         15.2060    7.6470   18.8200 C.3       9 GLL5        0.0000 
     17 CA         15.1850    8.5850   14.5340 C.3       6 GLP5        0.0000 
     18 CA         14.6395    7.6120   22.5610 C.3       3 GLC5        0.0000 
     19 CA         15.9650    6.8360   20.9680 C.3       9 GLL5        0.0000 
     20 CA         13.3140    8.3880   24.1540 C.3       6 GLP5        0.0000 
     21 CA         24.3215    9.2255   19.2665 C.3       3 GLC5        0.0000 
     22 CA         22.3230    8.9080   20.1920 C.3       9 GLL5        0.0000 
     23 CA         26.3200    9.5430   18.3410 C.3       6 GLP5        0.0000 
     24 CA         22.7580    4.8665   19.5510 C.3       3 GLC5        0.0000 
     25 CA         22.1800    6.3970   20.5330 C.3       9 GLL5        0.0000 
     26 CA         23.3360    3.3360   18.5690 C.3       6 GLP5        0.0000 
     27 CA         22.2610    5.0705   21.8420 C.3       3 GLC5        0.0000 
     28 CA         22.3420    3.7440   23.1510 C.3       6 GLP5        0.0000 
     29 CA         28.4670   13.5875   16.0795 C.3       3 GLC5        0.0000 
     30 CA         26.7420   12.9930   16.9510 C.3       9 GLL5        0.0000 
     31 CA         30.1920   14.1820   15.2080 C.3       6 GLP5        0.0000 
     32 O          22.0115   11.5765   14.9490 O.2       1 ALC1        0.0000 
     33 O          21.9350   11.5240   16.4820 O.2       7 ALL1        0.0000 
     34 O          22.0880   11.6290   13.4160 O.2       4 ALP1        0.0000 
     35 O          13.0530    4.7295   20.5375 O.2       1 ALC1        0.0000 
     36 O          14.0700    5.9200   19.8790 O.2       7 ALL1        0.0000 
     37 O          12.0360    3.5390   21.1960 O.2       4 ALP1        0.0000 
     38 N          20.7185    7.9065   14.6320 N.am      2 SEC2        0.0000 
     39 N          21.0740    8.8850   15.6460 N.am      8 SEL2        0.0000 
     40 N          20.3630    6.9280   13.6180 N.am      5 SEP2        0.0000 
     41 O          21.8370    7.9450   15.0245 O.2       1 ALC1        0.0000 
     42 O          21.0740    8.8850   15.6460 O.2       7 ALL1        0.0000 
     43 O          22.6000    7.0050   14.4030 O.2       4 ALP1        0.0000 
     44 O          22.3390    8.3330   15.9180 O.2       1 ALC1        0.0000 
     45 O          23.6040    7.7810   16.1900 O.2       4 ALP1        0.0000 
     46 N          26.2195   13.3555   14.3050 N.am      2 SEC2        0.0000 
     47 N          26.4420   13.8410   15.8480 N.am      8 SEL2        0.0000 
     48 N          25.9970   12.8700   12.7620 N.am      5 SEP2        0.0000 
     49 N          27.5340   13.5125   14.6935 N.am      2 SEC2        0.0000 
     50 N          28.6260   13.1840   13.5390 N.am      5 SEP2        0.0000 
     51 CA         25.2082   12.8293   19.3920 C.3       3 GLC5        0.0000 
     52 CA         24.5210   13.8780   17.2150 C.3       9 GLL5        0.0000 
     53 CA         25.3610   12.1770   21.2000 C.3       6 GLP5        0.0000 
     54 CA         27.7345   12.7260   18.5185 C.3       3 GLC5        0.0000 
     55 CA         29.3030   12.4130   19.5850 C.3       6 GLP5        0.0000 
     56 CA         26.2430   11.2910   17.8965 C.3       3 GLC5        0.0000 
     57 CA         25.5900   13.0850   17.9530 C.3       9 GLL5        0.0000 
     58 CA         18.3428   14.1238   15.0165 C.3       3 GLC5        0.0000 
     59 CA         19.5240   12.9130   16.2390 C.3       9 GLL5        0.0000 
     60 CA         16.8190   14.9580   14.2670 C.3       6 GLP5        0.0000 
     61 CA         17.8310   14.5938   15.8302 C.3       3 GLC5        0.0000 
     62 CA         18.8590   13.5460   17.2740 C.3       9 GLL5        0.0000 
     63 CA         17.5418   12.1041   16.3871 C.3       3 GLC5        0.0000 
     64 CA         18.3390   14.4883   19.2077 C.3       3 GLC5        0.0000 
     65 CA         18.8270   14.9130   17.5130 C.3       9 GLL5        0.0000 
     66 CA         17.8350   14.7470   21.0220 C.3       6 GLP5        0.0000 
     67 CA         18.3795   15.1342   15.1647 C.3       3 GLC5        0.0000 
     68 CA         19.6360   15.5850   16.6220 C.3       9 GLL5        0.0000 
     69 CA         17.8317   16.5035   17.7037 C.3       3 GLC5        0.0000 
     70 CA         16.4320   17.7580   18.3400 C.3       6 GLP5        0.0000 
     71 CA         20.3362   15.2751   18.6449 C.3       3 GLC5        0.0000 
     72 CA         21.4330   15.6430   20.2820 C.3       6 GLP5        0.0000 
     73 CA         23.9507    6.8375   19.4735 C.3       3 GLC5        0.0000 
     74 CA         21.6890    7.5950   19.7070 C.3       9 GLL5        0.0000 
     75 CA         25.9670    6.6790   18.8270 C.3       6 GLP5        0.0000 
     76 CA         15.9090   10.2707   19.8925 C.3       3 GLC5        0.0000 
     77 CA         17.1610    8.5720   19.8360 C.3       9 GLL5        0.0000 
     78 CA         15.1070   11.9820   20.4820 C.3       6 GLP5        0.0000 
     79 CA         14.1822    8.8290   19.2400 C.3       3 GLC5        0.0000 
     80 CA         12.6310    9.5610   19.6850 C.3       6 GLP5        0.0000 
     81 CA         16.0659    6.6103   17.8143 C.3       3 GLC5        0.0000 
     82 CA         14.0742    8.1885   20.0605 C.3       3 GLC5        0.0000 
     83 CA         15.0700    6.7960   19.9040 C.3       9 GLL5        0.0000 
     84 CA         25.7254   11.7381   16.0523 C.3       3 GLC5        0.0000 
     85 CA         25.5520   10.2390   14.8370 C.3       6 GLP5        0.0000 
     86 CA         26.2820   15.0630   18.3775 C.3       3 GLC5        0.0000 
     87 CA         27.0160   16.4690   19.6780 C.3       6 GLP5        0.0000 
@<TRIPOS>BOND
@<TRIPOS>SUBSTRUCTURE
     1 ALC1       32 GROUP        1 X    ALC  0     ROOT ALC X 1
     2 SEC2       38 GROUP        1 X    SEC  0     **** SEC X 2
     3 GLC5        1 GROUP        1 X    GLC  0     **** GLC X 6
     4 ALP1       34 GROUP        1 Y    ALP  0     ROOT ALP Y 8
     5 SEP2       40 GROUP        1 Y    SEP  0     **** SEP Y 9
     6 GLP5        3 GROUP        1 Y    GLP  0     **** GLP Y 13
     7 ALL1       33 GROUP        1 Z    ALL  0     ROOT ALL Z 15
     8 SEL2       39 GROUP        1 Z    SEL  0     **** SEL Z 16
     9 GLL5        2 GROUP        1 Z    GLL  0     **** GLL Z 20
@<TRIPOS>SET

