#    Name: 3s45_478_3_ligand
#    Modification time : Tue Mar 25 12:08:45 2014

@<TRIPOS>MOLECULE
3s45_478_3_ligand
   70    72     1     0     0
SMALL
NO_CHARGES


@<TRIPOS>ATOM
      1 C1         25.3390   14.6720   16.1890 C.3       1 478201      0.0000 
      2 C2         25.5900   13.0850   17.9530 C.3       1 478201      0.0000 
      3 C3         22.6850   12.3820   17.1770 C.2       1 478201      0.0000 
      4 C4         24.5210   13.8780   17.2150 C.3       1 478201      0.0000 
      5 C5         20.7090   10.8980   16.9940 C.3       1 478201      0.0000 
      6 C6         20.8840    9.3830   16.9690 C.3       1 478201      0.0000 
      7 C7         19.5440   11.3920   16.1260 C.3       1 478201      0.0000 
      8 C8         19.5240   12.9130   16.2390 C.ar      1 478201      0.0000 
      9 C9         20.2090   13.6660   15.2930 C.ar      1 478201      0.0000 
     10 C10        18.8590   13.5460   17.2740 C.ar      1 478201      0.0000 
     11 C11        20.2440   15.0360   15.5030 C.ar      1 478201      0.0000 
     12 C12        18.8270   14.9130   17.5130 C.ar      1 478201      0.0000 
     13 C13        19.6360   15.5850   16.6220 C.ar      1 478201      0.0000 
     14 C14        19.7050    8.6550   17.6290 C.3       1 478201      0.0000 
     15 C15        20.1520    7.7090   19.8100 C.3       1 478201      0.0000 
     16 C16        21.6890    7.5950   19.7070 C.3       1 478201      0.0000 
     17 C17        17.1610    8.5720   19.8360 C.ar      1 478201      0.0000 
     18 C18        16.2610    8.5470   18.7700 C.ar      1 478201      0.0000 
     19 C19        15.2060    7.6470   18.8200 C.ar      1 478201      0.0000 
     20 C20        15.0700    6.7960   19.9040 C.ar      1 478201      0.0000 
     21 C21        15.9650    6.8360   20.9680 C.ar      1 478201      0.0000 
     22 C22        17.0480    7.7290   20.9250 C.ar      1 478201      0.0000 
     23 C23        22.3230    8.9080   20.1920 C.3       1 478201      0.0000 
     24 C24        22.1800    6.3970   20.5330 C.3       1 478201      0.0000 
     25 C25        26.7420   12.9930   16.9510 C.3       1 478201      0.0000 
     26 N1         21.9350   11.5240   16.4820 N.am      1 478201      0.0000 
     27 N2         19.7980    8.9180   19.0740 N.pl3     1 478201      0.0000 
     28 N3         14.0700    5.9200   19.8790 N.pl3     1 478201      0.0000 
     29 O1         23.6820   12.9860   16.4930 O.3       1 478201      0.0000 
     30 O2         22.5180   12.6370   18.3630 O.2       1 478201      0.0000 
     31 O3         21.0740    8.8850   15.6460 O.3       1 478201      0.0000 
     32 O4         18.1160   10.7450   18.7150 O.2       1 478201      0.0000 
     33 O5         18.8580   10.2220   21.0150 O.2       1 478201      0.0000 
     34 O6         26.4420   13.8410   15.8480 O.3       1 478201      0.0000 
     35 S1         18.4990    9.6790   19.6900 S.o2      1 478201      0.0000 
     36 H          25.6481   15.5963   16.6551 H         1 478201      0.0000 
     37 H          24.7000   14.8766   15.3423 H         1 478201      0.0000 
     38 H          25.2307   12.1108   18.1747 H         1 478201      0.0000 
     39 H          25.9075   13.6184   18.8143 H         1 478201      0.0000 
     40 H          24.0450   14.5243   17.8525 H         1 478201      0.0000 
     41 H          20.5412   11.2191   18.0082 H         1 478201      0.0000 
     42 H          21.7756    9.1476   17.5834 H         1 478201      0.0000 
     43 H          18.6247   10.9884   16.5006 H         1 478201      0.0000 
     44 H          19.7129   11.1062   15.1071 H         1 478201      0.0000 
     45 H          20.6542   13.2393   14.5004 H         1 478201      0.0000 
     46 H          18.3155   12.9221   17.9583 H         1 478201      0.0000 
     47 H          20.7230   15.6480   14.8260 H         1 478201      0.0000 
     48 H          18.3052   15.3326   18.2124 H         1 478201      0.0000 
     49 H          19.8132   16.6262   16.8080 H         1 478201      0.0000 
     50 H          19.7920    7.6012   17.4196 H         1 478201      0.0000 
     51 H          18.7877    9.0475   17.2210 H         1 478201      0.0000 
     52 H          19.8903    7.7858   20.8486 H         1 478201      0.0000 
     53 H          19.7202    6.8325   19.3646 H         1 478201      0.0000 
     54 H          21.9471    7.4430   18.6756 H         1 478201      0.0000 
     55 H          16.3783    9.1736   17.9785 H         1 478201      0.0000 
     56 H          14.5235    7.6128   18.0488 H         1 478201      0.0000 
     57 H          15.8409    6.2236   21.7765 H         1 478201      0.0000 
     58 H          17.7263    7.7467   21.6814 H         1 478201      0.0000 
     59 H          26.8398   11.9492   16.6510 H         1 478201      0.0000 
     60 H          27.6550   13.2958   17.4646 H         1 478201      0.0000 
     61 H          22.1937   11.2432   15.4976 H         1 478201      0.0000 
     62 H          13.9650    5.3488   20.6931 H         1 478201      0.0000 
     63 H          13.5132    5.9114   19.0484 H         1 478201      0.0000 
     64 H          23.3213    8.8789   20.1424 H         1 478201      0.0000 
     65 H          22.0250    9.6892   19.6434 H         1 478201      0.0000 
     66 H          22.0824    9.1080   21.1418 H         1 478201      0.0000 
     67 H          23.1740    6.2974   20.4882 H         1 478201      0.0000 
     68 H          21.9378    6.4876   21.4990 H         1 478201      0.0000 
     69 H          21.7844    5.5368   20.2111 H         1 478201      0.0000 
     70 H          21.9861    8.4749   15.6525 H         1 478201      0.0000 
@<TRIPOS>BOND
     1    4    1 1    
     2   34    1 1    
     3   36    1 1    
     4   37    1 1    
     5    4    2 1    
     6   25    2 1    
     7   38    2 1    
     8   39    2 1    
     9   26    3 am   
    10   29    3 1    
    11   30    3 2    
    12   29    4 1    
    13   40    4 1    
    14    6    5 1    
    15    7    5 1    
    16   26    5 1    
    17   41    5 1    
    18   14    6 1    
    19   31    6 1    
    20   42    6 1    
    21    8    7 1    
    22   43    7 1    
    23   44    7 1    
    24    9    8 ar   
    25   10    8 ar   
    26   11    9 ar   
    27   45    9 1    
    28   12   10 ar   
    29   46   10 1    
    30   13   11 ar   
    31   47   11 1    
    32   13   12 ar   
    33   48   12 1    
    34   49   13 1    
    35   27   14 1    
    36   50   14 1    
    37   51   14 1    
    38   16   15 1    
    39   27   15 1    
    40   52   15 1    
    41   53   15 1    
    42   23   16 1    
    43   24   16 1    
    44   54   16 1    
    45   18   17 ar   
    46   22   17 ar   
    47   35   17 1    
    48   19   18 ar   
    49   55   18 1    
    50   20   19 ar   
    51   56   19 1    
    52   21   20 ar   
    53   28   20 1    
    54   22   21 ar   
    55   57   21 1    
    56   58   22 1    
    57   64   23 1    
    58   65   23 1    
    59   66   23 1    
    60   67   24 1    
    61   68   24 1    
    62   69   24 1    
    63   34   25 1    
    64   59   25 1    
    65   60   25 1    
    66   61   26 1    
    67   35   27 1    
    68   62   28 1    
    69   63   28 1    
    70   70   31 1    
    71   35   32 2    
    72   35   33 2    
@<TRIPOS>SUBSTRUCTURE
     1 478201      1 GROUP   
@<TRIPOS>SET

