#    Name: 2X95_1_CAVITY_N1_6.mol2
#    Modification time : Mon Mar 10 22:41:16 2014

@<TRIPOS>MOLECULE
2X95_1_CAVITY_N1_6.mol2
  161     0     7     0     0
SMALL
NO_CHARGES


@<TRIPOS>ATOM
      1 NZ         26.8100   -4.4267  -33.1872 N.2       4 LYS4        0.0000 
      2 NZ         25.6926   -4.4072  -32.1866 N.2       4 LYS4        0.0000 
      3 NZ         26.9198   -5.9149  -33.0356 N.2       4 LYS4        0.0000 
      4 NZ         25.8025   -5.8955  -32.0350 N.2       4 LYS4        0.0000 
      5 O          24.6851   -5.8760  -31.0344 O.2       2 ALA2        0.0000 
      6 O          25.9123   -7.3838  -31.8834 O.2       2 ALA2        0.0000 
      7 O          27.1394   -8.8915  -32.7324 O.2       2 ALA2        0.0000 
      8 NZ         28.3666  -10.3992  -33.5815 N.2       4 LYS4        0.0000 
      9 O          28.4764  -11.8875  -33.4299 O.2       2 ALA2        0.0000 
     10 NZ         27.3591  -11.8681  -32.4293 N.2       4 LYS4        0.0000 
     11 CA         27.6949   -2.7522  -32.2316 C.3       6 GLY6        0.0000 
     12 NZ         28.9221   -4.2600  -33.0806 N.2       4 LYS4        0.0000 
     13 O          27.8047   -4.2405  -32.0800 O.2       2 ALA2        0.0000 
     14 CA         26.6874   -4.2211  -31.0794 C.3       6 GLY6        0.0000 
     15 NZ         27.9145   -5.7288  -31.9284 N.2       4 LYS4        0.0000 
     16 DU         26.7972   -5.7093  -30.9278 H         7 CUB7        0.0000 
     17 CA         25.6799   -5.6899  -29.9272 C.3       6 GLY6        0.0000 
     18 NZ         28.0244   -7.2171  -31.7768 N.2       4 LYS4        0.0000 
     19 O          26.9070   -7.1976  -30.7763 O.2       2 ALA2        0.0000 
     20 O          25.7897   -7.1782  -29.7757 O.2       2 ALA2        0.0000 
     21 NZ         28.1342   -8.7053  -31.6253 N.2       4 LYS4        0.0000 
     22 NZ         27.0169   -8.6859  -30.6247 N.2       4 LYS4        0.0000 
     23 NZ         30.4787  -10.2325  -33.4749 N.2       4 LYS4        0.0000 
     24 NZ         29.3613  -10.2131  -32.4743 N.2       4 LYS4        0.0000 
     25 NZ         28.2440  -10.1936  -31.4737 N.2       4 LYS4        0.0000 
     26 NZ         29.4712  -11.7013  -32.3227 N.2       4 LYS4        0.0000 
     27 NZ         28.4637  -13.1702  -31.1706 N.2       4 LYS4        0.0000 
     28 O          29.9168   -4.0738  -31.9734 O.2       2 ALA2        0.0000 
     29 O          28.7995   -4.0543  -30.9728 O.2       2 ALA2        0.0000 
     30 O          27.6821   -4.0349  -29.9722 O.2       2 ALA2        0.0000 
     31 O          26.5648   -4.0154  -28.9716 O.2       2 ALA2        0.0000 
     32 NZ         30.0266   -5.5621  -31.8218 N.2       4 LYS4        0.0000 
     33 O          28.9093   -5.5426  -30.8212 O.2       2 ALA2        0.0000 
     34 DU         27.7919   -5.5232  -29.8206 H         7 CUB7        0.0000 
     35 CA         26.6746   -5.5037  -28.8201 C.3       6 GLY6        0.0000 
     36 CA         25.5573   -5.4843  -27.8195 C.3       6 GLY6        0.0000 
     37 NZ         29.0191   -7.0309  -30.6697 N.2       4 LYS4        0.0000 
     38 DU         27.9018   -7.0114  -29.6691 H         7 CUB7        0.0000 
     39 OG         26.7844   -6.9920  -28.6685 O.2       1 SER1        0.0000 
     40 NZ         29.1289   -8.5192  -30.5181 N.2       4 LYS4        0.0000 
     41 NZ         28.0116   -8.4997  -29.5175 N.2       4 LYS4        0.0000 
     42 OG         26.8943   -8.4803  -28.5169 O.2       1 SER1        0.0000 
     43 NZ         31.4734  -10.0464  -32.3677 N.2       4 LYS4        0.0000 
     44 NZ         30.3561  -10.0269  -31.3671 N.2       4 LYS4        0.0000 
     45 NZ         29.2387  -10.0075  -30.3665 N.2       4 LYS4        0.0000 
     46 O          30.4659  -11.5152  -31.2155 O.2       2 ALA2        0.0000 
     47 NZ         29.3486  -11.4957  -30.2150 N.2       4 LYS4        0.0000 
     48 NZ         29.4584  -12.9840  -30.0634 N.2       4 LYS4        0.0000 
     49 O          30.9115   -3.8876  -30.8662 O.2       2 ALA2        0.0000 
     50 N          27.5595   -3.8293  -27.8644 N.2       2 ALA2        0.0000 
     51 N          26.4422   -3.8098  -26.8639 N.2       2 ALA2        0.0000 
     52 CZ         31.0214   -5.3759  -30.7147 C.ar      5 PHE5        0.0000 
     53 O          29.9040   -5.3565  -29.7141 O.2       2 ALA2        0.0000 
     54 N          28.7867   -5.3370  -28.7135 N.2       2 ALA2        0.0000 
     55 N          27.6693   -5.3176  -27.7129 N.2       2 ALA2        0.0000 
     56 CA         26.5520   -5.2981  -26.7123 C.3       6 GLY6        0.0000 
     57 NZ         25.4347   -5.2786  -25.7117 N.2       4 LYS4        0.0000 
     58 CZ         31.1312   -6.8642  -30.5631 C.ar      5 PHE5        0.0000 
     59 DU         30.0138   -6.8447  -29.5625 H         7 CUB7        0.0000 
     60 DU         27.7792   -6.8058  -27.5613 H         7 CUB7        0.0000 
     61 CA         26.6618   -6.7864  -26.5607 C.3       6 GLY6        0.0000 
     62 O          31.2410   -8.3525  -30.4115 O.2       2 ALA2        0.0000 
     63 DU         30.1237   -8.3330  -29.4109 H         7 CUB7        0.0000 
     64 DU         29.0063   -8.3136  -28.4103 H         7 CUB7        0.0000 
     65 OG         27.8890   -8.2941  -27.4097 O.2       1 SER1        0.0000 
     66 O          31.3508   -9.8407  -30.2599 O.2       2 ALA2        0.0000 
     67 N          30.2335   -9.8213  -29.2593 N.2       2 ALA2        0.0000 
     68 NZ         29.1161   -9.8018  -28.2588 N.2       4 LYS4        0.0000 
     69 NZ         27.9988   -9.7824  -27.2582 N.2       4 LYS4        0.0000 
     70 O          31.4606  -11.3290  -30.1084 O.2       2 ALA2        0.0000 
     71 N          27.3271   -2.1354  -25.9082 N.2       2 ALA2        0.0000 
     72 N          27.4369   -3.6237  -25.7567 N.2       2 ALA2        0.0000 
     73 OD1        30.8988   -5.1703  -28.6069 O.3       3 ASP3        0.0000 
     74 N          29.7814   -5.1508  -27.6063 N.2       2 ALA2        0.0000 
     75 N          28.6641   -5.1314  -26.6057 N.2       2 ALA2        0.0000 
     76 DU         27.5468   -5.1119  -25.6051 H         7 CUB7        0.0000 
     77 NZ         26.4294   -5.0925  -24.6045 N.2       4 LYS4        0.0000 
     78 O          32.1259   -6.6780  -29.4559 O.2       2 ALA2        0.0000 
     79 O          31.0086   -6.6586  -28.4553 O.2       2 ALA2        0.0000 
     80 O          29.8912   -6.6391  -27.4547 O.2       2 ALA2        0.0000 
     81 DU         28.7739   -6.6197  -26.4541 H         7 CUB7        0.0000 
     82 DU         27.6566   -6.6002  -25.4535 H         7 CUB7        0.0000 
     83 CA         26.5392   -6.5808  -24.4529 C.3       6 GLY6        0.0000 
     84 O          32.2357   -8.1663  -29.3043 O.2       2 ALA2        0.0000 
     85 O          31.1184   -8.1469  -28.3037 O.2       2 ALA2        0.0000 
     86 O          30.0011   -8.1274  -27.3031 O.2       2 ALA2        0.0000 
     87 DU         28.8837   -8.1079  -26.3026 H         7 CUB7        0.0000 
     88 OG         27.7664   -8.0885  -25.3020 O.2       1 SER1        0.0000 
     89 OG         26.6491   -8.0690  -24.3014 O.2       1 SER1        0.0000 
     90 N          31.2282   -9.6351  -28.1522 N.2       2 ALA2        0.0000 
     91 N          30.1109   -9.6157  -27.1516 N.2       2 ALA2        0.0000 
     92 N          28.9936   -9.5962  -26.1510 N.2       2 ALA2        0.0000 
     93 OG         27.8762   -9.5768  -25.1504 O.2       1 SER1        0.0000 
     94 OG         26.7589   -9.5573  -24.1498 O.2       1 SER1        0.0000 
     95 N          29.1034  -11.0845  -25.9994 N.2       2 ALA2        0.0000 
     96 NZ         27.9860  -11.0650  -24.9988 N.2       4 LYS4        0.0000 
     97 CA         26.8687  -11.0456  -23.9982 C.3       6 GLY6        0.0000 
     98 CA         25.7514  -11.0261  -22.9976 C.3       6 GLY6        0.0000 
     99 NZ         28.0959  -12.5533  -24.8472 N.2       4 LYS4        0.0000 
    100 CA         26.9785  -12.5339  -23.8467 C.3       6 GLY6        0.0000 
    101 N          28.3218   -1.9492  -24.8011 N.2       2 ALA2        0.0000 
    102 N          30.6663   -3.4764  -26.6507 N.2       2 ALA2        0.0000 
    103 N          29.5490   -3.4570  -25.6501 N.2       2 ALA2        0.0000 
    104 N          28.4317   -3.4375  -24.6495 N.2       2 ALA2        0.0000 
    105 N          27.3143   -3.4180  -23.6489 N.2       2 ALA2        0.0000 
    106 OD1        30.7762   -4.9647  -26.4991 O.3       3 ASP3        0.0000 
    107 DU         29.6588   -4.9452  -25.4985 H         7 CUB7        0.0000 
    108 DU         28.5415   -4.9258  -24.4979 H         7 CUB7        0.0000 
    109 N          27.4242   -4.9063  -23.4973 N.2       2 ALA2        0.0000 
    110 O          30.8860   -6.4530  -26.3475 O.2       2 ALA2        0.0000 
    111 DU         29.7686   -6.4335  -25.3469 H         7 CUB7        0.0000 
    112 DU         28.6513   -6.4141  -24.3464 H         7 CUB7        0.0000 
    113 CA         27.5340   -6.3946  -23.3458 C.3       6 GLY6        0.0000 
    114 O          30.9958   -7.9412  -26.1960 O.2       2 ALA2        0.0000 
    115 DU         29.8785   -7.9218  -25.1954 H         7 CUB7        0.0000 
    116 CA         27.6438   -7.8829  -23.1942 C.3       6 GLY6        0.0000 
    117 N          31.1056   -9.4295  -26.0444 N.2       2 ALA2        0.0000 
    118 N          29.9883   -9.4101  -25.0438 N.2       2 ALA2        0.0000 
    119 DU         28.8710   -9.3906  -24.0432 H         7 CUB7        0.0000 
    120 DU         27.7536   -9.3711  -23.0426 H         7 CUB7        0.0000 
    121 NZ         26.6363   -9.3517  -22.0420 N.2       4 LYS4        0.0000 
    122 N          30.0981  -10.8983  -24.8922 N.2       2 ALA2        0.0000 
    123 NZ         28.9808  -10.8789  -23.8916 N.2       4 LYS4        0.0000 
    124 DU         27.8634  -10.8594  -22.8911 H         7 CUB7        0.0000 
    125 NZ         26.7461  -10.8400  -21.8905 N.2       4 LYS4        0.0000 
    126 NZ         29.0906  -12.3672  -23.7401 N.2       4 LYS4        0.0000 
    127 NZ         27.9733  -12.3477  -22.7395 N.2       4 LYS4        0.0000 
    128 CA         26.8559  -12.3282  -21.7389 C.3       6 GLY6        0.0000 
    129 N          30.5437   -3.2708  -24.5429 N.2       2 ALA2        0.0000 
    130 CZ         29.4264   -3.2513  -23.5423 C.ar      5 PHE5        0.0000 
    131 OD1        28.3091   -3.2319  -22.5417 O.3       3 ASP3        0.0000 
    132 OG         31.7709   -4.7785  -25.3919 O.2       1 SER1        0.0000 
    133 CZ         30.6536   -4.7591  -24.3913 C.ar      5 PHE5        0.0000 
    134 CZ         29.5362   -4.7396  -23.3908 C.ar      5 PHE5        0.0000 
    135 N          28.4189   -4.7202  -22.3902 N.2       2 ALA2        0.0000 
    136 O          31.8807   -6.2668  -25.2404 O.2       2 ALA2        0.0000 
    137 DU         30.7634   -6.2473  -24.2398 H         7 CUB7        0.0000 
    138 DU         29.6460   -6.2279  -23.2392 H         7 CUB7        0.0000 
    139 N          28.5287   -6.2084  -22.2386 N.2       2 ALA2        0.0000 
    140 O          30.8732   -7.7356  -24.0882 O.2       2 ALA2        0.0000 
    141 DU         29.7559   -7.7162  -23.0876 H         7 CUB7        0.0000 
    142 O          28.6385   -7.6967  -22.0870 O.2       2 ALA2        0.0000 
    143 O          32.1004   -9.2434  -24.9372 O.2       2 ALA2        0.0000 
    144 DU         30.9830   -9.2239  -23.9366 H         7 CUB7        0.0000 
    145 CZ         29.8657   -9.2044  -22.9360 C.ar      5 PHE5        0.0000 
    146 NZ         28.7484   -9.1850  -21.9354 N.2       4 LYS4        0.0000 
    147 NZ         31.0928  -10.7122  -23.7851 N.2       4 LYS4        0.0000 
    148 NZ         29.9755  -10.6927  -22.7845 N.2       4 LYS4        0.0000 
    149 OD1        28.8582  -10.6733  -21.7839 O.3       3 ASP3        0.0000 
    150 NZ         27.7408  -10.6538  -20.7833 N.2       4 LYS4        0.0000 
    151 OD1        27.8507  -12.1421  -20.6317 O.3       3 ASP3        0.0000 
    152 CZ         31.6483   -4.5729  -23.2842 C.ar      5 PHE5        0.0000 
    153 CZ         31.7581   -6.0612  -23.1326 C.ar      5 PHE5        0.0000 
    154 CZ         30.6408   -6.0417  -22.1320 C.ar      5 PHE5        0.0000 
    155 CZ         29.5235   -6.0223  -21.1314 C.ar      5 PHE5        0.0000 
    156 CZ         31.8679   -7.5495  -22.9810 C.ar      5 PHE5        0.0000 
    157 CZ         30.7506   -7.5300  -21.9804 C.ar      5 PHE5        0.0000 
    158 NZ         29.6333   -7.5105  -20.9798 N.2       4 LYS4        0.0000 
    159 CZ         33.0951   -9.0572  -23.8300 C.ar      5 PHE5        0.0000 
    160 CZ         31.9778   -9.0377  -22.8295 C.ar      5 PHE5        0.0000 
    161 NZ         29.7431   -8.9988  -20.8283 N.2       4 LYS4        0.0000 
@<TRIPOS>BOND
@<TRIPOS>SUBSTRUCTURE
     1 SER1       39 GROUP   
     2 ALA2        5 GROUP   
     3 ASP3       73 GROUP   
     4 LYS4        1 GROUP   
     5 PHE5       52 GROUP   
     6 GLY6       11 GROUP   
     7 CUB7       16 GROUP   
@<TRIPOS>SET

