#    Name: 2x95_X95_1_INTS_M
#    Modification time : Tue Mar 25 05:32:14 2014

@<TRIPOS>MOLECULE
2x95_X95_1_INTS_M
   65     0    15     0     0
SMALL
NO_CHARGES


@<TRIPOS>ATOM
      1 N          24.7485   -2.3525  -23.9030 N.am      2 SEC2        0.0000 
      2 N          25.4960   -1.4890  -23.2390 N.am     12 SEL2        0.0000 
      3 N          24.0010   -3.2160  -24.5670 N.am      7 SEP2        0.0000 
      4 CA         25.1890    1.1620  -25.6725 C.3       5 GLC5        0.0000 
      5 CA         27.0770    0.4350  -24.8920 C.3      15 GLL5        0.0000 
      6 CA         23.3010    1.8890  -26.4530 C.3      10 GLP5        0.0000 
      7 O          28.2805   -9.2475  -28.6650 O.2       1 ALC1        0.0000 
      8 O          27.4410   -7.9580  -29.3290 O.2      11 ALL1        0.0000 
      9 O          29.1200  -10.5370  -28.0010 O.2       6 ALP1        0.0000 
     10 NZ         32.6060   -4.5010  -27.6135 N.4       3 LYC4        0.0000 
     11 NZ         31.1390   -4.9550  -27.0220 N.4      13 LYL4        0.0000 
     12 NZ         34.0730   -4.0470  -28.2050 N.4       8 LYP4        0.0000 
     13 N          32.6060   -4.5010  -27.6135 N.am      2 SEC2        0.0000 
     14 N          31.1390   -4.9550  -27.0220 N.am     12 SEL2        0.0000 
     15 N          34.0730   -4.0470  -28.2050 N.am      7 SEP2        0.0000 
     16 N          29.3745   -2.1635  -26.7685 N.am      2 SEC2        0.0000 
     17 N          29.8300   -2.7260  -25.5920 N.am     12 SEL2        0.0000 
     18 N          28.9190   -1.6010  -27.9450 N.am      7 SEP2        0.0000 
     19 NZ         33.4495   -4.3275  -26.9140 N.4       3 LYC4        0.0000 
     20 NZ         32.8260   -4.6080  -25.6230 N.4      13 LYL4        0.0000 
     21 N          33.2730   -6.0275  -26.1690 N.am      2 SEC2        0.0000 
     22 N          32.8260   -4.6080  -25.6230 N.am     12 SEL2        0.0000 
     23 N          33.7200   -7.4470  -26.7150 N.am      7 SEP2        0.0000 
     24 N          33.4495   -4.3275  -26.9140 N.am      2 SEC2        0.0000 
     25 CA         29.8605    2.5515  -23.6565 C.3       5 GLC5        0.0000 
     26 CA         28.0100    1.4990  -24.3180 C.3      15 GLL5        0.0000 
     27 CA         31.7110    3.6040  -22.9950 C.3      10 GLP5        0.0000 
     28 CA         25.1205   -3.8220  -27.1825 C.3       5 GLC5        0.0000 
     29 CA         26.8240   -4.1660  -26.1730 C.3      15 GLL5        0.0000 
     30 CA         23.4170   -3.4780  -28.1920 C.3      10 GLP5        0.0000 
     31 CA         33.1180   -6.2970  -22.6325 C.3       5 GLC5        0.0000 
     32 CA         31.3750   -5.8060  -23.4180 C.3      15 GLL5        0.0000 
     33 CA         34.8610   -6.7880  -21.8470 C.3      10 GLP5        0.0000 
     34 CA         31.4745   -4.6900  -21.9360 C.3       5 GLC5        0.0000 
     35 CA         31.5740   -3.5740  -20.4540 C.3      10 GLP5        0.0000 
     36 Zn         26.9775   -1.8550  -21.4080 Zn        4 ZIC7        0.0000 
     37 Zn         27.4050   -1.4350  -22.0930 Zn       14 ZIL7        0.0000 
     38 Zn         26.5500   -2.2750  -20.7230 Zn        9 ZIP7        0.0000 
     39 N          28.8315   -1.1210  -22.2800 N.am      2 SEC2        0.0000 
     40 N          27.4050   -1.4350  -22.0930 N.am     12 SEL2        0.0000 
     41 N          30.2580   -0.8070  -22.4670 N.am      7 SEP2        0.0000 
     42 O          27.8935   -8.1445  -20.0300 O.2       1 ALC1        0.0000 
     43 O          29.2130   -7.5200  -20.9930 O.2      11 ALL1        0.0000 
     44 O          26.5740   -8.7690  -19.0670 O.2       6 ALP1        0.0000 
     45 O          28.9330   -8.2930  -19.7035 O.2       1 ALC1        0.0000 
     46 O          28.6530   -9.0660  -18.4140 O.2       6 ALP1        0.0000 
     47 CA         27.6193   -0.5467  -26.5975 C.3       5 GLC5        0.0000 
     48 CA         27.4940   -0.9560  -24.4020 C.3      15 GLL5        0.0000 
     49 CA         27.9530   -0.8330  -28.5480 C.3      10 GLP5        0.0000 
     50 CA         29.3487    5.1913  -24.9105 C.3       5 GLC5        0.0000 
     51 CA         26.9290    5.5780  -25.2900 C.3      15 GLL5        0.0000 
     52 CA         31.3420    4.9410  -25.0670 C.3      10 GLP5        0.0000 
     53 CA         24.9445    2.8798  -26.1782 C.3       5 GLC5        0.0000 
     54 CA         26.4150    4.5300  -26.0540 C.3      15 GLL5        0.0000 
     55 CA         29.6042    4.2010  -24.6820 C.3       5 GLC5        0.0000 
     56 CA         27.6120    2.9350  -24.6800 C.3      15 GLL5        0.0000 
     57 CA         26.6755   -7.3945  -21.6412 C.3       5 GLC5        0.0000 
     58 CA         28.7570   -8.1280  -22.0850 C.3      15 GLL5        0.0000 
     59 CA         25.0860   -6.1740  -21.1020 C.3      10 GLP5        0.0000 
     60 CA         25.5173   -7.0285  -27.2860 C.3       5 GLC5        0.0000 
     61 CA         27.1690   -6.0840  -27.7660 C.3      15 GLL5        0.0000 
     62 CA         23.6660   -7.2390  -26.7310 C.3      10 GLP5        0.0000 
     63 CA         25.3528   -6.0675  -26.4847 C.3       5 GLC5        0.0000 
     64 CA         27.2550   -5.6260  -26.3040 C.3      15 GLL5        0.0000 
     65 CA         27.5695   -2.2918  -27.0915 C.3       5 GLC5        0.0000 
@<TRIPOS>BOND
@<TRIPOS>SUBSTRUCTURE
     1 ALC1        7 GROUP        1 X    ALC  0     ROOT ALC X 1
     2 SEC2        1 GROUP        1 X    SEC  0     **** SEC X 2
     3 LYC4       10 GROUP        1 X    LYC  0     **** LYC X 4
     4 ZIC7       36 GROUP        1 X    ZIC  0     **** ZIC X 5
     5 GLC5        4 GROUP        1 X    GLC  0     **** GLC X 6
     6 ALP1        9 GROUP        1 Y    ALP  0     ROOT ALP Y 8
     7 SEP2        3 GROUP        1 Y    SEP  0     **** SEP Y 9
     8 LYP4       12 GROUP        1 Y    LYP  0     **** LYP Y 11
     9 ZIP7       38 GROUP        1 Y    ZIP  0     **** ZIP Y 12
    10 GLP5        6 GROUP        1 Y    GLP  0     **** GLP Y 13
    11 ALL1        8 GROUP        1 Z    ALL  0     ROOT ALL Z 15
    12 SEL2        2 GROUP        1 Z    SEL  0     **** SEL Z 16
    13 LYL4       11 GROUP        1 Z    LYL  0     **** LYL Z 18
    14 ZIL7       37 GROUP        1 Z    ZIL  0     **** ZIL Z 19
    15 GLL5        5 GROUP        1 Z    GLL  0     **** GLL Z 20
@<TRIPOS>SET

