#    Name: 2x95_X95_1_ligand
#    Modification time : Tue Mar 25 05:32:14 2014

@<TRIPOS>MOLECULE
2x95_X95_1_ligand
   68    70     1     0     0
SMALL
NO_CHARGES


@<TRIPOS>ATOM
      1 C          26.7300   -1.3200  -23.1370 C.2       1 X951623     0.0000 
      2 N          27.2250   -1.9440  -25.4550 N.4       1 X951623     0.0000 
      3 OXT        25.4960   -1.4890  -23.2390 O.co2     1 X951623     0.0000 
      4 CA         27.4940   -0.9560  -24.4020 C.3       1 X951623     0.0000 
      5 CB         27.0770    0.4350  -24.8920 C.3       1 X951623     0.0000 
      6 NAA        27.4410   -7.9580  -29.3290 N.4       1 X951623     0.0000 
      7 OAC        31.1390   -4.9550  -27.0220 O.co2     1 X951623     0.0000 
      8 OAD        29.8300   -2.7260  -25.5920 O.2       1 X951623     0.0000 
      9 OAF        32.8260   -4.6080  -25.6230 O.co2     1 X951623     0.0000 
     10 CAG        26.9290    5.5780  -25.2900 C.ar      1 X951623     0.0000 
     11 CAH        27.7820    5.3050  -24.2180 C.ar      1 X951623     0.0000 
     12 CAI        26.4150    4.5300  -26.0540 C.ar      1 X951623     0.0000 
     13 CAJ        27.4900   -9.5700  -23.5590 C.ar      1 X951623     0.0000 
     14 CAK        28.1970   -9.0640  -24.6480 C.ar      1 X951623     0.0000 
     15 CAL        28.1210    3.9870  -23.9140 C.ar      1 X951623     0.0000 
     16 CAM        26.7610    3.2110  -25.7530 C.ar      1 X951623     0.0000 
     17 CAN        27.7730   -9.1020  -22.2760 C.ar      1 X951623     0.0000 
     18 CAO        29.1810   -8.0950  -24.4520 C.ar      1 X951623     0.0000 
     19 CAP        30.1700   -6.6540  -21.3330 C.2       1 X951623     0.0000 
     20 CAQ        27.5680   -7.5520  -27.9160 C.3       1 X951623     0.0000 
     21 CAR        27.1690   -6.0840  -27.7660 C.3       1 X951623     0.0000 
     22 CAS        27.2550   -5.6260  -26.3040 C.3       1 X951623     0.0000 
     23 CAT        28.0100    1.4990  -24.3180 C.3       1 X951623     0.0000 
     24 CAU        26.8240   -4.1660  -26.1730 C.3       1 X951623     0.0000 
     25 CAW        31.3750   -5.8060  -23.4180 C.3       1 X951623     0.0000 
     26 NAX        29.4260   -4.7940  -24.6990 N.am      1 X951623     0.0000 
     27 CBB        31.6610   -4.9540  -25.8920 C.2       1 X951623     0.0000 
     28 CBC        29.0680   -3.5900  -25.1600 C.2       1 X951623     0.0000 
     29 CBD        27.6120    2.9350  -24.6800 C.ar      1 X951623     0.0000 
     30 CBE        30.3650   -6.6830  -22.6500 C.2       1 X951623     0.0000 
     31 CBF        28.7570   -8.1280  -22.0850 C.ar      1 X951623     0.0000 
     32 CBG        29.4640   -7.6210  -23.1680 C.ar      1 X951623     0.0000 
     33 O          27.4050   -1.4350  -22.0930 O.co2     1 X951623     0.0000 
     34 NXZ        29.2130   -7.5200  -20.9930 N.pl3     1 X951623     0.0000 
     35 CBJ        30.7430   -5.4950  -24.7820 C.3       1 X951623     0.0000 
     36 CBI        27.5480   -3.3350  -25.0970 C.3       1 X951623     0.0000 
     37 H          28.5472   -0.9315  -24.1753 H         1 X951623     0.0000 
     38 H          26.0594    0.6363  -24.5712 H         1 X951623     0.0000 
     39 H          27.1244    0.4605  -25.9765 H         1 X951623     0.0000 
     40 H          26.6814    6.5478  -25.5144 H         1 X951623     0.0000 
     41 H          28.1590    6.0760  -23.6543 H         1 X951623     0.0000 
     42 H          25.7822    4.7278  -26.8378 H         1 X951623     0.0000 
     43 H          26.7666  -10.2815  -23.6994 H         1 X951623     0.0000 
     44 H          27.9939   -9.4043  -25.5957 H         1 X951623     0.0000 
     45 H          28.7476    3.7872  -23.1237 H         1 X951623     0.0000 
     46 H          26.3886    2.4408  -26.3224 H         1 X951623     0.0000 
     47 H          27.2576   -9.4733  -21.4684 H         1 X951623     0.0000 
     48 H          29.7036   -7.7252  -25.2587 H         1 X951623     0.0000 
     49 H          30.6580   -6.0800  -20.7027 H         1 X951623     0.0000 
     50 H          28.5959   -7.6680  -27.5736 H         1 X951623     0.0000 
     51 H          26.9168   -8.1541  -27.2831 H         1 X951623     0.0000 
     52 H          26.1467   -5.9504  -28.1214 H         1 X951623     0.0000 
     53 H          27.8328   -5.4665  -28.3721 H         1 X951623     0.0000 
     54 H          28.2795   -5.7324  -25.9571 H         1 X951623     0.0000 
     55 H          26.6050   -6.2501  -25.6964 H         1 X951623     0.0000 
     56 H          29.0335    1.3126  -24.6802 H         1 X951623     0.0000 
     57 H          28.0325    1.4031  -23.2209 H         1 X951623     0.0000 
     58 H          25.7325   -4.1314  -25.9660 H         1 X951623     0.0000 
     59 H          26.9603   -3.6623  -27.1544 H         1 X951623     0.0000 
     60 H          32.2838   -6.3518  -23.5585 H         1 X951623     0.0000 
     61 H          31.5356   -4.8959  -22.8799 H         1 X951623     0.0000 
     62 H          28.6817   -5.3981  -24.1748 H         1 X951623     0.0000 
     63 H          28.8972   -7.6811  -20.0806 H         1 X951623     0.0000 
     64 H          30.4450   -6.5747  -25.1904 H         1 X951623     0.0000 
     65 H          27.1632   -3.5882  -24.1558 H         1 X951623     0.0000 
     66 H          28.0259   -7.4099  -29.9269 H         1 X951623     0.0000 
     67 H          27.6976   -8.9149  -29.4650 H         1 X951623     0.0000 
     68 H          26.5036   -7.8557  -29.6620 H         1 X951623     0.0000 
@<TRIPOS>BOND
     1    3    1 ar   
     2    4    1 1    
     3   33    1 ar   
     4    4    2 1    
     5   36    2 1    
     6    5    4 1    
     7   37    4 1    
     8   23    5 1    
     9   38    5 1    
    10   39    5 1    
    11   20    6 1    
    12   66    6 1    
    13   67    6 1    
    14   68    6 1    
    15   27    7 ar   
    16   28    8 2    
    17   27    9 ar   
    18   11   10 ar   
    19   12   10 ar   
    20   40   10 1    
    21   15   11 ar   
    22   41   11 1    
    23   16   12 ar   
    24   42   12 1    
    25   14   13 ar   
    26   17   13 ar   
    27   43   13 1    
    28   18   14 ar   
    29   44   14 1    
    30   29   15 ar   
    31   45   15 1    
    32   29   16 ar   
    33   46   16 1    
    34   31   17 ar   
    35   47   17 1    
    36   32   18 ar   
    37   48   18 1    
    38   30   19 2    
    39   34   19 1    
    40   49   19 1    
    41   21   20 1    
    42   50   20 1    
    43   51   20 1    
    44   22   21 1    
    45   52   21 1    
    46   53   21 1    
    47   24   22 1    
    48   54   22 1    
    49   55   22 1    
    50   29   23 1    
    51   56   23 1    
    52   57   23 1    
    53   36   24 1    
    54   58   24 1    
    55   59   24 1    
    56   30   25 1    
    57   35   25 1    
    58   60   25 1    
    59   61   25 1    
    60   28   26 am   
    61   35   26 1    
    62   62   26 1    
    63   35   27 1    
    64   36   28 1    
    65   32   30 1    
    66   32   31 ar   
    67   34   31 1    
    68   63   34 1    
    69   64   35 1    
    70   65   36 1    
@<TRIPOS>SUBSTRUCTURE
     1 X951623     1 GROUP   
@<TRIPOS>SET

