#    Name: 1lon_IMO_1_INTS_M
#    Modification time : Tue Mar 25 11:11:45 2014

@<TRIPOS>MOLECULE
1lon_IMO_1_INTS_M
   73     0    15     0     0
SMALL
NO_CHARGES


@<TRIPOS>ATOM
      1 Zn          7.1960   14.6175   35.7330 Zn        4 ZIC7        0.0000 
      2 Zn          6.9060   13.9790   36.4480 Zn       14 ZIL7        0.0000 
      3 Zn          7.4860   15.2560   35.0180 Zn        9 ZIP7        0.0000 
      4 N           8.0360   14.2585   37.2885 N.am      2 SEC2        0.0000 
      5 N           6.9060   13.9790   36.4480 N.am     12 SEL2        0.0000 
      6 N           9.1660   14.5380   38.1290 N.am      7 SEP2        0.0000 
      7 CA          4.3335   11.3065   33.7115 C.3       5 GLC5        0.0000 
      8 CA          6.0430   10.3550   33.8710 C.3      15 GLL5        0.0000 
      9 CA          2.6240   12.2580   33.5520 C.3      10 GLP5        0.0000 
     10 CA          4.4175    9.2695   34.5760 C.3       5 GLC5        0.0000 
     11 CA          2.7920    8.1840   35.2810 C.3      10 GLP5        0.0000 
     12 CA          7.1250    9.6275   32.5540 C.3       5 GLC5        0.0000 
     13 CA          8.2070    8.9000   31.2370 C.3      10 GLP5        0.0000 
     14 CA          4.5510    5.9915   34.7490 C.3       5 GLC5        0.0000 
     15 CA          6.4620    6.1640   35.1100 C.3      15 GLL5        0.0000 
     16 CA          2.6400    5.8190   34.3880 C.3      10 GLP5        0.0000 
     17 CA          9.4675    6.4960   35.8340 C.3       5 GLC5        0.0000 
     18 CA          7.7950    5.5020   34.7710 C.3      15 GLL5        0.0000 
     19 CA         11.1400    7.4900   36.8970 C.3      10 GLP5        0.0000 
     20 CA          4.4620    4.8605   35.0450 C.3       5 GLC5        0.0000 
     21 CA          6.2840    3.9020   35.7020 C.3      15 GLL5        0.0000 
     22 CA          8.7535    2.8695   36.5920 C.3       5 GLC5        0.0000 
     23 CA          6.7690    3.2680   36.9860 C.3      15 GLL5        0.0000 
     24 CA         10.7380    2.4710   36.1980 C.3      10 GLP5        0.0000 
     25 NZ          3.9810   14.4835   37.2865 N.4       3 LYC4        0.0000 
     26 NZ          5.2490   13.7440   38.3460 N.4      13 LYL4        0.0000 
     27 NZ          2.7130   15.2230   36.2270 N.4       8 LYP4        0.0000 
     28 N           5.2360   14.8915   38.7905 N.am      2 SEC2        0.0000 
     29 N           5.2490   13.7440   38.3460 N.am     12 SEL2        0.0000 
     30 N           5.2230   16.0390   39.2350 N.am      7 SEP2        0.0000 
     31 N           4.1350   12.9975   38.7020 N.am      2 SEC2        0.0000 
     32 N           3.0210   12.2510   39.0580 N.am      7 SEP2        0.0000 
     33 NZ          3.5875   14.3065   36.0885 N.4       3 LYC4        0.0000 
     34 NZ          4.4620   13.3900   35.9500 N.4      13 LYL4        0.0000 
     35 N           4.2295   13.7970   34.5860 N.am      2 SEC2        0.0000 
     36 N           4.4620   13.3900   35.9500 N.am     12 SEL2        0.0000 
     37 N           3.9970   14.2040   33.2220 N.am      7 SEP2        0.0000 
     38 N           3.5875   14.3065   36.0885 N.am      2 SEC2        0.0000 
     39 N           2.7130   15.2230   36.2270 N.am      7 SEP2        0.0000 
     40 N          10.7310    4.6370   38.0275 N.am      2 SEC2        0.0000 
     41 N           9.7210    4.7320   39.0600 N.am     12 SEL2        0.0000 
     42 N          11.7410    4.5420   36.9950 N.am      7 SEP2        0.0000 
     43 N          10.7620    5.6610   39.0570 N.am      2 SEC2        0.0000 
     44 N          11.8030    6.5900   39.0540 N.am      7 SEP2        0.0000 
     45 N           8.9975    2.0010   40.2945 N.am      2 SEC2        0.0000 
     46 N           8.1410    2.8360   39.6360 N.am     12 SEL2        0.0000 
     47 N           9.8540    1.1660   40.9530 N.am      7 SEP2        0.0000 
     48 N           7.2740    6.4025   40.1980 N.am      2 SEC2        0.0000 
     49 N           7.2740    5.2110   39.4310 N.am     12 SEL2        0.0000 
     50 N           7.2740    7.5940   40.9650 N.am      7 SEP2        0.0000 
     51 N           6.0735    5.3030   40.0780 N.am      2 SEC2        0.0000 
     52 N           4.8730    5.3950   40.7250 N.am      7 SEP2        0.0000 
     53 CA          7.2990    8.8025   33.2645 C.3       5 GLC5        0.0000 
     54 CA          6.3910    8.7050   35.2920 C.3      15 GLL5        0.0000 
     55 N           5.5095   10.7530   38.2255 N.am      2 SEC2        0.0000 
     56 N           5.9910   11.6910   37.0650 N.am     12 SEL2        0.0000 
     57 N           5.0280    9.8150   39.3860 N.am      7 SEP2        0.0000 
     58 N           9.8070    6.1240   33.3955 N.am      2 SEC2        0.0000 
     59 N           8.3400    6.0100   33.5730 N.am     12 SEL2        0.0000 
     60 N          11.2740    6.2380   33.2180 N.am      7 SEP2        0.0000 
     61 O           7.9830    6.0585   32.4180 O.2       1 ALC1        0.0000 
     62 O           8.3400    6.0100   33.5730 O.2      11 ALL1        0.0000 
     63 O           7.6260    6.1070   31.2630 O.2       6 ALP1        0.0000 
     64 CA          9.1623    3.6212   35.4545 C.3       5 GLC5        0.0000 
     65 CA          6.8217    1.5800   35.7970 C.3       5 GLC5        0.0000 
     66 CA          7.1170   -0.4250   35.2500 C.3      10 GLP5        0.0000 
     67 CA          5.1433    3.6360   37.8825 C.3       5 GLC5        0.0000 
     68 CA          3.7600    3.6870   39.4210 C.3      10 GLP5        0.0000 
     69 CA          4.5130   10.7423   37.1585 C.3       5 GLC5        0.0000 
     70 CA          6.4420    9.5740   36.3720 C.3      15 GLL5        0.0000 
     71 CA          2.6830   11.2230   38.0790 C.3      10 GLP5        0.0000 
     72 CA          4.5611    9.1141   35.6245 C.3       5 GLC5        0.0000 
     73 CA          6.2440   10.9490   36.1040 C.3      15 GLL5        0.0000 
@<TRIPOS>BOND
@<TRIPOS>SUBSTRUCTURE
     1 ALC1       61 GROUP        1 X    ALC  0     ROOT ALC X 1
     2 SEC2        4 GROUP        1 X    SEC  0     **** SEC X 2
     3 LYC4       25 GROUP        1 X    LYC  0     **** LYC X 4
     4 ZIC7        1 GROUP        1 X    ZIC  0     **** ZIC X 5
     5 GLC5        7 GROUP        1 X    GLC  0     **** GLC X 6
     6 ALP1       63 GROUP        1 Y    ALP  0     ROOT ALP Y 8
     7 SEP2        6 GROUP        1 Y    SEP  0     **** SEP Y 9
     8 LYP4       27 GROUP        1 Y    LYP  0     **** LYP Y 11
     9 ZIP7        3 GROUP        1 Y    ZIP  0     **** ZIP Y 12
    10 GLP5        9 GROUP        1 Y    GLP  0     **** GLP Y 13
    11 ALL1       62 GROUP        1 Z    ALL  0     ROOT ALL Z 15
    12 SEL2        5 GROUP        1 Z    SEL  0     **** SEL Z 16
    13 LYL4       26 GROUP        1 Z    LYL  0     **** LYL Z 18
    14 ZIL7        2 GROUP        1 Z    ZIL  0     **** ZIL Z 19
    15 GLL5        8 GROUP        1 Z    GLL  0     **** GLL Z 20
@<TRIPOS>SET

