#    Name: 1lon_IMO_1_ligand
#    Modification time : Tue Mar 25 11:11:45 2014

@<TRIPOS>MOLECULE
1lon_IMO_1_ligand
   37    39     1     0     0
SMALL
NO_CHARGES


@<TRIPOS>ATOM
      1 P           5.6290   13.2830   36.9400 P.3       1 IMO1451     0.0000 
      2 O1          6.9060   13.9790   36.4480 O.co2     1 IMO1451     0.0000 
      3 C2          6.0430   10.3550   33.8710 C.ar      1 IMO1451     0.0000 
      4 C1'         6.4620    6.1640   35.1100 C.3       1 IMO1451     0.0000 
      5 C2'         7.7950    5.5020   34.7710 C.3       1 IMO1451     0.0000 
      6 C3'         7.3780    4.0410   34.6510 C.3       1 IMO1451     0.0000 
      7 C4'         6.2840    3.9020   35.7020 C.3       1 IMO1451     0.0000 
      8 C5'         6.7690    3.2680   36.9860 C.3       1 IMO1451     0.0000 
      9 O2          5.2490   13.7440   38.3460 O.co2     1 IMO1451     0.0000 
     10 O3          4.4620   13.3900   35.9500 O.co2     1 IMO1451     0.0000 
     11 PA          8.3090    4.1930   38.9730 P.3       1 IMO1451     0.0000 
     12 O1A         9.7210    4.7320   39.0600 O.co2     1 IMO1451     0.0000 
     13 O2A         8.1410    2.8360   39.6360 O.co2     1 IMO1451     0.0000 
     14 O3A         7.2740    5.2110   39.4310 O.co2     1 IMO1451     0.0000 
     15 O5'         8.0060    3.8950   37.4030 O.3       1 IMO1451     0.0000 
     16 O4'         5.7870    5.2470   35.9520 O.3       1 IMO1451     0.0000 
     17 N9          6.5530    7.4410   35.8230 N.pl3     1 IMO1451     0.0000 
     18 C4          6.3910    8.7050   35.2920 C.ar      1 IMO1451     0.0000 
     19 N3          6.1920    9.0380   34.0000 N.ar      1 IMO1451     0.0000 
     20 N1          6.0540   11.3110   34.8160 N.ar      1 IMO1451     0.0000 
     21 C6          6.2440   10.9490   36.1040 C.ar      1 IMO1451     0.0000 
     22 O6          5.9910   11.6910   37.0650 O.3       1 IMO1451     0.0000 
     23 C5          6.4420    9.5740   36.3720 C.ar      1 IMO1451     0.0000 
     24 N7          6.6860    8.8750   37.5510 N.2       1 IMO1451     0.0000 
     25 C8          6.7560    7.6230   37.1700 C.2       1 IMO1451     0.0000 
     26 O2'         8.3400    6.0100   33.5730 O.3       1 IMO1451     0.0000 
     27 O3'         6.8900    3.6580   33.3660 O.3       1 IMO1451     0.0000 
     28 H           5.8868   10.7210   32.8344 H         1 IMO1451     0.0000 
     29 H           5.9048    6.2823   34.1891 H         1 IMO1451     0.0000 
     30 H           8.4234    5.5925   35.6222 H         1 IMO1451     0.0000 
     31 H           8.2063    3.4353   34.9860 H         1 IMO1451     0.0000 
     32 H           5.4903    3.2995   35.2794 H         1 IMO1451     0.0000 
     33 H           6.9106    2.1963   36.8119 H         1 IMO1451     0.0000 
     34 H           5.9913    3.3878   37.7475 H         1 IMO1451     0.0000 
     35 H           6.9389    6.8464   37.7787 H         1 IMO1451     0.0000 
     36 H           7.6634    5.7941   32.8690 H         1 IMO1451     0.0000 
     37 H           6.4831    2.7548   33.5025 H         1 IMO1451     0.0000 
@<TRIPOS>BOND
     1    2    1 ar   
     2    9    1 ar   
     3   10    1 ar   
     4   22    1 1    
     5   19    3 ar   
     6   20    3 ar   
     7   28    3 1    
     8    5    4 1    
     9   16    4 1    
    10   17    4 1    
    11   29    4 1    
    12    6    5 1    
    13   26    5 1    
    14   30    5 1    
    15    7    6 1    
    16   27    6 1    
    17   31    6 1    
    18    8    7 1    
    19   16    7 1    
    20   32    7 1    
    21   15    8 1    
    22   33    8 1    
    23   34    8 1    
    24   12   11 ar   
    25   13   11 ar   
    26   14   11 ar   
    27   15   11 1    
    28   18   17 1    
    29   25   17 1    
    30   19   18 ar   
    31   23   18 ar   
    32   21   20 ar   
    33   22   21 1    
    34   23   21 ar   
    35   24   23 1    
    36   25   24 2    
    37   35   25 1    
    38   36   26 1    
    39   37   27 1    
@<TRIPOS>SUBSTRUCTURE
     1 IMO1451     1 GROUP   
@<TRIPOS>SET

