#    Name: 2gr2_APR_1_INTS_M
#    Modification time : Tue Mar 25 15:00:55 2014

@<TRIPOS>MOLECULE
2gr2_APR_1_INTS_M
   87     0    12     0     0
SMALL
NO_CHARGES


@<TRIPOS>ATOM
      1 CA         78.1090   26.8985    3.9200 C.3       4 GLC5        0.0000 
      2 CA         77.9010   28.1220    5.2180 C.3      12 GLL5        0.0000 
      3 CA         78.3170   25.6750    2.6220 C.3       8 GLP5        0.0000 
      4 CA         77.9290   26.2150    6.1820 C.3       4 GLC5        0.0000 
      5 CA         77.9570   24.3080    7.1460 C.3       8 GLP5        0.0000 
      6 CA         79.3715   28.1860    6.6585 C.3       4 GLC5        0.0000 
      7 CA         80.8420   28.2500    8.0990 C.3       8 GLP5        0.0000 
      8 CA         77.8575   29.8400    5.4325 C.3       4 GLC5        0.0000 
      9 CA         77.8140   31.5580    5.6470 C.3       8 GLP5        0.0000 
     10 CA         76.4315   26.7035    4.7870 C.3       4 GLC5        0.0000 
     11 CA         74.9620   25.2850    4.3560 C.3       8 GLP5        0.0000 
     12 CA         76.9575   26.2020    6.8330 C.3       4 GLC5        0.0000 
     13 CA         75.9580   28.0960    6.5200 C.3      12 GLL5        0.0000 
     14 CA         75.4900   28.3295    2.2835 C.3       4 GLC5        0.0000 
     15 CA         75.8740   28.9460    4.3000 C.3      12 GLL5        0.0000 
     16 CA         75.1060   27.7130    0.2670 C.3       8 GLP5        0.0000 
     17 CA         77.0955   27.3105    3.4610 C.3       4 GLC5        0.0000 
     18 N          72.2950   28.4105    5.6330 N.am      2 SEC2        0.0000 
     19 N          73.9350   28.8020    5.9070 N.am     10 SEL2        0.0000 
     20 N          70.6550   28.0190    5.3590 N.am      6 SEP2        0.0000 
     21 CA         76.7750   25.8075    7.9700 C.3       4 GLC5        0.0000 
     22 CA         75.5930   27.3070    8.7940 C.3      12 GLL5        0.0000 
     23 N          76.3880   28.5095   12.0555 N.am      2 SEC2        0.0000 
     24 N          75.5290   28.9060   10.6150 N.am     10 SEL2        0.0000 
     25 N          77.2470   28.1130   13.4960 N.am      6 SEP2        0.0000 
     26 O          76.7315   28.9715   10.5090 O.2       1 ALC1        0.0000 
     27 O          75.5290   28.9060   10.6150 O.2       9 ALL1        0.0000 
     28 O          77.9340   29.0370   10.4030 O.2       5 ALP1        0.0000 
     29 N          76.6875   27.3285   12.6270 N.am      2 SEC2        0.0000 
     30 N          76.1280   26.5440   11.7580 N.am     10 SEL2        0.0000 
     31 O          77.0310   27.7905   11.0805 O.2       1 ALC1        0.0000 
     32 O          76.1280   26.5440   11.7580 O.2       9 ALL1        0.0000 
     33 O          77.2810   26.7150   11.0675 O.2       1 ALC1        0.0000 
     34 O          78.4340   26.8860   10.3770 O.2       5 ALP1        0.0000 
     35 CA         76.5065   24.8210    8.5320 C.3       4 GLC5        0.0000 
     36 CA         75.0560   25.3340    9.9180 C.3      12 GLL5        0.0000 
     37 CA         71.8885   24.0020    8.7865 C.3       4 GLC5        0.0000 
     38 CA         73.7910   24.4750    9.8230 C.3      12 GLL5        0.0000 
     39 CA         69.9860   23.5290    7.7500 C.3       8 GLP5        0.0000 
     40 NZ         71.7210   21.7990   13.7890 N.4       3 LYC4        0.0000 
     41 NZ         72.6590   22.1120   12.6840 N.4      11 LYL4        0.0000 
     42 NZ         69.9610   22.5070   15.1180 N.4       7 LYP4        0.0000 
     43 N          74.0935   21.1840   12.9145 N.am      2 SEC2        0.0000 
     44 N          72.6590   22.1120   12.6840 N.am     10 SEL2        0.0000 
     45 N          75.5280   20.2560   13.1450 N.am      6 SEP2        0.0000 
     46 N          71.3405   22.8450   13.5070 N.am      2 SEC2        0.0000 
     47 N          70.0220   23.5780   14.3300 N.am      6 SEP2        0.0000 
     48 N          71.7210   21.7990   13.7890 N.am      2 SEC2        0.0000 
     49 N          70.7830   21.4860   14.8940 N.am      6 SEP2        0.0000 
     50 N          70.6050   23.8040   12.9265 N.am      2 SEC2        0.0000 
     51 N          71.1880   24.0300   11.5230 N.am     10 SEL2        0.0000 
     52 N          69.8455   23.6460   11.1350 N.am      2 SEC2        0.0000 
     53 N          68.5030   23.2620   10.7470 N.am      6 SEP2        0.0000 
     54 N          74.5250   19.1620   10.8085 N.am      2 SEC2        0.0000 
     55 N          73.7640   20.3750   10.2080 N.am     10 SEL2        0.0000 
     56 N          75.2860   17.9490   11.4090 N.am      6 SEP2        0.0000 
     57 N          74.9405   20.7860    9.7915 N.am      2 SEC2        0.0000 
     58 N          76.1170   21.1970    9.3750 N.am      6 SEP2        0.0000 
     59 N          71.7810   22.1275    7.5755 N.am      2 SEC2        0.0000 
     60 N          72.2750   20.7820    8.0410 N.am     10 SEL2        0.0000 
     61 N          71.2870   23.4730    7.1100 N.am      6 SEP2        0.0000 
     62 CA         69.9800   21.7435    8.8350 C.3       4 GLC5        0.0000 
     63 CA         69.9740   19.9580    9.9200 C.3      12 GLL5        0.0000 
     64 N          67.5405   17.1855   12.4020 N.am      2 SEC2        0.0000 
     65 N          68.9120   16.8620   12.9800 N.am     10 SEL2        0.0000 
     66 N          66.1690   17.5090   11.8240 N.am      6 SEP2        0.0000 
     67 CA         69.6885   15.4000   12.2580 C.3       4 GLC5        0.0000 
     68 CA         69.9840   17.2770   12.1200 C.3      12 GLL5        0.0000 
     69 CA         69.3930   13.5230   12.3960 C.3       8 GLP5        0.0000 
     70 O          67.9450   20.7845   12.9645 O.2       1 ALC1        0.0000 
     71 O          68.6960   19.7900   13.3430 O.2       9 ALL1        0.0000 
     72 O          67.1940   21.7790   12.5860 O.2       5 ALP1        0.0000 
     73 CA         76.7729   30.1101    5.4001 C.3       4 GLC5        0.0000 
     74 CA         75.3469   26.9736    4.7546 C.3       4 GLC5        0.0000 
     75 CA         75.3502   23.6408   11.0463 C.3       4 GLC5        0.0000 
     76 CA         76.2770   22.3770   12.2220 C.3       8 GLP5        0.0000 
     77 CA         73.8347   24.6537    7.9463 C.3       4 GLC5        0.0000 
     78 CA         73.2460   24.4030    6.0220 C.3       8 GLP5        0.0000 
     79 CA         70.7157   18.0633    9.5860 C.3       4 GLC5        0.0000 
     80 CA         71.8450   16.5510    8.7160 C.3       8 GLP5        0.0000 
     81 CA         68.4013   19.7323    9.0420 C.3       4 GLC5        0.0000 
     82 CA         67.2160   19.8890    7.6280 C.3       8 GLP5        0.0000 
     83 CA         71.6720   17.1850   11.1125 C.3       4 GLC5        0.0000 
     84 CA         70.6200   18.4730   12.7780 C.3      12 GLL5        0.0000 
     85 CA         73.0420   16.4950    9.7760 C.3       8 GLP5        0.0000 
     86 CA         71.6825   18.7238   13.1427 C.3       4 GLC5        0.0000 
     87 CA         73.3490   18.6980   13.8820 C.3       8 GLP5        0.0000 
@<TRIPOS>BOND
@<TRIPOS>SUBSTRUCTURE
     1 ALC1       26 GROUP        1 X    ALC  0     ROOT ALC X 1
     2 SEC2       18 GROUP        1 X    SEC  0     **** SEC X 2
     3 LYC4       40 GROUP        1 X    LYC  0     **** LYC X 4
     4 GLC5        1 GROUP        1 X    GLC  0     **** GLC X 6
     5 ALP1       28 GROUP        1 Y    ALP  0     ROOT ALP Y 8
     6 SEP2       20 GROUP        1 Y    SEP  0     **** SEP Y 9
     7 LYP4       42 GROUP        1 Y    LYP  0     **** LYP Y 11
     8 GLP5        3 GROUP        1 Y    GLP  0     **** GLP Y 13
     9 ALL1       27 GROUP        1 Z    ALL  0     ROOT ALL Z 15
    10 SEL2       19 GROUP        1 Z    SEL  0     **** SEL Z 16
    11 LYL4       41 GROUP        1 Z    LYL  0     **** LYL Z 18
    12 GLL5        2 GROUP        1 Z    GLL  0     **** GLL Z 20
@<TRIPOS>SET

