#    Name: 2gr2_APR_1_ligand
#    Modification time : Tue Mar 25 15:00:55 2014

@<TRIPOS>MOLECULE
2gr2_APR_1_ligand
   57    60     1     0     0
SMALL
NO_CHARGES


@<TRIPOS>ATOM
      1 N1         77.2060   28.6730    4.2040 N.ar      1 APR1500     0.0000 
      2 C2         77.9010   28.1220    5.2180 C.ar      1 APR1500     0.0000 
      3 N3         77.2980   27.8450    6.3900 N.ar      1 APR1500     0.0000 
      4 C4         75.9580   28.0960    6.5200 C.ar      1 APR1500     0.0000 
      5 C5         75.2210   28.6610    5.4930 C.ar      1 APR1500     0.0000 
      6 C6         75.8740   28.9460    4.3000 C.ar      1 APR1500     0.0000 
      7 N6         75.1600   29.5010    3.2780 N.pl3     1 APR1500     0.0000 
      8 N7         73.9350   28.8020    5.9070 N.2       1 APR1500     0.0000 
      9 C8         73.8930   28.3400    7.1910 C.2       1 APR1500     0.0000 
     10 N9         75.1300   27.9270    7.5350 N.pl3     1 APR1500     0.0000 
     11 C1'        75.5930   27.3070    8.7940 C.3       1 APR1500     0.0000 
     12 C2'        74.8860   27.7570   10.0410 C.3       1 APR1500     0.0000 
     13 O2'        75.5290   28.9060   10.6150 O.3       1 APR1500     0.0000 
     14 C3'        74.9690   26.5040   10.9070 C.3       1 APR1500     0.0000 
     15 O3'        76.1280   26.5440   11.7580 O.3       1 APR1500     0.0000 
     16 O4'        75.2880   25.9160    8.6500 O.3       1 APR1500     0.0000 
     17 C4'        75.0560   25.3340    9.9180 C.3       1 APR1500     0.0000 
     18 C5'        73.7910   24.4750    9.8230 C.3       1 APR1500     0.0000 
     19 O5'        73.6370   23.8090   11.0680 O.3       1 APR1500     0.0000 
     20 PA         72.3040   23.0110   11.4950 P.3       1 APR1500     0.0000 
     21 O1A        72.6590   22.1120   12.6840 O.co2     1 APR1500     0.0000 
     22 O2A        71.1880   24.0300   11.5230 O.co2     1 APR1500     0.0000 
     23 O3A        71.9600   22.1740   10.1530 O.3       1 APR1500     0.0000 
     24 PB         72.4570   20.7420    9.5610 P.3       1 APR1500     0.0000 
     25 O1B        73.7640   20.3750   10.2080 O.co2     1 APR1500     0.0000 
     26 O2B        72.2750   20.7820    8.0410 O.co2     1 APR1500     0.0000 
     27 O5D        71.3660   19.7460   10.1700 O.3       1 APR1500     0.0000 
     28 C5D        69.9740   19.9580    9.9200 C.3       1 APR1500     0.0000 
     29 O4D        69.4470   17.7830   10.8800 O.3       1 APR1500     0.0000 
     30 O1D        68.9120   16.8620   12.9800 O.3       1 APR1500     0.0000 
     31 C1D        69.9840   17.2770   12.1200 C.3       1 APR1500     0.0000 
     32 O2D        70.6900   18.3810   14.2200 O.3       1 APR1500     0.0000 
     33 C2D        70.6200   18.4730   12.7780 C.3       1 APR1500     0.0000 
     34 O3D        68.6960   19.7900   13.3430 O.3       1 APR1500     0.0000 
     35 C3D        69.7300   19.6240   12.3580 C.3       1 APR1500     0.0000 
     36 C4D        69.1990   19.1930   10.9920 C.3       1 APR1500     0.0000 
     37 H          78.9177   27.9075    5.0939 H         1 APR1500     0.0000 
     38 H          74.1959   29.6888    3.4660 H         1 APR1500     0.0000 
     39 H          75.6636   29.6711    2.4310 H         1 APR1500     0.0000 
     40 H          73.1086   28.3170    7.7484 H         1 APR1500     0.0000 
     41 H          76.6483   27.4294    8.9069 H         1 APR1500     0.0000 
     42 H          73.8600   27.9176    9.7954 H         1 APR1500     0.0000 
     43 H          74.0576   26.4106   11.4506 H         1 APR1500     0.0000 
     44 H          75.8857   24.7096   10.2014 H         1 APR1500     0.0000 
     45 H          73.9233   23.7804    8.9974 H         1 APR1500     0.0000 
     46 H          72.9569   25.1365    9.6033 H         1 APR1500     0.0000 
     47 H          69.6720   19.5751    8.9499 H         1 APR1500     0.0000 
     48 H          69.7026   21.0067    9.9936 H         1 APR1500     0.0000 
     49 H          70.7024   16.5404   11.9723 H         1 APR1500     0.0000 
     50 H          71.5839   18.6340   12.3298 H         1 APR1500     0.0000 
     51 H          70.3379   20.4830   12.2348 H         1 APR1500     0.0000 
     52 H          68.1747   19.4314   10.9332 H         1 APR1500     0.0000 
     53 H          76.3310   29.0678   10.0400 H         1 APR1500     0.0000 
     54 H          76.9038   26.6393   11.1342 H         1 APR1500     0.0000 
     55 H          68.7268   17.6532   13.5628 H         1 APR1500     0.0000 
     56 H          69.9401   18.9529   14.5524 H         1 APR1500     0.0000 
     57 H          68.1544   20.5665   13.0211 H         1 APR1500     0.0000 
@<TRIPOS>BOND
     1    2    1 ar   
     2    6    1 ar   
     3    3    2 ar   
     4   37    2 1    
     5    4    3 ar   
     6    5    4 ar   
     7   10    4 1    
     8    6    5 ar   
     9    8    5 1    
    10    7    6 1    
    11   38    7 1    
    12   39    7 1    
    13    9    8 2    
    14   10    9 1    
    15   40    9 1    
    16   11   10 1    
    17   12   11 1    
    18   16   11 1    
    19   41   11 1    
    20   13   12 1    
    21   14   12 1    
    22   42   12 1    
    23   53   13 1    
    24   15   14 1    
    25   17   14 1    
    26   43   14 1    
    27   54   15 1    
    28   17   16 1    
    29   18   17 1    
    30   44   17 1    
    31   19   18 1    
    32   45   18 1    
    33   46   18 1    
    34   20   19 1    
    35   21   20 ar   
    36   22   20 ar   
    37   23   20 1    
    38   24   23 1    
    39   25   24 ar   
    40   26   24 ar   
    41   27   24 1    
    42   28   27 1    
    43   36   28 1    
    44   47   28 1    
    45   48   28 1    
    46   31   29 1    
    47   36   29 1    
    48   31   30 1    
    49   55   30 1    
    50   33   31 1    
    51   49   31 1    
    52   33   32 1    
    53   56   32 1    
    54   35   33 1    
    55   50   33 1    
    56   35   34 1    
    57   57   34 1    
    58   36   35 1    
    59   51   35 1    
    60   52   36 1    
@<TRIPOS>SUBSTRUCTURE
     1 APR1500     1 GROUP   
@<TRIPOS>SET

