#    Name: 3amu_APC_1_INTS_M
#    Modification time : Mon Mar 24 17:49:59 2014

@<TRIPOS>MOLECULE
3amu_APC_1_INTS_M
   61     0    12     0     0
SMALL
NO_CHARGES


@<TRIPOS>ATOM
      1 NZ         46.7900  -24.2705   -1.0230 N.4       3 LYC4        0.0000 
      2 NZ         47.4480  -23.2070   -1.7600 N.4      11 LYL4        0.0000 
      3 NZ         46.1320  -25.3340   -0.2860 N.4       7 LYP4        0.0000 
      4 N          48.2210  -24.5545   -1.7240 N.am      2 SEC2        0.0000 
      5 N          47.4480  -23.2070   -1.7600 N.am     10 SEL2        0.0000 
      6 N          48.9940  -25.9020   -1.6880 N.am      6 SEP2        0.0000 
      7 N          51.5495  -23.3870   -2.1920 N.am      2 SEC2        0.0000 
      8 N          50.0120  -23.1570   -2.3380 N.am     10 SEL2        0.0000 
      9 N          53.0870  -23.6170   -2.0460 N.am      6 SEP2        0.0000 
     10 N          49.5030  -24.5295   -2.0130 N.am      2 SEC2        0.0000 
     11 N          52.8315  -21.6015   -1.6420 N.am      2 SEC2        0.0000 
     12 N          51.4450  -22.0910   -1.1960 N.am     10 SEL2        0.0000 
     13 N          54.2180  -21.1120   -2.0880 N.am      6 SEP2        0.0000 
     14 CA         48.2250  -23.3960   -0.2845 C.3       4 GLC5        0.0000 
     15 CA         48.9190  -21.6080   -0.6400 C.3      12 GLL5        0.0000 
     16 CA         47.5310  -25.1840    0.0710 C.3       8 GLP5        0.0000 
     17 CA         55.4635  -21.2395    2.0245 C.3       4 GLC5        0.0000 
     18 CA         53.3050  -21.5850    2.5340 C.3      12 GLL5        0.0000 
     19 CA         57.6220  -20.8940    1.5150 C.3       8 GLP5        0.0000 
     20 O          55.3360  -20.9500    3.6730 O.2       1 ALC1        0.0000 
     21 O          54.1430  -20.7940    3.3810 O.2       9 ALL1        0.0000 
     22 O          56.5290  -21.1060    3.9650 O.2       5 ALP1        0.0000 
     23 CA         54.7815  -24.7305    2.3125 C.3       4 GLC5        0.0000 
     24 CA         53.4970  -23.0520    2.9110 C.3      12 GLL5        0.0000 
     25 CA         56.0660  -26.4090    1.7140 C.3       8 GLP5        0.0000 
     26 N          55.7400  -24.4360    2.9500 N.am      2 SEC2        0.0000 
     27 N          54.8910  -23.2910    3.1170 N.am     10 SEL2        0.0000 
     28 N          56.5890  -25.5810    2.7830 N.am      6 SEP2        0.0000 
     29 O          55.7100  -22.1985    3.5410 O.2       1 ALC1        0.0000 
     30 O          54.8910  -23.2910    3.1170 O.2       9 ALL1        0.0000 
     31 CA         52.8595  -26.9815    4.4155 C.3       4 GLC5        0.0000 
     32 CA         52.3680  -25.9270    6.3040 C.3      12 GLL5        0.0000 
     33 CA         53.3510  -28.0360    2.5270 C.3       8 GLP5        0.0000 
     34 CA         50.7200  -25.9060    8.1290 C.3       4 GLC5        0.0000 
     35 CA         52.2830  -26.4510    7.5860 C.3      12 GLL5        0.0000 
     36 CA         49.1570  -25.3610    8.6720 C.3       8 GLP5        0.0000 
     37 CA         53.5190  -28.1565    7.0070 C.3       4 GLC5        0.0000 
     38 CA         54.7550  -29.8620    6.4280 C.3       8 GLP5        0.0000 
     39 CA         51.9405  -26.9365    9.7355 C.3       4 GLC5        0.0000 
     40 CA         51.5980  -27.4220   11.8850 C.3       8 GLP5        0.0000 
     41 CA         53.9260  -27.3705    8.8135 C.3       4 GLC5        0.0000 
     42 CA         55.5690  -28.2900   10.0410 C.3       8 GLP5        0.0000 
     43 O          52.0715  -28.8685    6.8470 O.2       1 ALC1        0.0000 
     44 O          52.2250  -27.7690    7.7690 O.2       9 ALL1        0.0000 
     45 O          51.9180  -29.9680    5.9250 O.2       5 ALP1        0.0000 
     46 O          51.2890  -28.4310    8.9355 O.2       1 ALC1        0.0000 
     47 O          50.3530  -29.0930   10.1020 O.2       5 ALP1        0.0000 
     48 N          53.0955  -26.1485   10.0690 N.am      2 SEC2        0.0000 
     49 N          52.3280  -25.6130    8.6290 N.am     10 SEL2        0.0000 
     50 N          53.8630  -26.6840   11.5090 N.am      6 SEP2        0.0000 
     51 CA         50.8075  -24.8340    8.5655 C.3       4 GLC5        0.0000 
     52 CA         52.4580  -24.3070    8.4590 C.3      12 GLL5        0.0000 
     53 CA         51.7090  -24.6870   10.3725 C.3       4 GLC5        0.0000 
     54 CA         50.9600  -25.0670   12.2860 C.3       8 GLP5        0.0000 
     55 CA         53.1568  -20.4744    1.0521 C.3       4 GLC5        0.0000 
     56 CA         53.9640  -19.3850   -0.3230 C.3       8 GLP5        0.0000 
     57 CA         50.5925  -25.3565    6.7242 C.3       4 GLC5        0.0000 
     58 CA         52.5120  -24.5590    6.1670 C.3      12 GLL5        0.0000 
     59 CA         48.7450  -25.4700    7.2130 C.3       8 GLP5        0.0000 
     60 CA         54.2489  -25.5375    6.2435 C.3       4 GLC5        0.0000 
     61 CA         56.0790  -25.7010    5.9310 C.3       8 GLP5        0.0000 
@<TRIPOS>BOND
@<TRIPOS>SUBSTRUCTURE
     1 ALC1       20 GROUP        1 X    ALC  0     ROOT ALC X 1
     2 SEC2        4 GROUP        1 X    SEC  0     **** SEC X 2
     3 LYC4        1 GROUP        1 X    LYC  0     **** LYC X 4
     4 GLC5       14 GROUP        1 X    GLC  0     **** GLC X 6
     5 ALP1       22 GROUP        1 Y    ALP  0     ROOT ALP Y 8
     6 SEP2        6 GROUP        1 Y    SEP  0     **** SEP Y 9
     7 LYP4        3 GROUP        1 Y    LYP  0     **** LYP Y 11
     8 GLP5       16 GROUP        1 Y    GLP  0     **** GLP Y 13
     9 ALL1       21 GROUP        1 Z    ALL  0     ROOT ALL Z 15
    10 SEL2        5 GROUP        1 Z    SEL  0     **** SEL Z 16
    11 LYL4        2 GROUP        1 Z    LYL  0     **** LYL Z 18
    12 GLL5       15 GROUP        1 Z    GLL  0     **** GLL Z 20
@<TRIPOS>SET

