#    Name: 3amu_APC_1_ligand
#    Modification time : Mon Mar 24 17:49:59 2014

@<TRIPOS>MOLECULE
3amu_APC_1_ligand
   45    47     1     0     0
SMALL
NO_CHARGES


@<TRIPOS>ATOM
      1 PG         47.2190  -21.2670   -4.0950 P.3       1 APC421      0.0000 
      2 O1G        47.2340  -20.1870   -5.1130 O.co2     1 APC421      0.0000 
      3 O2G        45.8730  -21.3000   -3.1980 O.co2     1 APC421      0.0000 
      4 O3G        47.3620  -22.7420   -4.7430 O.co2     1 APC421      0.0000 
      5 PB         48.6860  -22.5150   -2.1840 P.3       1 APC421      0.0000 
      6 O1B        47.4480  -23.2070   -1.7600 O.co2     1 APC421      0.0000 
      7 O2B        50.0120  -23.1570   -2.3380 O.co2     1 APC421      0.0000 
      8 O3B        48.4150  -21.1640   -3.0170 O.3       1 APC421      0.0000 
      9 PA         50.5970  -20.9570   -0.7560 P.3       1 APC421      0.0000 
     10 O1A        50.5300  -19.7270   -1.5800 O.co2     1 APC421      0.0000 
     11 O2A        51.4450  -22.0910   -1.1960 O.co2     1 APC421      0.0000 
     12 C3A        48.9190  -21.6080   -0.6400 C.3       1 APC421      0.0000 
     13 O5'        50.9880  -20.6270    0.7710 O.3       1 APC421      0.0000 
     14 C5'        50.9500  -21.6970    1.7170 C.3       1 APC421      0.0000 
     15 C4'        51.8380  -21.3880    2.9240 C.3       1 APC421      0.0000 
     16 O4'        51.5510  -22.3530    3.9540 O.3       1 APC421      0.0000 
     17 C3'        53.3050  -21.5850    2.5340 C.3       1 APC421      0.0000 
     18 O3'        54.1430  -20.7940    3.3810 O.3       1 APC421      0.0000 
     19 C2'        53.4970  -23.0520    2.9110 C.3       1 APC421      0.0000 
     20 O2'        54.8910  -23.2910    3.1170 O.3       1 APC421      0.0000 
     21 C1'        52.8080  -22.9700    4.2720 C.3       1 APC421      0.0000 
     22 N9         52.5970  -24.3060    4.8630 N.pl3     1 APC421      0.0000 
     23 C8         52.4940  -25.4620    4.2070 C.2       1 APC421      0.0000 
     24 N7         52.3550  -26.4550    5.0800 N.2       1 APC421      0.0000 
     25 C5         52.3680  -25.9270    6.3040 C.ar      1 APC421      0.0000 
     26 C6         52.2830  -26.4510    7.5860 C.ar      1 APC421      0.0000 
     27 N6         52.2250  -27.7690    7.7690 N.pl3     1 APC421      0.0000 
     28 N1         52.3280  -25.6130    8.6290 N.ar      1 APC421      0.0000 
     29 C2         52.4580  -24.3070    8.4590 C.ar      1 APC421      0.0000 
     30 N3         52.5510  -23.7750    7.2540 N.ar      1 APC421      0.0000 
     31 C4         52.5120  -24.5590    6.1670 C.ar      1 APC421      0.0000 
     32 H          48.9217  -22.2889    0.0979 H         1 APC421      0.0000 
     33 H          48.2984  -20.8193   -0.6714 H         1 APC421      0.0000 
     34 H          51.3038  -22.6413    1.2767 H         1 APC421      0.0000 
     35 H          49.9301  -21.8729    2.0906 H         1 APC421      0.0000 
     36 H          51.6857  -20.4032    3.2425 H         1 APC421      0.0000 
     37 H          53.4249  -21.4635    1.5299 H         1 APC421      0.0000 
     38 H          52.9925  -23.6475    2.2921 H         1 APC421      0.0000 
     39 H          53.3875  -22.3431    4.8991 H         1 APC421      0.0000 
     40 H          52.5173  -25.5620    3.2333 H         1 APC421      0.0000 
     41 H          52.2059  -28.0809    8.7189 H         1 APC421      0.0000 
     42 H          52.2059  -28.3279    6.9400 H         1 APC421      0.0000 
     43 H          52.4880  -23.6747    9.3103 H         1 APC421      0.0000 
     44 H          54.7845  -21.4433    3.7894 H         1 APC421      0.0000 
     45 H          55.1684  -22.6239    3.8084 H         1 APC421      0.0000 
@<TRIPOS>BOND
     1    2    1 ar   
     2    3    1 ar   
     3    4    1 ar   
     4    8    1 1    
     5    6    5 ar   
     6    7    5 ar   
     7    8    5 1    
     8   12    5 1    
     9   10    9 ar   
    10   11    9 ar   
    11   12    9 1    
    12   13    9 1    
    13   32   12 1    
    14   33   12 1    
    15   14   13 1    
    16   15   14 1    
    17   34   14 1    
    18   35   14 1    
    19   16   15 1    
    20   17   15 1    
    21   36   15 1    
    22   21   16 1    
    23   18   17 1    
    24   19   17 1    
    25   37   17 1    
    26   44   18 1    
    27   20   19 1    
    28   21   19 1    
    29   38   19 1    
    30   45   20 1    
    31   22   21 1    
    32   39   21 1    
    33   23   22 1    
    34   31   22 1    
    35   24   23 2    
    36   40   23 1    
    37   25   24 1    
    38   26   25 ar   
    39   31   25 ar   
    40   27   26 1    
    41   28   26 ar   
    42   41   27 1    
    43   42   27 1    
    44   29   28 ar   
    45   30   29 ar   
    46   43   29 1    
    47   31   30 ar   
@<TRIPOS>SUBSTRUCTURE
     1 APC421      1 GROUP   
@<TRIPOS>SET

