#    Name: 2v58_LZJ_1_INTS_M
#    Modification time : Tue Mar 25 01:01:14 2014

@<TRIPOS>MOLECULE
2v58_LZJ_1_INTS_M
   59     0     9     0     0
SMALL
NO_CHARGES


@<TRIPOS>ATOM
      1 CA          8.6160  -22.0535   27.4050 C.3       3 GLC5        0.0000 
      2 CA          7.1360  -21.7170   26.4580 C.3       9 GLL5        0.0000 
      3 CA         10.0960  -22.3900   28.3520 C.3       6 GLP5        0.0000 
      4 CA          6.2775  -23.0595   27.3120 C.3       3 GLC5        0.0000 
      5 CA          5.4190  -24.4020   28.1660 C.3       6 GLP5        0.0000 
      6 CA          7.9180  -23.5915   25.9735 C.3       3 GLC5        0.0000 
      7 CA          8.7000  -25.4660   25.4890 C.3       6 GLP5        0.0000 
      8 CA          6.4380  -20.2415   27.9565 C.3       3 GLC5        0.0000 
      9 CA          5.7400  -18.7660   29.4550 C.3       6 GLP5        0.0000 
     10 CA          0.9420  -25.0720   27.5140 C.3       3 GLC5        0.0000 
     11 CA          1.8060  -24.3650   25.7950 C.3       9 GLL5        0.0000 
     12 CA          0.0780  -25.7790   29.2330 C.3       6 GLP5        0.0000 
     13 CA          2.1470  -23.4975   27.7895 C.3       3 GLC5        0.0000 
     14 CA          2.4880  -22.6300   29.7840 C.3       6 GLP5        0.0000 
     15 N           0.1150  -25.8375   26.3845 N.am      2 SEC2        0.0000 
     16 N           1.4530  -25.6530   25.6290 N.am      8 SEL2        0.0000 
     17 N          -1.2230  -26.0220   27.1400 N.am      5 SEP2        0.0000 
     18 CA          4.7410  -22.8025   21.7875 C.3       3 GLC5        0.0000 
     19 CA          5.2520  -23.0320   23.9090 C.3       9 GLL5        0.0000 
     20 CA          4.2300  -22.5730   19.6660 C.3       6 GLP5        0.0000 
     21 N           5.0005  -25.7065   23.0515 N.am      2 SEC2        0.0000 
     22 N           4.8380  -24.3160   23.7820 N.am      8 SEL2        0.0000 
     23 N           5.1630  -27.0970   22.3210 N.am      5 SEP2        0.0000 
     24 CA          2.3935  -24.5565   22.5915 C.3       3 GLC5        0.0000 
     25 CA          3.7150  -24.7510   24.3980 C.3       9 GLL5        0.0000 
     26 CA          1.0720  -24.3620   20.7850 C.3       6 GLP5        0.0000 
     27 CA          3.9830  -25.7910   22.7825 C.3       3 GLC5        0.0000 
     28 CA          4.2510  -26.8310   21.1670 C.3       6 GLP5        0.0000 
     29 N           4.2435  -26.5680   23.2880 N.am      2 SEC2        0.0000 
     30 N           3.3240  -26.0390   24.2550 N.am      8 SEL2        0.0000 
     31 CA          1.3180  -26.9365   23.2080 C.3       3 GLC5        0.0000 
     32 CA          2.2000  -26.4890   24.8620 C.3       9 GLL5        0.0000 
     33 CA          0.4360  -27.3840   21.5540 C.3       6 GLP5        0.0000 
     34 CA          3.2255  -26.6600   23.0145 C.3       3 GLC5        0.0000 
     35 CA          0.0050  -26.6830   24.9750 C.3       3 GLC5        0.0000 
     36 CA         -2.1900  -26.8770   25.0880 C.3       6 GLP5        0.0000 
     37 CA          3.1570  -26.4855   26.2685 C.3       3 GLC5        0.0000 
     38 CA          4.1140  -26.4820   27.6750 C.3       6 GLP5        0.0000 
     39 O           2.8500  -28.6110   23.9450 O.2       1 ALC1        0.0000 
     40 O           1.8360  -27.7850   24.7050 O.2       7 ALL1        0.0000 
     41 O           3.8640  -29.4370   23.1850 O.2       4 ALP1        0.0000 
     42 O           0.6640  -28.3850   25.1260 O.2       1 ALC1        0.0000 
     43 O          -0.5080  -28.9850   25.5470 O.2       4 ALP1        0.0000 
     44 CA          4.8220  -19.5832   26.5637 C.3       3 GLC5        0.0000 
     45 CA          6.1620  -20.3930   25.5290 C.3       9 GLL5        0.0000 
     46 CA          3.2550  -19.4310   27.5600 C.3       6 GLP5        0.0000 
     47 CA          6.9910  -16.7645   26.0978 C.3       3 GLC5        0.0000 
     48 CA          6.6160  -19.0780   25.6060 C.3       9 GLL5        0.0000 
     49 CA          7.7060  -14.9590   26.9190 C.3       6 GLP5        0.0000 
     50 CA          4.3112  -18.8227   26.0688 C.3       3 GLC5        0.0000 
     51 CA          5.9360  -18.0620   24.9470 C.3       9 GLL5        0.0000 
     52 CA          3.9685  -19.8133   26.0105 C.3       3 GLC5        0.0000 
     53 CA          4.3460  -19.6830   24.1290 C.3       9 GLL5        0.0000 
     54 CA          3.6015  -20.8822   26.2840 C.3       3 GLC5        0.0000 
     55 CA          3.3650  -22.5480   25.3290 C.3       9 GLL5        0.0000 
     56 CA          5.0095  -23.5424   26.3123 C.3       3 GLC5        0.0000 
     57 CA          4.5310  -22.1190   24.6870 C.3       9 GLL5        0.0000 
     58 CA          3.5814  -25.4591   26.3087 C.3       3 GLC5        0.0000 
     59 CA          2.9590  -23.8780   25.1790 C.3       9 GLL5        0.0000 
@<TRIPOS>BOND
@<TRIPOS>SUBSTRUCTURE
     1 ALC1       39 GROUP        1 X    ALC  0     ROOT ALC X 1
     2 SEC2       15 GROUP        1 X    SEC  0     **** SEC X 2
     3 GLC5        1 GROUP        1 X    GLC  0     **** GLC X 6
     4 ALP1       41 GROUP        1 Y    ALP  0     ROOT ALP Y 8
     5 SEP2       17 GROUP        1 Y    SEP  0     **** SEP Y 9
     6 GLP5        3 GROUP        1 Y    GLP  0     **** GLP Y 13
     7 ALL1       40 GROUP        1 Z    ALL  0     ROOT ALL Z 15
     8 SEL2       16 GROUP        1 Z    SEL  0     **** SEL Z 16
     9 GLL5        2 GROUP        1 Z    GLL  0     **** GLL Z 20
@<TRIPOS>SET

