#    Name: 2v58_LZJ_1_ligand
#    Modification time : Tue Mar 25 01:01:14 2014

@<TRIPOS>MOLECULE
2v58_LZJ_1_ligand
   29    31     1     0     0
SMALL
NO_CHARGES


@<TRIPOS>ATOM
      1 BR2         7.1360  -21.7170   26.4580 Br        1 LZJ1448     0.0000 
      2 C18         6.1620  -20.3930   25.5290 C.ar      1 LZJ1448     0.0000 
      3 C17         6.6160  -19.0780   25.6060 C.ar      1 LZJ1448     0.0000 
      4 C16         5.9360  -18.0620   24.9470 C.ar      1 LZJ1448     0.0000 
      5 C15         4.7990  -18.3670   24.2080 C.ar      1 LZJ1448     0.0000 
      6 C14         4.3460  -19.6830   24.1290 C.ar      1 LZJ1448     0.0000 
      7 BR1         2.7930  -20.0270   23.1150 Br        1 LZJ1448     0.0000 
      8 C12         5.0180  -20.7080   24.7930 C.ar      1 LZJ1448     0.0000 
      9 C9          4.5310  -22.1190   24.6870 C.ar      1 LZJ1448     0.0000 
     10 C10         3.3650  -22.5480   25.3290 C.ar      1 LZJ1448     0.0000 
     11 C5          2.9590  -23.8780   25.1790 C.ar      1 LZJ1448     0.0000 
     12 C6          1.8060  -24.3650   25.7950 C.ar      1 LZJ1448     0.0000 
     13 N1          1.4530  -25.6530   25.6290 N.ar      1 LZJ1448     0.0000 
     14 C8          5.2520  -23.0320   23.9090 C.ar      1 LZJ1448     0.0000 
     15 N13         6.3830  -22.6610   23.2620 N.pl3     1 LZJ1448     0.0000 
     16 N7          4.8380  -24.3160   23.7820 N.ar      1 LZJ1448     0.0000 
     17 C4          3.7150  -24.7510   24.3980 C.ar      1 LZJ1448     0.0000 
     18 N3          3.3240  -26.0390   24.2550 N.ar      1 LZJ1448     0.0000 
     19 C2          2.2000  -26.4890   24.8620 C.ar      1 LZJ1448     0.0000 
     20 N11         1.8360  -27.7850   24.7050 N.pl3     1 LZJ1448     0.0000 
     21 H           7.4603  -18.8603   26.1549 H         1 LZJ1448     0.0000 
     22 H           6.2697  -17.0945   25.0049 H         1 LZJ1448     0.0000 
     23 H           4.2886  -17.6202   23.7169 H         1 LZJ1448     0.0000 
     24 H           2.8198  -21.9020   25.8970 H         1 LZJ1448     0.0000 
     25 H           1.2398  -23.7212   26.3724 H         1 LZJ1448     0.0000 
     26 H           6.8201  -23.3643   22.7014 H         1 LZJ1448     0.0000 
     27 H           6.6806  -21.7167   23.4023 H         1 LZJ1448     0.0000 
     28 H           2.4457  -28.3489   24.1480 H         1 LZJ1448     0.0000 
     29 H           0.9900  -28.0626   25.1601 H         1 LZJ1448     0.0000 
@<TRIPOS>BOND
     1    2    1 1    
     2    3    2 ar   
     3    8    2 ar   
     4    4    3 ar   
     5   21    3 1    
     6    5    4 ar   
     7   22    4 1    
     8    6    5 ar   
     9   23    5 1    
    10    7    6 1    
    11    8    6 ar   
    12    9    8 1    
    13   10    9 ar   
    14   14    9 ar   
    15   11   10 ar   
    16   24   10 1    
    17   12   11 ar   
    18   17   11 ar   
    19   13   12 ar   
    20   25   12 1    
    21   19   13 ar   
    22   15   14 1    
    23   16   14 ar   
    24   26   15 1    
    25   27   15 1    
    26   17   16 ar   
    27   18   17 ar   
    28   19   18 ar   
    29   20   19 1    
    30   28   20 1    
    31   29   20 1    
@<TRIPOS>SUBSTRUCTURE
     1 LZJ1448     1 GROUP   
@<TRIPOS>SET

