#    Name: 3D9Z_1_CAVITY_N1_ALL.mol2
#    Modification time : Tue Mar 11 15:45:10 2014

@<TRIPOS>MOLECULE
3D9Z_1_CAVITY_N1_ALL.mol2
  103     0     6     0     0
SMALL
NO_CHARGES


@<TRIPOS>ATOM
      1 CA         -1.6829    6.9039   15.8034 C.3       5 GLY6        0.0000 
      2 CZ         -2.7758    7.8676   15.4475 C.ar      4 PHE5        0.0000 
      3 CA         -1.5608    6.5098   14.3612 C.3       5 GLY6        0.0000 
      4 N          -0.3457    5.1519   13.2750 N.2       2 ALA2        0.0000 
      5 CA         -1.4387    6.1156   12.9191 C.3       5 GLY6        0.0000 
      6 DU         -1.3166    5.7215   11.4770 H         6 CUB7        0.0000 
      7 CZ          0.9914    3.4000   10.7466 C.ar      4 PHE5        0.0000 
      8 O           1.1135    3.0058    9.3045 O.2       2 ALA2        0.0000 
      9 O           1.2356    2.6117    7.8623 O.2       2 ALA2        0.0000 
     10 N           0.1426    3.5755    7.5064 N.2       2 ALA2        0.0000 
     11 CA         -3.7959    6.7878   15.6562 C.3       5 GLY6        0.0000 
     12 N          -1.4879    4.4663   14.9259 N.2       2 ALA2        0.0000 
     13 CA         -2.5808    5.4300   14.5700 C.3       5 GLY6        0.0000 
     14 CZ         -3.6738    6.3937   14.2141 C.ar      4 PHE5        0.0000 
     15 N          -1.3658    4.0721   13.4837 N.2       2 ALA2        0.0000 
     16 DU         -2.4587    5.0359   13.1278 H         6 CUB7        0.0000 
     17 DU         -3.5517    5.9996   12.7719 H         6 CUB7        0.0000 
     18 CZ         -4.6447    6.9633   12.4160 C.ar      4 PHE5        0.0000 
     19 CZ         -5.7376    7.9270   12.0601 C.ar      4 PHE5        0.0000 
     20 N          -0.1507    2.7143   12.3975 N.2       2 ALA2        0.0000 
     21 N          -1.2437    3.6780   12.0416 N.2       2 ALA2        0.0000 
     22 DU         -2.3366    4.6418   11.6857 H         6 CUB7        0.0000 
     23 DU         -3.4296    5.6055   11.3298 H         6 CUB7        0.0000 
     24 DU         -4.5226    6.5692   10.9739 H         6 CUB7        0.0000 
     25 CZ         -0.0286    2.3202   10.9554 C.ar      4 PHE5        0.0000 
     26 DU         -1.1216    3.2839   10.5995 H         6 CUB7        0.0000 
     27 N          -2.2146    4.2476   10.2436 N.2       2 ALA2        0.0000 
     28 DU         -3.3075    5.2114    9.8877 H         6 CUB7        0.0000 
     29 O           0.0935    1.9261    9.5132 O.2       2 ALA2        0.0000 
     30 N          -0.9995    2.8898    9.1573 N.2       2 ALA2        0.0000 
     31 CA         -4.8159    5.7081   15.8649 C.3       5 GLY6        0.0000 
     32 OG         -2.5079    3.3865   15.1346 O.2       1 SER1        0.0000 
     33 CA         -3.6009    4.3502   14.7787 C.3       5 GLY6        0.0000 
     34 CZ         -4.6938    5.3139   14.4228 C.ar      4 PHE5        0.0000 
     35 CZ         -5.7868    6.2777   14.0669 C.ar      4 PHE5        0.0000 
     36 OG         -2.3858    2.9924   13.6925 O.2       1 SER1        0.0000 
     37 DU         -3.4788    3.9561   13.3366 H         6 CUB7        0.0000 
     38 DU         -4.5718    4.9198   12.9807 H         6 CUB7        0.0000 
     39 CZ         -5.6647    5.8835   12.6248 C.ar      4 PHE5        0.0000 
     40 CZ         -6.7577    6.8473   12.2689 C.ar      4 PHE5        0.0000 
     41 OG         -2.2637    2.5983   12.2503 O.2       1 SER1        0.0000 
     42 DU         -3.3567    3.5620   11.8944 H         6 CUB7        0.0000 
     43 O          -4.4497    4.5257   11.5385 O.2       2 ALA2        0.0000 
     44 O          -5.5426    5.4894   11.1826 O.2       2 ALA2        0.0000 
     45 O          -6.6356    6.4531   10.8267 O.2       2 ALA2        0.0000 
     46 OG         -1.0487    1.2404   11.1641 O.2       1 SER1        0.0000 
     47 N          -2.1417    2.2041   10.8082 N.2       2 ALA2        0.0000 
     48 N          -3.2346    3.1679   10.4523 N.2       2 ALA2        0.0000 
     49 O          -4.3276    4.1316   10.0964 O.2       2 ALA2        0.0000 
     50 O          -5.4206    5.0953    9.7405 O.2       2 ALA2        0.0000 
     51 O          -0.9266    0.8463    9.7219 O.2       2 ALA2        0.0000 
     52 O          -4.2055    3.7375    8.6542 O.2       2 ALA2        0.0000 
     53 CA         -3.6501    2.7008   16.7855 C.3       5 GLY6        0.0000 
     54 CA         -5.8360    4.6283   16.0737 C.3       5 GLY6        0.0000 
     55 CA         -6.9290    5.5920   15.7178 C.3       5 GLY6        0.0000 
     56 OG         -3.5280    2.3067   15.3433 O.2       1 SER1        0.0000 
     57 CA         -4.6209    3.2704   14.9874 C.3       5 GLY6        0.0000 
     58 DU         -5.7139    4.2342   14.6315 H         6 CUB7        0.0000 
     59 CA         -6.8069    5.1979   14.2756 C.3       5 GLY6        0.0000 
     60 CA         -7.8998    6.1616   13.9197 C.3       5 GLY6        0.0000 
     61 OG         -3.4059    1.9126   13.9012 O.2       1 SER1        0.0000 
     62 DU         -4.4989    2.8763   13.5453 H         6 CUB7        0.0000 
     63 O          -5.5918    3.8400   13.1894 O.2       2 ALA2        0.0000 
     64 O          -6.6848    4.8038   12.8335 O.2       2 ALA2        0.0000 
     65 CA         -7.7778    5.7675   12.4776 C.3       5 GLY6        0.0000 
     66 OG         -3.2838    1.5185   12.4591 O.2       1 SER1        0.0000 
     67 O          -4.3768    2.4822   12.1032 O.2       2 ALA2        0.0000 
     68 O          -5.4697    3.4459   11.7473 O.2       2 ALA2        0.0000 
     69 CA         -0.9758   -0.8031   11.7287 C.3       5 GLY6        0.0000 
     70 OG         -2.0687    0.1606   11.3728 O.2       1 SER1        0.0000 
     71 N          -3.1617    1.1244   11.0169 N.2       2 ALA2        0.0000 
     72 N          -4.2547    2.0881   10.6610 N.2       2 ALA2        0.0000 
     73 O          -5.3476    3.0518   10.3051 O.2       2 ALA2        0.0000 
     74 CA         -1.9467   -0.2335    9.9307 C.3       5 GLY6        0.0000 
     75 CA         -4.6701    1.6211   16.9942 C.3       5 GLY6        0.0000 
     76 CA         -5.7631    2.5848   16.6383 C.3       5 GLY6        0.0000 
     77 CA         -6.8560    3.5485   16.2824 C.3       5 GLY6        0.0000 
     78 O          -3.4551    0.2632   15.9080 O.2       2 ALA2        0.0000 
     79 OG         -4.5480    1.2269   15.5521 O.2       1 SER1        0.0000 
     80 DU         -5.6410    2.1907   15.1962 H         6 CUB7        0.0000 
     81 CA         -6.7340    3.1544   14.8403 C.3       5 GLY6        0.0000 
     82 OG         -4.4259    0.8328   14.1099 O.2       1 SER1        0.0000 
     83 N          -5.5189    1.7965   13.7540 N.2       2 ALA2        0.0000 
     84 O          -6.6119    2.7603   13.3981 O.2       2 ALA2        0.0000 
     85 CA         -3.2109   -0.5250   13.0237 C.3       5 GLY6        0.0000 
     86 OG         -4.3039    0.4387   12.6678 O.2       1 SER1        0.0000 
     87 O          -5.3968    1.4024   12.3119 O.2       2 ALA2        0.0000 
     88 CA         -1.9958   -1.8829   11.9375 C.3       5 GLY6        0.0000 
     89 CA         -3.0888   -0.9191   11.5816 C.3       5 GLY6        0.0000 
     90 DU         -4.1818    0.0446   11.2257 H         6 CUB7        0.0000 
     91 N          -5.2747    1.0083   10.8698 N.2       2 ALA2        0.0000 
     92 CA         -2.9667   -1.3133   10.1394 C.3       5 GLY6        0.0000 
     93 N          -4.0597   -0.3495    9.7835 N.2       2 ALA2        0.0000 
     94 CA         -6.9052    1.8991   18.2892 C.3       5 GLY6        0.0000 
     95 OD1        -5.6902    0.5413   17.2029 O.3       3 ASP3        0.0000 
     96 OD1        -6.7831    1.5050   16.8470 O.3       3 ASP3        0.0000 
     97 CA         -7.8761    2.4687   16.4911 C.3       5 GLY6        0.0000 
     98 OD1        -5.5681    0.1472   15.7608 O.3       3 ASP3        0.0000 
     99 N          -6.6611    1.1109   15.4049 N.2       2 ALA2        0.0000 
    100 CA         -4.2309   -1.6048   13.2324 C.3       5 GLY6        0.0000 
    101 OG         -3.0159   -2.9626   12.1462 O.2       1 SER1        0.0000 
    102 CA         -4.1089   -1.9989   11.7903 C.3       5 GLY6        0.0000 
    103 CA         -5.2018   -1.0352   11.4344 C.3       5 GLY6        0.0000 
@<TRIPOS>BOND
@<TRIPOS>SUBSTRUCTURE
     1 SER1       32 GROUP   
     2 ALA2        4 GROUP   
     3 ASP3       95 GROUP   
     4 PHE5        2 GROUP   
     5 GLY6        1 GROUP   
     6 CUB7        6 GROUP   
@<TRIPOS>SET

