#    Name: 3d9z_D9Z_1_INTS_M
#    Modification time : Mon Mar 24 22:56:52 2014

@<TRIPOS>MOLECULE
3d9z_D9Z_1_INTS_M
   32     0    12     0     0
SMALL
NO_CHARGES


@<TRIPOS>ATOM
      1 N          -4.2100    0.2255   18.7270 N.am      2 SEC2        0.0000 
      2 N          -5.6600    0.5280   18.2670 N.am     10 SEL2        0.0000 
      3 N          -2.7600   -0.0770   19.1870 N.am      6 SEP2        0.0000 
      4 O          -4.6495   -1.7715   17.0845 O.2       1 ALC1        0.0000 
      5 O          -5.6170   -0.9840   16.3240 O.2       9 ALL1        0.0000 
      6 O          -3.6820   -2.5590   17.8450 O.2       5 ALP1        0.0000 
      7 Zn         -6.2340   -1.5290   15.8570 Zn        3 ZIC7        0.0000 
      8 Zn         -5.6170   -0.9840   16.3240 Zn       11 ZIL7        0.0000 
      9 Zn         -6.8510   -2.0740   15.3900 Zn        7 ZIP7        0.0000 
     10 CA         -7.8930    2.9600   15.1630 C.3       4 GLC5        0.0000 
     11 CA         -5.8450    2.9550   15.1770 C.3      12 GLL5        0.0000 
     12 CA         -9.9410    2.9650   15.1490 C.3       8 GLP5        0.0000 
     13 CA         -5.1695    3.7260   16.8190 C.3       4 GLC5        0.0000 
     14 CA         -4.4940    4.4970   18.4610 C.3       8 GLP5        0.0000 
     15 N          -2.4960    1.3295   15.3935 N.am      2 SEC2        0.0000 
     16 N          -3.9180    1.6980   16.3110 N.am     10 SEL2        0.0000 
     17 N          -1.0740    0.9610   14.4760 N.am      6 SEP2        0.0000 
     18 N          -2.2170    1.8295   15.0165 N.am      2 SEC2        0.0000 
     19 N          -3.3600    2.6980   15.5570 N.am     10 SEL2        0.0000 
     20 CA         -8.1930    5.0530   12.2130 C.3       4 GLC5        0.0000 
     21 CA         -6.3760    5.3160   13.4270 C.3      12 GLL5        0.0000 
     22 CA        -10.0100    4.7900   10.9990 C.3       8 GLP5        0.0000 
     23 CA         -8.0820    5.3505   14.6350 C.3       4 GLC5        0.0000 
     24 CA         -9.7880    5.3850   15.8430 C.3       8 GLP5        0.0000 
     25 CA         -6.2830    7.0465   14.2370 C.3       4 GLC5        0.0000 
     26 CA         -6.1900    8.7770   15.0470 C.3       8 GLP5        0.0000 
     27 CA         -2.6763    5.1105   16.0710 C.3       4 GLC5        0.0000 
     28 CA         -3.7710    4.5600   14.1230 C.3      12 GLL5        0.0000 
     29 CA         -2.2580    5.5180   18.0710 C.3       8 GLP5        0.0000 
     30 CA         -0.5203    5.5838   14.7138 C.3       4 GLC5        0.0000 
     31 CA         -2.4180    4.8460   14.0190 C.3      12 GLL5        0.0000 
     32 CA          1.1820    5.7720   15.8030 C.3       8 GLP5        0.0000 
@<TRIPOS>BOND
@<TRIPOS>SUBSTRUCTURE
     1 ALC1        4 GROUP        1 X    ALC  0     ROOT ALC X 1
     2 SEC2        1 GROUP        1 X    SEC  0     **** SEC X 2
     3 ZIC7        7 GROUP        1 X    ZIC  0     **** ZIC X 5
     4 GLC5       10 GROUP        1 X    GLC  0     **** GLC X 6
     5 ALP1        6 GROUP        1 Y    ALP  0     ROOT ALP Y 8
     6 SEP2        3 GROUP        1 Y    SEP  0     **** SEP Y 9
     7 ZIP7        9 GROUP        1 Y    ZIP  0     **** ZIP Y 12
     8 GLP5       12 GROUP        1 Y    GLP  0     **** GLP Y 13
     9 ALL1        5 GROUP        1 Z    ALL  0     ROOT ALL Z 15
    10 SEL2        2 GROUP        1 Z    SEL  0     **** SEL Z 16
    11 ZIL7        8 GROUP        1 Z    ZIL  0     **** ZIL Z 19
    12 GLL5       11 GROUP        1 Z    GLL  0     **** GLL Z 20
@<TRIPOS>SET

