#    Name: 3d9z_D9Z_1_ligand
#    Modification time : Mon Mar 24 22:56:52 2014

@<TRIPOS>MOLECULE
3d9z_D9Z_1_ligand
   21    22     1     0     0
SMALL
NO_CHARGES


@<TRIPOS>ATOM
      1 O2         -7.4330    0.6790   16.6650 O.2       1 D9Z263      0.0000 
      2 S1         -6.0400    0.4340   16.8960 S.o2      1 D9Z263      0.0000 
      3 O1         -5.6600    0.5280   18.2670 O.2       1 D9Z263      0.0000 
      4 N3         -5.6170   -0.9840   16.3240 N.pl3     1 D9Z263      0.0000 
      5 C8         -5.2560    1.6870   16.1700 C.2       1 D9Z263      0.0000 
      6 S2         -5.8450    2.9550   15.1770 S.3       1 D9Z263      0.0000 
      7 N2         -3.9180    1.6980   16.3110 N.2       1 D9Z263      0.0000 
      8 N1         -3.3600    2.6980   15.5570 N.2       1 D9Z263      0.0000 
      9 C7         -4.2210    3.4800   14.8850 C.2       1 D9Z263      0.0000 
     10 C1         -3.7710    4.5600   14.1230 C.ar      1 D9Z263      0.0000 
     11 C6         -2.4180    4.8460   14.0190 C.ar      1 D9Z263      0.0000 
     12 C2         -4.6800    5.3520   13.4860 C.ar      1 D9Z263      0.0000 
     13 C3         -4.3390    6.4230   12.6900 C.ar      1 D9Z263      0.0000 
     14 C4         -2.9740    6.7100   12.5720 C.ar      1 D9Z263      0.0000 
     15 C5         -2.0270    5.9450   13.2300 C.ar      1 D9Z263      0.0000 
     16 CL1        -6.3760    5.3160   13.4270 Cl        1 D9Z263      0.0000 
     17 H          -4.8393   -1.4250   16.7719 H         1 D9Z263      0.0000 
     18 H          -1.7206    4.2844   14.4948 H         1 D9Z263      0.0000 
     19 H          -5.0288    6.9784   12.2123 H         1 D9Z263      0.0000 
     20 H          -2.6761    7.5065   11.9831 H         1 D9Z263      0.0000 
     21 H          -1.0256    6.1725   13.1488 H         1 D9Z263      0.0000 
@<TRIPOS>BOND
     1    2    1 2    
     2    3    2 2    
     3    4    2 1    
     4    5    2 1    
     5   17    4 1    
     6    6    5 1    
     7    7    5 2    
     8    9    6 1    
     9    8    7 1    
    10    9    8 2    
    11   10    9 1    
    12   11   10 ar   
    13   12   10 ar   
    14   15   11 ar   
    15   18   11 1    
    16   13   12 ar   
    17   16   12 1    
    18   14   13 ar   
    19   19   13 1    
    20   15   14 ar   
    21   20   14 1    
    22   21   15 1    
@<TRIPOS>SUBSTRUCTURE
     1 D9Z263      1 GROUP   
@<TRIPOS>SET

