#    Name: 1d6w_00R_1_INTS_M
#    Modification time : Mon Mar 24 21:32:08 2014

@<TRIPOS>MOLECULE
1d6w_00R_1_INTS_M
   67     0    12     0     0
SMALL
NO_CHARGES


@<TRIPOS>ATOM
      1 CA         14.3190   -9.6520   18.7370 C.3       4 GLC5        0.0000 
      2 CA         13.5570  -11.0860   19.9620 C.3      12 GLL5        0.0000 
      3 CA         15.0810   -8.2180   17.5120 C.3       8 GLP5        0.0000 
      4 CA         10.4530  -12.6650   20.6615 C.3       4 GLC5        0.0000 
      5 CA         12.3520  -13.3920   21.4960 C.3      12 GLL5        0.0000 
      6 CA          8.5540  -11.9380   19.8270 C.3       8 GLP5        0.0000 
      7 CA         10.3425  -14.2140   21.2710 C.3       4 GLC5        0.0000 
      8 CA          8.3330  -15.0360   21.0460 C.3       8 GLP5        0.0000 
      9 CA         12.6445   -8.9215   21.6035 C.3       4 GLC5        0.0000 
     10 CA         12.9450  -10.7710   21.4690 C.3      12 GLL5        0.0000 
     11 CA         12.3440   -7.0720   21.7380 C.3       8 GLP5        0.0000 
     12 N          15.6265  -13.5125   24.4285 N.am      2 SEC2        0.0000 
     13 N          16.5890  -14.3440   23.5610 N.am     10 SEL2        0.0000 
     14 N          14.6640  -12.6810   25.2960 N.am      6 SEP2        0.0000 
     15 CA         21.0390  -11.3065   19.7395 C.3       4 GLC5        0.0000 
     16 CA         20.5340  -13.3510   20.3930 C.3      12 GLL5        0.0000 
     17 CA         21.5440   -9.2620   19.0860 C.3       8 GLP5        0.0000 
     18 CA         17.8340  -12.2645   23.0740 C.3       4 GLC5        0.0000 
     19 CA         18.2030  -12.9610   21.3610 C.3      12 GLL5        0.0000 
     20 CA         17.4650  -11.5680   24.7870 C.3       8 GLP5        0.0000 
     21 OD1         8.9075  -12.6945   26.2445 O.co2     3 ASC3        0.0000 
     22 OD1        10.7930  -12.2360   25.1330 O.co2    11 ASL3        0.0000 
     23 OD1         7.5510  -12.4320   26.3630 O.co2     7 ASP3        0.0000 
     24 OD1         9.2665  -10.6725   25.3705 O.co2     3 ASC3        0.0000 
     25 OD1         7.9160  -10.3700   25.9430 O.co2     7 ASP3        0.0000 
     26 O           9.2665  -10.6725   25.3705 O.2       1 ALC1        0.0000 
     27 O          10.6170  -10.9750   24.7980 O.2       9 ALL1        0.0000 
     28 O           7.9160  -10.3700   25.9430 O.2       5 ALP1        0.0000 
     29 CA         10.2405   -9.4985   22.9615 C.3       4 GLC5        0.0000 
     30 CA         11.4440  -10.7640   23.5830 C.3      12 GLL5        0.0000 
     31 CA          9.0370   -8.2330   22.3400 C.3       8 GLP5        0.0000 
     32 CA         11.8940   -8.9180   22.6605 C.3       4 GLC5        0.0000 
     33 CA         11.2885  -10.2860   25.7560 C.3       4 GLC5        0.0000 
     34 CA         11.1330   -9.8080   27.9290 C.3       8 GLP5        0.0000 
     35 O           8.9075  -12.6945   26.2445 O.2       1 ALC1        0.0000 
     36 O          10.2640  -12.9570   26.1260 O.2       9 ALL1        0.0000 
     37 O           7.5510  -12.4320   26.3630 O.2       5 ALP1        0.0000 
     38 O           9.0900  -11.6635   26.0345 O.2       1 ALC1        0.0000 
     39 CA         18.8230  -13.1620   25.5585 C.3       4 GLC5        0.0000 
     40 CA         20.1810  -14.7560   26.3300 C.3      12 GLL5        0.0000 
     41 CA         22.1980  -14.5968   20.3972 C.3       4 GLC5        0.0000 
     42 CA         23.8110  -15.1700   20.0610 C.3       8 GLP5        0.0000 
     43 CA         19.8585  -15.2742   19.4127 C.3       4 GLC5        0.0000 
     44 CA         20.6360  -14.6960   21.0740 C.3      12 GLL5        0.0000 
     45 CA         19.1320  -16.5250   18.0920 C.3       8 GLP5        0.0000 
     46 CA         20.6865  -12.3613   21.7488 C.3       4 GLC5        0.0000 
     47 CA         20.7880  -10.6990   22.7640 C.3       8 GLP5        0.0000 
     48 CA         18.9105  -11.2420   19.6870 C.3       4 GLC5        0.0000 
     49 CA         19.4230  -12.5950   20.5510 C.3      12 GLL5        0.0000 
     50 CA         19.0080   -9.7060   18.4180 C.3       8 GLP5        0.0000 
     51 CA         19.8005  -11.7385   21.8600 C.3       4 GLC5        0.0000 
     52 CA         14.2661  -11.3334   23.5333 C.3       4 GLC5        0.0000 
     53 CA         12.8360  -12.0680   22.3430 C.3      12 GLL5        0.0000 
     54 CA         16.0700  -11.0070   24.4790 C.3       8 GLP5        0.0000 
     55 CA         12.7553  -12.3055   24.6792 C.3       4 GLC5        0.0000 
     56 CA         13.5710  -13.2370   26.1640 C.3       8 GLP5        0.0000 
     57 CA         20.4905  -15.8037   27.3275 C.3       4 GLC5        0.0000 
     58 CA         20.8080  -16.1920   28.5590 C.3       8 GLP5        0.0000 
     59 CA         22.9705  -13.2195   26.6520 C.3       4 GLC5        0.0000 
     60 CA         21.2000  -13.8930   25.9430 C.3      12 GLL5        0.0000 
     61 CA         24.2360  -12.3300   27.7820 C.3       8 GLP5        0.0000 
     62 CA         21.8875  -12.5190   24.5515 C.3       4 GLC5        0.0000 
     63 CA         22.0700  -10.9290   23.5810 C.3       8 GLP5        0.0000 
     64 CA         21.2565  -15.1505   27.0405 C.3       4 GLC5        0.0000 
     65 CA         22.2100  -14.3250   25.1010 C.3      12 GLL5        0.0000 
     66 CA         21.2623  -16.1280   26.6917 C.3       4 GLC5        0.0000 
     67 CA         21.2070  -16.4980   25.0150 C.3      12 GLL5        0.0000 
@<TRIPOS>BOND
@<TRIPOS>SUBSTRUCTURE
     1 ALC1       26 GROUP        1 X    ALC  0     ROOT ALC X 1
     2 SEC2       12 GROUP        1 X    SEC  0     **** SEC X 2
     3 ASC3       21 GROUP        1 X    ASC  0     **** ASC X 3
     4 GLC5        1 GROUP        1 X    GLC  0     **** GLC X 6
     5 ALP1       28 GROUP        1 Y    ALP  0     ROOT ALP Y 8
     6 SEP2       14 GROUP        1 Y    SEP  0     **** SEP Y 9
     7 ASP3       23 GROUP        1 Y    ASP  0     **** ASP Y 10
     8 GLP5        3 GROUP        1 Y    GLP  0     **** GLP Y 13
     9 ALL1       27 GROUP        1 Z    ALL  0     ROOT ALL Z 15
    10 SEL2       13 GROUP        1 Z    SEL  0     **** SEL Z 16
    11 ASL3       22 GROUP        1 Z    ASL  0     **** ASL Z 17
    12 GLL5        2 GROUP        1 Z    GLL  0     **** GLL Z 20
@<TRIPOS>SET

