#    Name: 1d6w_00R_1_ligand
#    Modification time : Mon Mar 24 21:32:08 2014

@<TRIPOS>MOLECULE
1d6w_00R_1_ligand
   67    71     1     0     0
SMALL
NO_CHARGES


@<TRIPOS>ATOM
      1 C01        13.5570  -11.0860   19.9620 C.3       1 00R380      0.0000 
      2 C02        14.4460  -12.4670   20.0420 C.3       1 00R380      0.0000 
      3 C03        13.4950  -13.6750   20.3320 C.3       1 00R380      0.0000 
      4 C04        12.3520  -13.3920   21.4960 C.3       1 00R380      0.0000 
      5 C05        12.8360  -12.0680   22.3430 C.3       1 00R380      0.0000 
      6 C06        12.9450  -10.7710   21.4690 C.3       1 00R380      0.0000 
      7 N07        18.0250  -16.1340   23.1370 N.am      1 00R380      0.0000 
      8 C08        19.1440  -16.3230   22.3250 C.2       1 00R380      0.0000 
      9 O09        19.8090  -17.3580   22.1880 O.2       1 00R380      0.0000 
     10 N10        19.3820  -15.1200   21.6610 N.am      1 00R380      0.0000 
     11 N11        18.3990  -14.2200   22.0660 N.am      1 00R380      0.0000 
     12 C12        17.5690  -14.8270   22.9990 C.2       1 00R380      0.0000 
     13 O13        16.5890  -14.3440   23.5610 O.2       1 00R380      0.0000 
     14 C14        20.6360  -14.6960   21.0740 C.3       1 00R380      0.0000 
     15 C15        20.5340  -13.3510   20.3930 C.2       1 00R380      0.0000 
     16 C16        19.4230  -12.5950   20.5510 C.2       1 00R380      0.0000 
     17 C17        18.2030  -12.9610   21.3610 C.3       1 00R380      0.0000 
     18 C18        16.9240  -13.1160   20.5000 C.2       1 00R380      0.0000 
     19 O19        16.9030  -13.8470   19.2370 O.2       1 00R380      0.0000 
     20 N20        15.5870  -12.3820   20.9900 N.am      1 00R380      0.0000 
     21 C22        12.0340  -11.9000   23.2690 C.2       1 00R380      0.0000 
     22 N23        11.6470  -12.8270   24.2480 N.pl3     1 00R380      0.0000 
     23 C24        10.7930  -12.2360   25.1330 C.cat     1 00R380      0.0000 
     24 N25        10.6170  -10.9750   24.7980 N.pl3     1 00R380      0.0000 
     25 C26        11.4440  -10.7640   23.5830 C.2       1 00R380      0.0000 
     26 N27        10.2640  -12.9570   26.1260 N.pl3     1 00R380      0.0000 
     27 C31        17.3700  -17.1500   23.9450 C.3       1 00R380      0.0000 
     28 C32        18.3370  -17.9690   24.7590 C.3       1 00R380      0.0000 
     29 S33        18.8410  -17.1800   26.2810 S.o2      1 00R380      0.0000 
     30 O34        17.6720  -16.3950   26.7250 O.2       1 00R380      0.0000 
     31 O35        19.2610  -18.2340   27.1910 O.2       1 00R380      0.0000 
     32 C36        20.1650  -16.0750   25.8620 C.ar      1 00R380      0.0000 
     33 C37        20.1810  -14.7560   26.3300 C.ar      1 00R380      0.0000 
     34 C38        21.2000  -13.8930   25.9430 C.ar      1 00R380      0.0000 
     35 C39        22.2100  -14.3250   25.1010 C.ar      1 00R380      0.0000 
     36 C40        22.2260  -15.6300   24.6340 C.ar      1 00R380      0.0000 
     37 C41        21.2070  -16.4980   25.0150 C.ar      1 00R380      0.0000 
     38 H          12.7492  -11.2437   19.3069 H         1 00R380      0.0000 
     39 H          14.1929  -10.2920   19.6942 H         1 00R380      0.0000 
     40 H          14.8225  -12.6080   19.0102 H         1 00R380      0.0000 
     41 H          14.0741  -14.5328   20.6702 H         1 00R380      0.0000 
     42 H          12.9536  -13.9489   19.4279 H         1 00R380      0.0000 
     43 H          12.3330  -14.2153   22.1431 H         1 00R380      0.0000 
     44 H          11.4462  -13.1717   21.0186 H         1 00R380      0.0000 
     45 H          13.8656  -12.3217   22.6503 H         1 00R380      0.0000 
     46 H          11.9706  -10.3374   21.3231 H         1 00R380      0.0000 
     47 H          13.6119  -10.0646   21.9327 H         1 00R380      0.0000 
     48 H          20.9882  -15.4349   20.3280 H         1 00R380      0.0000 
     49 H          21.4276  -14.6330   21.8459 H         1 00R380      0.0000 
     50 H          21.3364  -13.0768   19.8317 H         1 00R380      0.0000 
     51 H          19.3441  -11.6438   20.0846 H         1 00R380      0.0000 
     52 H          18.0034  -12.1722   22.0855 H         1 00R380      0.0000 
     53 H          15.5813  -11.9468   21.8217 H         1 00R380      0.0000 
     54 H          11.9505  -13.7392   24.2731 H         1 00R380      0.0000 
     55 H          10.1108  -10.2879   25.1706 H         1 00R380      0.0000 
     56 H          11.4797   -9.9094   23.1672 H         1 00R380      0.0000 
     57 H           9.6185  -12.4788   26.7215 H         1 00R380      0.0000 
     58 H          10.5611  -13.9100   26.1845 H         1 00R380      0.0000 
     59 H          16.7855  -17.8383   23.3014 H         1 00R380      0.0000 
     60 H          16.6402  -16.6827   24.6368 H         1 00R380      0.0000 
     61 H          19.2812  -18.1437   24.2606 H         1 00R380      0.0000 
     62 H          17.9235  -18.9067   25.1057 H         1 00R380      0.0000 
     63 H          19.4380  -14.4296   26.9593 H         1 00R380      0.0000 
     64 H          21.2009  -12.9185   26.2894 H         1 00R380      0.0000 
     65 H          22.9581  -13.6706   24.8179 H         1 00R380      0.0000 
     66 H          22.9753  -15.9531   24.0177 H         1 00R380      0.0000 
     67 H          21.2090  -17.4741   24.6730 H         1 00R380      0.0000 
@<TRIPOS>BOND
     1    2    1 1    
     2    6    1 1    
     3   38    1 1    
     4   39    1 1    
     5    3    2 1    
     6   20    2 1    
     7   40    2 1    
     8    4    3 1    
     9   41    3 1    
    10   42    3 1    
    11    5    4 1    
    12   43    4 1    
    13   44    4 1    
    14    6    5 1    
    15   21    5 1    
    16   45    5 1    
    17   46    6 1    
    18   47    6 1    
    19    8    7 am   
    20   12    7 am   
    21   27    7 1    
    22    9    8 2    
    23   10    8 am   
    24   11   10 1    
    25   14   10 1    
    26   12   11 am   
    27   17   11 1    
    28   13   12 2    
    29   15   14 1    
    30   48   14 1    
    31   49   14 1    
    32   16   15 2    
    33   50   15 1    
    34   17   16 1    
    35   51   16 1    
    36   18   17 1    
    37   52   17 1    
    38   19   18 2    
    39   20   18 am   
    40   53   20 1    
    41   22   21 1    
    42   25   21 2    
    43   23   22 ar   
    44   54   22 1    
    45   24   23 ar   
    46   26   23 ar   
    47   25   24 1    
    48   55   24 1    
    49   56   25 1    
    50   57   26 1    
    51   58   26 1    
    52   28   27 1    
    53   59   27 1    
    54   60   27 1    
    55   29   28 1    
    56   61   28 1    
    57   62   28 1    
    58   30   29 2    
    59   31   29 2    
    60   32   29 1    
    61   33   32 ar   
    62   37   32 ar   
    63   34   33 ar   
    64   63   33 1    
    65   35   34 ar   
    66   64   34 1    
    67   36   35 ar   
    68   65   35 1    
    69   37   36 ar   
    70   66   36 1    
    71   67   37 1    
@<TRIPOS>SUBSTRUCTURE
     1 00R380      1 GROUP   
@<TRIPOS>SET

