#    Name: 1ob5_GNP_4_INTS_M
#    Modification time : Mon Mar 24 19:53:00 2014

@<TRIPOS>MOLECULE
1ob5_GNP_4_INTS_M
   59     0    15     0     0
SMALL
NO_CHARGES


@<TRIPOS>ATOM
      1 N          43.2510   19.4480   14.0300 N.am      2 SEC2        0.0000 
      2 N          44.4870   19.0220   14.2260 N.am     12 SEL2        0.0000 
      3 N          42.0150   19.8740   13.8340 N.am      7 SEP2        0.0000 
      4 N          43.8105   18.4605   13.1155 N.am      2 SEC2        0.0000 
      5 N          43.1340   17.8990   12.0050 N.am      7 SEP2        0.0000 
      6 NZ         46.3380   17.9210   16.2565 N.4       3 LYC4        0.0000 
      7 NZ         45.0530   18.8090   16.5150 N.4      13 LYL4        0.0000 
      8 NZ         47.6230   17.0330   15.9980 N.4       8 LYP4        0.0000 
      9 N          46.3380   17.9210   16.2565 N.am      2 SEC2        0.0000 
     10 N          45.0530   18.8090   16.5150 N.am     12 SEL2        0.0000 
     11 N          47.6230   17.0330   15.9980 N.am      7 SEP2        0.0000 
     12 N          44.8035   17.6850   17.1705 N.am      2 SEC2        0.0000 
     13 N          44.5540   16.5610   17.8260 N.am      7 SEP2        0.0000 
     14 NZ         48.0410   17.4460   14.7490 N.4       3 LYC4        0.0000 
     15 NZ         48.4590   17.8590   13.5000 N.4      13 LYL4        0.0000 
     16 N          49.9445   18.3750   13.4945 N.am      2 SEC2        0.0000 
     17 N          48.4590   17.8590   13.5000 N.am     12 SEL2        0.0000 
     18 N          51.4300   18.8910   13.4890 N.am      7 SEP2        0.0000 
     19 N          48.0410   17.4460   14.7490 N.am      2 SEC2        0.0000 
     20 N          48.1395   17.1130   12.1200 N.am      2 SEC2        0.0000 
     21 N          47.8200   16.3670   10.7400 N.am      7 SEP2        0.0000 
     22 Zn         45.6890   17.5405   12.6315 Zn        4 ZIC7        0.0000 
     23 Zn         46.3650   18.6160   12.3770 Zn       14 ZIL7        0.0000 
     24 Zn         45.0130   16.4650   12.8860 Zn        9 ZIP7        0.0000 
     25 N          47.0925   17.4915   11.5585 N.am      2 SEC2        0.0000 
     26 N          46.3650   18.6160   12.3770 N.am     12 SEL2        0.0000 
     27 N          44.7495   18.2575   12.1910 N.am      2 SEC2        0.0000 
     28 N          49.0000   18.7420    9.3860 N.am      2 SEC2        0.0000 
     29 N          49.1340   19.7100   10.4360 N.am     12 SEL2        0.0000 
     30 N          48.8660   17.7740    8.3360 N.am      7 SEP2        0.0000 
     31 N          46.3780   21.8220   10.0450 N.am      2 SEC2        0.0000 
     32 N          47.0030   20.9920   10.8030 N.am     12 SEL2        0.0000 
     33 N          45.7530   22.6520    9.2870 N.am      7 SEP2        0.0000 
     34 CA         48.4355   22.7425    8.2110 C.3       5 GLC5        0.0000 
     35 CA         50.0250   24.0590    8.8750 C.3      15 GLL5        0.0000 
     36 CA         46.8460   21.4260    7.5470 C.3      10 GLP5        0.0000 
     37 CA         52.6265   24.9890    7.1235 C.3       5 GLC5        0.0000 
     38 CA         51.3200   24.7780    8.5720 C.3      15 GLL5        0.0000 
     39 CA         53.9330   25.2000    5.6750 C.3      10 GLP5        0.0000 
     40 CA         53.2485   23.7905   11.6660 C.3       5 GLC5        0.0000 
     41 CA         52.1560   24.4430    9.8150 C.3      15 GLL5        0.0000 
     42 CA         54.3410   23.1380   13.5170 C.3      10 GLP5        0.0000 
     43 N          57.7935   20.5885    9.9650 N.am      2 SEC2        0.0000 
     44 N          56.9590   21.0400    8.5880 N.am     12 SEL2        0.0000 
     45 N          58.6280   20.1370   11.3420 N.am      7 SEP2        0.0000 
     46 N          56.2185   20.7815    7.1580 N.am      2 SEC2        0.0000 
     47 N          55.4780   20.5230    5.7280 N.am      7 SEP2        0.0000 
     48 O          58.6920   23.0060    8.6055 O.2       1 ALC1        0.0000 
     49 O          57.1310   23.2850    9.0820 O.2      11 ALL1        0.0000 
     50 O          60.2530   22.7270    8.1290 O.2       6 ALP1        0.0000 
     51 O          58.3140   24.0430    8.6045 O.2       1 ALC1        0.0000 
     52 O          59.4970   24.8010    8.1270 O.2       6 ALP1        0.0000 
     53 O          58.4445   25.1740    8.8475 O.2       1 ALC1        0.0000 
     54 O          57.3920   25.5470    9.5680 O.2      11 ALL1        0.0000 
     55 CA         55.6225   22.6328   10.8057 C.3       5 GLC5        0.0000 
     56 CA         54.9810   22.2540    9.0600 C.3      15 GLL5        0.0000 
     57 CA         56.5030   22.3790   12.3850 C.3      10 GLP5        0.0000 
     58 CA         54.8115   22.8863    7.4162 C.3       5 GLC5        0.0000 
     59 CA         54.8810   22.8860    5.6060 C.3      10 GLP5        0.0000 
@<TRIPOS>BOND
@<TRIPOS>SUBSTRUCTURE
     1 ALC1       48 GROUP        1 X    ALC  0     ROOT ALC X 1
     2 SEC2        1 GROUP        1 X    SEC  0     **** SEC X 2
     3 LYC4        6 GROUP        1 X    LYC  0     **** LYC X 4
     4 ZIC7       22 GROUP        1 X    ZIC  0     **** ZIC X 5
     5 GLC5       34 GROUP        1 X    GLC  0     **** GLC X 6
     6 ALP1       50 GROUP        1 Y    ALP  0     ROOT ALP Y 8
     7 SEP2        3 GROUP        1 Y    SEP  0     **** SEP Y 9
     8 LYP4        8 GROUP        1 Y    LYP  0     **** LYP Y 11
     9 ZIP7       24 GROUP        1 Y    ZIP  0     **** ZIP Y 12
    10 GLP5       36 GROUP        1 Y    GLP  0     **** GLP Y 13
    11 ALL1       49 GROUP        1 Z    ALL  0     ROOT ALL Z 15
    12 SEL2        2 GROUP        1 Z    SEL  0     **** SEL Z 16
    13 LYL4        7 GROUP        1 Z    LYL  0     **** LYL Z 18
    14 ZIL7       23 GROUP        1 Z    ZIL  0     **** ZIL Z 19
    15 GLL5       35 GROUP        1 Z    GLL  0     **** GLL Z 20
@<TRIPOS>SET

