#    Name: 1ob5_GNP_4_ligand
#    Modification time : Mon Mar 24 19:53:00 2014

@<TRIPOS>MOLECULE
1ob5_GNP_4_ligand
   44    46     1     0     0
SMALL
NO_CHARGES


@<TRIPOS>ATOM
      1 PG         45.3140   19.6260   15.3260 P.3       1 GNP1406     0.0000 
      2 O1G        44.4870   19.0220   14.2260 O.co2     1 GNP1406     0.0000 
      3 O2G        45.0530   18.8090   16.5150 O.co2     1 GNP1406     0.0000 
      4 O3G        44.9860   21.0970   15.3760 O.co2     1 GNP1406     0.0000 
      5 N3B        46.9000   19.4100   14.8170 N.4       1 GNP1406     0.0000 
      6 PB         47.4830   18.9560   13.3380 P.3       1 GNP1406     0.0000 
      7 O1B        48.4590   17.8590   13.5000 O.co2     1 GNP1406     0.0000 
      8 O2B        46.3650   18.6160   12.3770 O.co2     1 GNP1406     0.0000 
      9 O3A        48.2830   20.2270   12.7820 O.3       1 GNP1406     0.0000 
     10 PA         48.4080   20.7060   11.2660 P.3       1 GNP1406     0.0000 
     11 O1A        49.1340   19.7100   10.4360 O.co2     1 GNP1406     0.0000 
     12 O2A        47.0030   20.9920   10.8030 O.co2     1 GNP1406     0.0000 
     13 O5'        49.3340   22.0290   11.4110 O.3       1 GNP1406     0.0000 
     14 C5'        48.8520   23.3810   11.1330 C.3       1 GNP1406     0.0000 
     15 C4'        49.8850   24.2510   10.4080 C.3       1 GNP1406     0.0000 
     16 O4'        51.2650   24.1280   10.8940 O.3       1 GNP1406     0.0000 
     17 C3'        50.0250   24.0590    8.8750 C.3       1 GNP1406     0.0000 
     18 O3'        48.9350   24.5180    8.0840 O.3       1 GNP1406     0.0000 
     19 C2'        51.3200   24.7780    8.5720 C.3       1 GNP1406     0.0000 
     20 O2'        51.2610   26.1730    8.2890 O.3       1 GNP1406     0.0000 
     21 C1'        52.1560   24.4430    9.8150 C.3       1 GNP1406     0.0000 
     22 N9         53.1310   23.3740    9.4910 N.pl3     1 GNP1406     0.0000 
     23 C8         52.8810   22.0350    9.2110 C.2       1 GNP1406     0.0000 
     24 N7         53.9540   21.3430    8.9530 N.2       1 GNP1406     0.0000 
     25 C5         54.9810   22.2540    9.0600 C.2       1 GNP1406     0.0000 
     26 C6         56.3850   22.0790    8.8820 C.2       1 GNP1406     0.0000 
     27 O6         56.9590   21.0400    8.5880 O.2       1 GNP1406     0.0000 
     28 N1         57.1310   23.2850    9.0820 N.am      1 GNP1406     0.0000 
     29 C2         56.5650   24.5160    9.4160 C.2       1 GNP1406     0.0000 
     30 N2         57.3920   25.5470    9.5680 N.pl3     1 GNP1406     0.0000 
     31 N3         55.2300   24.6870    9.5850 N.2       1 GNP1406     0.0000 
     32 C4         54.5030   23.5190    9.3930 C.2       1 GNP1406     0.0000 
     33 H          48.5741   23.8962   12.0710 H         1 GNP1406     0.0000 
     34 H          47.9393   23.3489   10.5097 H         1 GNP1406     0.0000 
     35 H          49.5958   25.3258   10.5361 H         1 GNP1406     0.0000 
     36 H          50.2319   22.9906    8.7295 H         1 GNP1406     0.0000 
     37 H          51.8033   24.2060    7.7544 H         1 GNP1406     0.0000 
     38 H          52.7147   25.3664   10.0518 H         1 GNP1406     0.0000 
     39 H          51.9441   21.6790    9.2186 H         1 GNP1406     0.0000 
     40 H          58.1751   23.2236    8.9660 H         1 GNP1406     0.0000 
     41 H          58.3577   25.3679    9.3798 H         1 GNP1406     0.0000 
     42 H          56.9734   26.4080    9.8567 H         1 GNP1406     0.0000 
     43 H          49.1531   25.4704    7.8708 H         1 GNP1406     0.0000 
     44 H          51.9388   26.3198    7.5686 H         1 GNP1406     0.0000 
@<TRIPOS>BOND
     1    2    1 ar   
     2    3    1 ar   
     3    4    1 ar   
     4    5    1 1    
     5    6    5 1    
     6    7    6 ar   
     7    8    6 ar   
     8    9    6 1    
     9   10    9 1    
    10   11   10 ar   
    11   12   10 ar   
    12   13   10 1    
    13   14   13 1    
    14   15   14 1    
    15   33   14 1    
    16   34   14 1    
    17   16   15 1    
    18   17   15 1    
    19   35   15 1    
    20   21   16 1    
    21   18   17 1    
    22   19   17 1    
    23   36   17 1    
    24   43   18 1    
    25   20   19 1    
    26   21   19 1    
    27   37   19 1    
    28   44   20 1    
    29   22   21 1    
    30   38   21 1    
    31   23   22 1    
    32   32   22 1    
    33   24   23 2    
    34   39   23 1    
    35   25   24 1    
    36   26   25 1    
    37   32   25 2    
    38   27   26 2    
    39   28   26 am   
    40   29   28 1    
    41   40   28 1    
    42   30   29 1    
    43   31   29 2    
    44   41   30 1    
    45   42   30 1    
    46   32   31 1    
@<TRIPOS>SUBSTRUCTURE
     1 GNP1406     1 GROUP   
@<TRIPOS>SET

