#    Name: 1B58_1_CAVITY_N1_6.mol2
#    Modification time : Mon Mar 10 14:17:26 2014

@<TRIPOS>MOLECULE
1B58_1_CAVITY_N1_6.mol2
   35     0     4     0     0
SMALL
NO_CHARGES


@<TRIPOS>ATOM
      1 O           4.3306   19.5092   13.6355 O.2       2 ALA2        0.0000 
      2 N           6.2957   18.7142   13.5542 N.2       2 ALA2        0.0000 
      3 N           5.9940   17.8472   14.7405 N.2       2 ALA2        0.0000 
      4 CA          4.9753   18.3428   12.9470 C.3       4 GLY6        0.0000 
      5 N           4.6736   17.4758   14.1333 N.2       2 ALA2        0.0000 
      6 OG          5.9216   18.0436   11.0722 O.2       1 SER1        0.0000 
      7 NZ          5.6199   17.1765   12.2585 N.2       3 LYS4        0.0000 
      8 N           5.3183   16.3095   13.4447 N.2       2 ALA2        0.0000 
      9 CA          4.6012   17.6722   10.4650 C.3       4 GLY6        0.0000 
     10 CA          4.2996   16.8052   11.6513 C.3       4 GLY6        0.0000 
     11 CA          3.9979   15.9381   12.8375 C.3       4 GLY6        0.0000 
     12 CA          3.2808   17.3009    9.8578 C.3       4 GLY6        0.0000 
     13 CA          2.9792   16.4338   11.0441 C.3       4 GLY6        0.0000 
     14 CA          2.6775   15.5668   12.2303 C.3       4 GLY6        0.0000 
     15 CA          1.6588   16.0625   10.4369 C.3       4 GLY6        0.0000 
     16 OG          1.3571   15.1954   11.6231 O.2       1 SER1        0.0000 
     17 OG          6.5663   16.8772   10.3837 O.2       1 SER1        0.0000 
     18 NZ          6.2646   16.0102   11.5699 N.2       3 LYS4        0.0000 
     19 CA          5.2459   16.5059    9.7765 C.3       4 GLY6        0.0000 
     20 N           4.9442   15.6388   10.9627 N.2       2 ALA2        0.0000 
     21 N           4.6426   14.7718   12.1490 N.2       2 ALA2        0.0000 
     22 O           3.9255   16.1345    9.1693 O.2       2 ALA2        0.0000 
     23 N           3.6238   15.2675   10.3555 N.2       2 ALA2        0.0000 
     24 N           3.3222   14.4004   11.5418 N.2       2 ALA2        0.0000 
     25 O           2.6051   15.7632    8.5621 O.2       2 ALA2        0.0000 
     26 N           2.3035   14.8961    9.7483 N.2       2 ALA2        0.0000 
     27 CA          7.2109   15.7109    9.6951 C.3       4 GLY6        0.0000 
     28 NZ          6.9093   14.8439   10.8814 N.2       3 LYS4        0.0000 
     29 N           5.8905   15.3396    9.0879 N.2       2 ALA2        0.0000 
     30 N           5.5889   14.4725   10.2742 N.2       2 ALA2        0.0000 
     31 O           4.5702   14.9682    8.4807 O.2       2 ALA2        0.0000 
     32 N           4.2685   14.1012    9.6670 N.2       2 ALA2        0.0000 
     33 N           7.8556   14.5446    9.0066 N.2       2 ALA2        0.0000 
     34 N           7.5539   13.6775   10.1928 N.2       2 ALA2        0.0000 
     35 N           6.2335   13.3062    9.5856 N.2       2 ALA2        0.0000 
@<TRIPOS>BOND
@<TRIPOS>SUBSTRUCTURE
     1 SER1        6 GROUP   
     2 ALA2        1 GROUP   
     3 LYS4        7 GROUP   
     4 GLY6        4 GROUP   
@<TRIPOS>SET

