#    Name: 1b58_LYS_TYR_LYS_1_INTS_M
#    Modification time : Mon Mar 24 19:21:49 2014

@<TRIPOS>MOLECULE
1b58_LYS_TYR_LYS_1_INTS_M
   93     0    12     0     0
SMALL
NO_CHARGES


@<TRIPOS>ATOM
      1 OD1         7.6005   16.3210   14.4450 O.co2     3 ASC3        0.0000 
      2 OD1         6.9150   17.0380   15.3930 O.co2    11 ASL3        0.0000 
      3 OD1         8.2860   15.6040   13.4970 O.co2     7 ASP3        0.0000 
      4 OD1         8.4565   16.3450   15.1785 O.co2     3 ASC3        0.0000 
      5 OD1         9.9980   15.6520   14.9640 O.co2     7 ASP3        0.0000 
      6 O           6.2140   15.8585   15.5945 O.2       1 ALC1        0.0000 
      7 O           6.9150   17.0380   15.3930 O.2       9 ALL1        0.0000 
      8 O           5.5130   14.6790   15.7960 O.2       5 ALP1        0.0000 
      9 O           7.6005   16.3210   14.4450 O.2       1 ALC1        0.0000 
     10 O           8.2860   15.6040   13.4970 O.2       5 ALP1        0.0000 
     11 O           8.4565   16.3450   15.1785 O.2       1 ALC1        0.0000 
     12 O           9.9980   15.6520   14.9640 O.2       5 ALP1        0.0000 
     13 CA          8.6060   18.7545   14.7730 C.3       4 GLC5        0.0000 
     14 CA          6.4760   18.3740   14.8690 C.3      12 GLL5        0.0000 
     15 CA         10.7360   19.1350   14.6770 C.3       8 GLP5        0.0000 
     16 CA          6.9600   18.7580   16.6425 C.3       4 GLC5        0.0000 
     17 CA          7.4440   19.1420   18.4160 C.3       8 GLP5        0.0000 
     18 N           3.7860   16.7930   16.5160 N.am      2 SEC2        0.0000 
     19 N           4.3540   17.9690   15.9280 N.am     10 SEL2        0.0000 
     20 N           3.2180   15.6170   17.1040 N.am      6 SEP2        0.0000 
     21 CA          5.5470   20.3475   12.8960 C.3       4 GLC5        0.0000 
     22 CA          6.2380   18.3740   13.3360 C.3      12 GLL5        0.0000 
     23 CA          4.8560   22.3210   12.4560 C.3       8 GLP5        0.0000 
     24 CA          3.9355   16.0390   13.8245 C.3       4 GLC5        0.0000 
     25 CA          5.3130   17.2940   12.8190 C.3      12 GLL5        0.0000 
     26 CA          2.5580   14.7840   14.8300 C.3       8 GLP5        0.0000 
     27 CA          8.5080   16.4080   10.8055 C.3       4 GLC5        0.0000 
     28 CA          6.4950   16.6350   10.6400 C.3      12 GLL5        0.0000 
     29 CA         10.5210   16.1810   10.9710 C.3       8 GLP5        0.0000 
     30 OD1         7.4735   15.4100   12.2875 O.co2     3 ASC3        0.0000 
     31 OD1         6.6610   15.2160   11.0780 O.co2    11 ASL3        0.0000 
     32 O           5.5810   14.5660   10.2790 O.2       1 ALC1        0.0000 
     33 O           6.6610   15.2160   11.0780 O.2       9 ALL1        0.0000 
     34 O           4.5010   13.9160    9.4800 O.2       5 ALP1        0.0000 
     35 O           7.4735   15.4100   12.2875 O.2       1 ALC1        0.0000 
     36 O           6.0060   20.8940   14.8885 O.2       1 ALC1        0.0000 
     37 O           5.0340   20.1190   15.7240 O.2       9 ALL1        0.0000 
     38 O           6.9780   21.6690   14.0530 O.2       5 ALP1        0.0000 
     39 CA          5.0810   19.6210   17.6690 C.3       4 GLC5        0.0000 
     40 CA          3.8450   20.7030   16.3620 C.3      12 GLL5        0.0000 
     41 CA          6.3170   18.5390   18.9760 C.3       8 GLP5        0.0000 
     42 N           2.8925   20.8945   12.8905 N.am      2 SEC2        0.0000 
     43 N           2.5840   20.9110   14.2970 N.am     10 SEL2        0.0000 
     44 N           3.2010   20.8780   11.4840 N.am      6 SEP2        0.0000 
     45 CA          2.5170   23.1440   15.8465 C.3       4 GLC5        0.0000 
     46 CA          4.0340   22.2090   16.7220 C.3      12 GLL5        0.0000 
     47 CA          1.0000   24.0790   14.9710 C.3       8 GLP5        0.0000 
     48 O           7.5655   23.0975   21.8520 O.2       1 ALC1        0.0000 
     49 O           8.3200   22.8540   20.3430 O.2       9 ALL1        0.0000 
     50 O           6.8110   23.3410   23.3610 O.2       5 ALP1        0.0000 
     51 O           1.7000   19.8445   17.5880 O.2       1 ALC1        0.0000 
     52 O           1.4820   20.2830   16.1640 O.2       9 ALL1        0.0000 
     53 O           1.9180   19.4060   19.0120 O.2       5 ALP1        0.0000 
     54 CA          0.6050   22.1290   15.2265 C.3       4 GLC5        0.0000 
     55 CA          0.2100   20.1790   15.4820 C.3      12 GLL5        0.0000 
     56 CA         -3.3280   19.1565   11.6720 C.3       4 GLC5        0.0000 
     57 CA         -3.3530   17.6770   13.1380 C.3      12 GLL5        0.0000 
     58 CA         -3.3030   20.6360   10.2060 C.3       8 GLP5        0.0000 
     59 O          -2.5355   18.9390   11.3970 O.2       1 ALC1        0.0000 
     60 O          -2.8580   17.3570   11.7770 O.2       9 ALL1        0.0000 
     61 O          -2.2130   20.5210   11.0170 O.2       5 ALP1        0.0000 
     62 O          -3.5420   17.1965   10.6740 O.2       1 ALC1        0.0000 
     63 O          -4.2260   17.0360    9.5710 O.2       5 ALP1        0.0000 
     64 O          -2.0835   16.1835   11.7350 O.2       1 ALC1        0.0000 
     65 O          -1.3090   15.0100   11.6930 O.2       5 ALP1        0.0000 
     66 N          -1.6195   22.2475   18.0030 N.am      2 SEC2        0.0000 
     67 N          -0.6940   21.4150   17.3600 N.am     10 SEL2        0.0000 
     68 N          -2.5450   23.0800   18.6460 N.am      6 SEP2        0.0000 
     69 N          -1.7965   21.1150   18.3210 N.am      2 SEC2        0.0000 
     70 N          -2.8990   20.8150   19.2820 N.am      6 SEP2        0.0000 
     71 CA          3.5307   17.7882   12.1390 C.3       4 GLC5        0.0000 
     72 CA          1.7920   18.3300   12.2180 C.3       8 GLP5        0.0000 
     73 CA          5.8918   17.9395    9.4088 C.3       4 GLC5        0.0000 
     74 CA          5.2260   17.1990   11.3010 C.3      12 GLL5        0.0000 
     75 CA          5.9230   18.9620    7.8470 C.3       8 GLP5        0.0000 
     76 CA          4.3978   21.8885   14.4990 C.3       4 GLC5        0.0000 
     77 CA          7.9425   23.2572   16.1182 C.3       4 GLC5        0.0000 
     78 CA          6.4310   22.7480   17.2570 C.3      12 GLL5        0.0000 
     79 CA          8.9420   23.6860   14.5300 C.3       8 GLP5        0.0000 
     80 CA          4.7399   24.2936   17.6429 C.3       4 GLC5        0.0000 
     81 CA          3.8640   26.0870   17.5870 C.3       8 GLP5        0.0000 
     82 CA          7.2933   23.8995   21.1958 C.3       4 GLC5        0.0000 
     83 CA          6.0240   22.3470   19.9870 C.3      12 GLL5        0.0000 
     84 CA          7.9530   25.2740   22.6430 C.3       8 GLP5        0.0000 
     85 CA          0.8638   18.8985   13.8227 C.3       4 GLC5        0.0000 
     86 CA          0.0230   18.2387   13.1715 C.3       4 GLC5        0.0000 
     87 CA         -2.1300   17.5010   14.0680 C.3      12 GLL5        0.0000 
     88 CA         -2.8047   15.6800   13.3080 C.3       4 GLC5        0.0000 
     89 CA         -2.8680   13.7710   13.0130 C.3       8 GLP5        0.0000 
     90 CA         -0.3316   16.7014   14.6834 C.3       4 GLC5        0.0000 
     91 CA          0.8270   15.2650   14.9440 C.3       8 GLP5        0.0000 
     92 CA         -3.6858   17.0710   15.2470 C.3       4 GLC5        0.0000 
     93 CA         -4.6300   16.5530   16.8910 C.3       8 GLP5        0.0000 
@<TRIPOS>BOND
@<TRIPOS>SUBSTRUCTURE
     1 ALC1        6 GROUP        1 X    ALC  0     ROOT ALC X 1
     2 SEC2       18 GROUP        1 X    SEC  0     **** SEC X 2
     3 ASC3        1 GROUP        1 X    ASC  0     **** ASC X 3
     4 GLC5       13 GROUP        1 X    GLC  0     **** GLC X 6
     5 ALP1        8 GROUP        1 Y    ALP  0     ROOT ALP Y 8
     6 SEP2       20 GROUP        1 Y    SEP  0     **** SEP Y 9
     7 ASP3        3 GROUP        1 Y    ASP  0     **** ASP Y 10
     8 GLP5       15 GROUP        1 Y    GLP  0     **** GLP Y 13
     9 ALL1        7 GROUP        1 Z    ALL  0     ROOT ALL Z 15
    10 SEL2       19 GROUP        1 Z    SEL  0     **** SEL Z 16
    11 ASL3        2 GROUP        1 Z    ASL  0     **** ASL Z 17
    12 GLL5       14 GROUP        1 Z    GLL  0     **** GLL Z 20
@<TRIPOS>SET

