#    Name: 1b58_LYS_TYR_LYS_1_ligand
#    Modification time : Mon Mar 24 19:21:49 2014

@<TRIPOS>MOLECULE
1b58_LYS_TYR_LYS_1_ligand
   69    69     3     0     0
SMALL
NO_CHARGES


@<TRIPOS>ATOM
      1 N           6.9150   17.0380   15.3930 N.4       1 LYS1        0.0000
      2 CA          6.4760   18.3740   14.8690 C.3       1 LYS1        0.0000
      3 C           5.2090   18.8230   15.5770 C.2       1 LYS1        0.0000
      4 O           4.3540   17.9690   15.9280 O.2       1 LYS1        0.0000
      5 CB          6.2380   18.3740   13.3360 C.3       1 LYS1        0.0000
      6 CG          5.3130   17.2940   12.8190 C.3       1 LYS1        0.0000
      7 CD          5.2260   17.1990   11.3010 C.3       1 LYS1        0.0000
      8 CE          6.4950   16.6350   10.6400 C.3       1 LYS1        0.0000
      9 NZ          6.6610   15.2160   11.0780 N.4       1 LYS1        0.0000
     10 HA          7.2517   19.1138   15.0790 H         1 LYS1        0.0000
     11 HB2         7.2242   18.2850   12.8373 H         1 LYS1        0.0000
     12 HB3         5.8387   19.3686   13.0524 H         1 LYS1        0.0000
     13 HG2         4.2951   17.4649   13.2227 H         1 LYS1        0.0000
     14 HG3         5.6422   16.3137   13.2176 H         1 LYS1        0.0000
     15 HD2         5.0285   18.1997   10.8862 H         1 LYS1        0.0000
     16 HD3         4.3726   16.5596   11.0265 H         1 LYS1        0.0000
     17 HE2         7.3422   17.2289   10.9528 H         1 LYS1        0.0000
     18 HE3         6.3799   16.6884    9.5665 H         1 LYS1        0.0000
     19 HNCA        7.3990   16.5070   14.6974 H         1 LYS1        0.0000
     20 H           7.5329   17.1301   16.1739 H         1 LYS1        0.0000
     21 H           6.1392   16.4850   15.6967 H         1 LYS1        0.0000
     22 HZ1         6.7550   15.1424   12.0709 H         1 LYS1        0.0000
     23 HZ2         5.8781   14.6522   10.8151 H         1 LYS1        0.0000
     24 HZ3         7.4736   14.7955   10.6746 H         1 LYS1        0.0000
     25 N           5.0340   20.1190   15.7240 N.am      2 TYR2        0.0000
     26 CA          3.8450   20.7030   16.3620 C.3       2 TYR2        0.0000
     27 C           2.5900   20.6220   15.5040 C.2       2 TYR2        0.0000
     28 O           2.5840   20.9110   14.2970 O.2       2 TYR2        0.0000
     29 CB          4.0340   22.2090   16.7220 C.3       2 TYR2        0.0000
     30 CG          5.1690   22.3880   17.7110 C.ar      2 TYR2        0.0000
     31 CD1         5.0000   22.2060   19.0650 C.ar      2 TYR2        0.0000
     32 CD2         6.4310   22.7480   17.2570 C.ar      2 TYR2        0.0000
     33 CE1         6.0240   22.3470   19.9870 C.ar      2 TYR2        0.0000
     34 CE2         7.4550   22.9090   18.1560 C.ar      2 TYR2        0.0000
     35 CZ          7.2430   22.7030   19.5100 C.ar      2 TYR2        0.0000
     36 OH          8.3200   22.8540   20.3430 O.3       2 TYR2        0.0000
     37 HNCA        5.7411   20.8231   15.3907 H         2 TYR2        0.0000
     38 HA          3.6246   20.1940   17.3075 H         2 TYR2        0.0000
     39 HB2         3.1054   22.5768   17.1499 H         2 TYR2        0.0000
     40 HB3         4.2476   22.7545   15.8069 H         2 TYR2        0.0000
     41 HD1         4.0418   21.9455   19.4226 H         2 TYR2        0.0000
     42 HD2         6.5898   22.8915   16.2504 H         2 TYR2        0.0000
     43 HE1         5.8554   22.1875   20.9758 H         2 TYR2        0.0000
     44 HE2         8.3970   23.1868   17.8259 H         2 TYR2        0.0000
     45 HH          7.9265   23.0297   21.2454 H         2 TYR2        0.0000
     46 N           1.4820   20.2830   16.1640 N.am      3 LYS3        0.0000
     47 CA          0.2100   20.1790   15.4820 C.3       3 LYS3        0.0000
     48 C          -0.8450   21.0560   16.1900 C.2       3 LYS3        0.0000
     49 O          -1.8140   21.4040   15.5080 O.2       3 LYS3        0.0000
     50 CB         -0.3390   18.7550   15.3730 C.3       3 LYS3        0.0000
     51 CG         -1.3620   18.7940   14.1820 C.3       3 LYS3        0.0000
     52 CD         -2.1300   17.5010   14.0680 C.3       3 LYS3        0.0000
     53 CE         -3.3530   17.6770   13.1380 C.3       3 LYS3        0.0000
     54 NZ         -2.8580   17.3570   11.7770 N.4       3 LYS3        0.0000
     55 OXT        -0.6940   21.4150   17.3600 O.3       3 LYS3        0.0000
     56 HNCA        1.4801   20.0812   17.1810 H         3 LYS3        0.0000
     57 HA          0.2913   20.5772   14.4583 H         3 LYS3        0.0000
     58 HB2        -0.8596   18.4918   16.2597 H         3 LYS3        0.0000
     59 HB3         0.4405   18.0771   15.1294 H         3 LYS3        0.0000
     60 HG2        -0.8020   18.9838   13.2666 H         3 LYS3        0.0000
     61 HG3        -2.0444   19.6258   14.3548 H         3 LYS3        0.0000
     62 HD2        -2.4833   17.1892   15.0483 H         3 LYS3        0.0000
     63 HD3        -1.4915   16.7229   13.6558 H         3 LYS3        0.0000
     64 HE2        -3.6837   18.6920   13.1992 H         3 LYS3        0.0000
     65 HE3        -4.1139   16.9904   13.4429 H         3 LYS3        0.0000
     66 HZ1        -2.1185   17.9693   11.4973 H         3 LYS3        0.0000
     67 HZ2        -2.5030   16.4238   11.7208 H         3 LYS3        0.0000
     68 HZ3        -3.5807   17.4375   11.0905 H         3 LYS3        0.0000
     69 H           0.2672   21.2307   17.5651 H         3 LYS3        0.0000
@<TRIPOS>BOND
     1    2    1 1
     2   19    1 1
     3   20    1 1
     4   21    1 1
     5    3    2 1
     6    5    2 1
     7   10    2 1
     8    4    3 2
     9    6    5 1
    10   11    5 1
    11   12    5 1
    12    7    6 1
    13   13    6 1
    14   14    6 1
    15    8    7 1
    16   15    7 1
    17   16    7 1
    18    9    8 1
    19   17    8 1
    20   18    8 1
    21   22    9 1
    22   23    9 1
    23   24    9 1
    24   26   25 1
    25   37   25 1
    26   27   26 1
    27   29   26 1
    28   38   26 1
    29   28   27 2
    30   30   29 1
    31   39   29 1
    32   40   29 1
    33   31   30 ar
    34   32   30 ar
    35   33   31 ar
    36   41   31 1
    37   34   32 ar
    38   42   32 1
    39   35   33 ar
    40   43   33 1
    41   35   34 ar
    42   44   34 1
    43   36   35 1
    44   45   36 1
    45   47   46 1
    46   56   46 1
    47   48   47 1
    48   50   47 1
    49   57   47 1
    50   49   48 2
    51   55   48 1
    52   51   50 1
    53   58   50 1
    54   59   50 1
    55   52   51 1
    56   60   51 1
    57   61   51 1
    58   53   52 1
    59   62   52 1
    60   63   52 1
    61   54   53 1
    62   64   53 1
    63   65   53 1
    64   66   54 1
    65   67   54 1
    66   68   54 1
    67   69   55 1
    68   25    3 am
    69   46   27 am
@<TRIPOS>SUBSTRUCTURE
     1 LYS1        1 RESIDUE
     2 TYR2       25 RESIDUE
     3 LYS3       46 RESIDUE
@<TRIPOS>SET

