#    Name: 1I5E_1_CAVITY_N1_ALL.mol2
#    Modification time : Tue Mar 11 07:46:23 2014

@<TRIPOS>MOLECULE
1I5E_1_CAVITY_N1_ALL.mol2
  136     0     6     0     0
SMALL
NO_CHARGES


@<TRIPOS>ATOM
      1 CZ          9.8550   68.4406   49.9943 C.ar      4 PHE5        0.0000 
      2 N           9.3427   67.7486   51.2226 N.2       2 ALA2        0.0000 
      3 DU          8.4464   68.6393   49.5187 H         6 CUB7        0.0000 
      4 N           7.9341   67.9473   50.7470 N.2       2 ALA2        0.0000 
      5 DU          7.0377   68.8380   49.0431 H         6 CUB7        0.0000 
      6 N           6.5254   68.1460   50.2714 N.2       2 ALA2        0.0000 
      7 N           6.0131   67.4540   51.4997 N.2       2 ALA2        0.0000 
      8 DU          6.1413   69.7287   47.3392 H         6 CUB7        0.0000 
      9 DU          5.6290   69.0367   48.5675 H         6 CUB7        0.0000 
     10 CA          5.1167   68.3447   49.7958 C.3       5 GLY6        0.0000 
     11 OG          5.2450   70.6193   45.6353 O.2       1 SER1        0.0000 
     12 OG          4.7327   69.9274   46.8636 O.2       1 SER1        0.0000 
     13 DU          4.2204   69.2354   48.0919 H         6 CUB7        0.0000 
     14 OG          3.7081   68.5434   49.3202 O.2       1 SER1        0.0000 
     15 CA          3.3240   70.1260   46.3880 C.3       5 GLY6        0.0000 
     16 CA          2.8117   69.4341   47.6163 C.3       5 GLY6        0.0000 
     17 OG         11.8327   67.6180   48.5239 O.2       1 SER1        0.0000 
     18 NZ         10.9363   68.5086   46.8200 N.2       3 LYS4        0.0000 
     19 NZ         10.4240   67.8167   48.0483 N.2       3 LYS4        0.0000 
     20 CZ          9.9117   67.1247   49.2766 C.ar      4 PHE5        0.0000 
     21 N           9.3994   66.4327   50.5049 N.2       2 ALA2        0.0000 
     22 DU         10.0400   69.3993   45.1161 H         6 CUB7        0.0000 
     23 DU          9.5277   68.7073   46.3444 H         6 CUB7        0.0000 
     24 DU          8.5031   67.3234   48.8010 H         6 CUB7        0.0000 
     25 N           7.9908   66.6314   50.0293 N.2       2 ALA2        0.0000 
     26 DU          7.0944   67.5221   48.3254 H         6 CUB7        0.0000 
     27 N           6.5821   66.8301   49.5537 N.2       2 ALA2        0.0000 
     28 OG          6.1980   68.4127   46.6215 O.2       1 SER1        0.0000 
     29 DU          5.6857   67.7207   47.8498 H         6 CUB7        0.0000 
     30 CA          5.1734   67.0288   49.0781 C.3       5 GLY6        0.0000 
     31 CA          4.6611   66.3368   50.3064 C.3       5 GLY6        0.0000 
     32 OG          4.7894   68.6114   46.1459 O.2       1 SER1        0.0000 
     33 OG          4.2771   67.9194   47.3742 O.2       1 SER1        0.0000 
     34 OG          3.7648   67.2275   48.6025 O.2       1 SER1        0.0000 
     35 OG          2.8684   68.1181   46.8986 O.2       1 SER1        0.0000 
     36 NZ         11.8894   66.3020   47.8062 N.2       3 LYS4        0.0000 
     37 CZ         11.3771   65.6101   49.0345 C.ar      4 PHE5        0.0000 
     38 CZ         10.8648   64.9181   50.2628 C.ar      4 PHE5        0.0000 
     39 NZ         12.0176   68.5767   43.6457 N.2       3 LYS4        0.0000 
     40 NZ         11.5053   67.8847   44.8740 N.2       3 LYS4        0.0000 
     41 NZ         10.9930   67.1927   46.1023 N.2       3 LYS4        0.0000 
     42 NZ         10.4807   66.5007   47.3306 N.2       3 LYS4        0.0000 
     43 DU          9.9684   65.8087   48.5589 H         6 CUB7        0.0000 
     44 N           9.4561   65.1168   49.7872 N.2       2 ALA2        0.0000 
     45 O          11.1213   69.4673   41.9418 O.2       2 ALA2        0.0000 
     46 DU         10.6090   68.7754   43.1701 H         6 CUB7        0.0000 
     47 DU         10.0967   68.0834   44.3984 H         6 CUB7        0.0000 
     48 DU          9.5844   67.3914   45.6267 H         6 CUB7        0.0000 
     49 DU          8.5598   66.0074   48.0833 H         6 CUB7        0.0000 
     50 N           8.0475   65.3155   49.3116 N.2       2 ALA2        0.0000 
     51 DU          9.2003   68.9741   42.6945 H         6 CUB7        0.0000 
     52 DU          7.6634   66.8981   46.3794 H         6 CUB7        0.0000 
     53 DU          7.1511   66.2061   47.6077 H         6 CUB7        0.0000 
     54 CA          6.6388   65.5141   48.8360 C.3       5 GLY6        0.0000 
     55 DU          7.2793   68.4808   43.4472 H         6 CUB7        0.0000 
     56 OG          6.7670   67.7888   44.6755 O.2       1 SER1        0.0000 
     57 OG          6.2547   67.0968   45.9038 O.2       1 SER1        0.0000 
     58 OG          5.7424   66.4048   47.1321 O.2       1 SER1        0.0000 
     59 CA          5.2301   65.7128   48.3604 C.3       5 GLY6        0.0000 
     60 OG          5.8707   68.6795   42.9716 O.2       1 SER1        0.0000 
     61 OG          4.3338   66.6035   46.6565 O.2       1 SER1        0.0000 
     62 CA          3.8215   65.9115   47.8848 C.3       5 GLY6        0.0000 
     63 OG          2.4128   66.1102   47.4092 O.2       1 SER1        0.0000 
     64 CA         11.9461   64.9861   47.0885 C.3       5 GLY6        0.0000 
     65 N          11.4338   64.2941   48.3168 N.2       2 ALA2        0.0000 
     66 N          10.9215   63.6021   49.5451 N.2       2 ALA2        0.0000 
     67 CA         10.4092   62.9102   50.7734 C.3       5 GLY6        0.0000 
     68 NZ         12.0743   67.2607   42.9280 N.2       3 LYS4        0.0000 
     69 NZ         11.5620   66.5688   44.1563 N.2       3 LYS4        0.0000 
     70 NZ         11.0497   65.8768   45.3846 N.2       3 LYS4        0.0000 
     71 DU         10.5374   65.1848   46.6129 H         6 CUB7        0.0000 
     72 DU         10.0251   64.4928   47.8412 H         6 CUB7        0.0000 
     73 N           9.5128   63.8008   49.0695 N.2       2 ALA2        0.0000 
     74 O           9.0005   63.1088   50.2978 O.2       2 ALA2        0.0000 
     75 CA         11.1780   68.1514   41.2241 C.3       5 GLY6        0.0000 
     76 DU         10.6657   67.4594   42.4524 H         6 CUB7        0.0000 
     77 DU         10.1534   66.7674   43.6807 H         6 CUB7        0.0000 
     78 DU          9.6411   66.0755   44.9090 H         6 CUB7        0.0000 
     79 DU          9.1288   65.3835   46.1373 H         6 CUB7        0.0000 
     80 DU          8.6165   64.6915   47.3656 H         6 CUB7        0.0000 
     81 CA          8.1042   63.9995   48.5939 C.3       5 GLY6        0.0000 
     82 O           9.7693   68.3501   40.7485 O.2       2 ALA2        0.0000 
     83 O           9.2570   67.6581   41.9768 O.2       2 ALA2        0.0000 
     84 DU          8.7447   66.9661   43.2051 H         6 CUB7        0.0000 
     85 DU          8.2324   66.2742   44.4334 H         6 CUB7        0.0000 
     86 DU          7.7201   65.5822   45.6617 H         6 CUB7        0.0000 
     87 DU          7.2078   64.8902   46.8900 H         6 CUB7        0.0000 
     88 CA          6.6955   64.1982   48.1183 C.3       5 GLY6        0.0000 
     89 N           7.8483   67.8568   41.5012 N.2       2 ALA2        0.0000 
     90 DU          7.3360   67.1648   42.7295 H         6 CUB7        0.0000 
     91 OG          6.8237   66.4728   43.9578 O.2       1 SER1        0.0000 
     92 OG          6.3114   65.7809   45.1861 O.2       1 SER1        0.0000 
     93 N           5.7991   65.0889   46.4144 N.2       2 ALA2        0.0000 
     94 CA          5.2868   64.3969   47.6427 C.3       5 GLY6        0.0000 
     95 OG          5.9274   67.3635   42.2539 O.2       1 SER1        0.0000 
     96 OG          5.4151   66.6715   43.4822 O.2       1 SER1        0.0000 
     97 OG          4.3905   65.2876   45.9388 O.2       1 SER1        0.0000 
     98 O           3.8782   64.5956   47.1671 O.2       2 ALA2        0.0000 
     99 O           2.4695   64.7943   46.6915 O.2       2 ALA2        0.0000 
    100 CA         12.1310   65.9448   42.2103 C.3       5 GLY6        0.0000 
    101 O          11.6187   65.2528   43.4386 O.2       2 ALA2        0.0000 
    102 O          11.1064   64.5608   44.6669 O.2       2 ALA2        0.0000 
    103 O          10.5941   63.8689   45.8952 O.2       2 ALA2        0.0000 
    104 CA         10.0818   63.1769   47.1235 C.3       5 GLY6        0.0000 
    105 CA          9.5695   62.4849   48.3518 C.3       5 GLY6        0.0000 
    106 CA         10.7224   66.1435   41.7347 C.3       5 GLY6        0.0000 
    107 CA         10.2101   65.4515   42.9630 C.3       5 GLY6        0.0000 
    108 DU          9.6978   64.7595   44.1913 H         6 CUB7        0.0000 
    109 CA          9.1855   64.0675   45.4196 C.3       5 GLY6        0.0000 
    110 CA          8.6732   63.3756   46.6479 C.3       5 GLY6        0.0000 
    111 O           9.3137   66.3422   41.2591 O.2       2 ALA2        0.0000 
    112 CA          8.8014   65.6502   42.4874 C.3       5 GLY6        0.0000 
    113 NZ          8.2891   64.9582   43.7157 N.2       3 LYS4        0.0000 
    114 NZ          7.7768   64.2662   44.9440 N.2       3 LYS4        0.0000 
    115 CA          7.2645   63.5743   46.1723 C.3       5 GLY6        0.0000 
    116 NZ          7.3927   65.8489   42.0118 N.2       3 LYS4        0.0000 
    117 NZ          6.8804   65.1569   43.2401 N.2       3 LYS4        0.0000 
    118 NZ          6.3681   64.4649   44.4684 N.2       3 LYS4        0.0000 
    119 NZ          4.9595   64.6636   43.9928 N.2       3 LYS4        0.0000 
    120 N           4.4472   63.9716   45.2211 N.2       2 ALA2        0.0000 
    121 CA          3.0385   64.1703   44.7455 C.3       5 GLY6        0.0000 
    122 O           3.5947   71.1753   50.7556 O.2       2 ALA2        0.0000 
    123 N           6.4687   69.4619   50.9891 N.2       2 ALA2        0.0000 
    124 CA          5.9564   68.7700   52.2174 C.3       5 GLY6        0.0000 
    125 DU          5.5723   70.3526   49.2852 H         6 CUB7        0.0000 
    126 DU          5.0600   69.6606   50.5135 H         6 CUB7        0.0000 
    127 CA          4.5477   68.9687   51.7418 C.3       5 GLY6        0.0000 
    128 O           5.1883   71.9353   46.3530 O.2       2 ALA2        0.0000 
    129 O           4.6760   71.2433   47.5813 O.2       2 ALA2        0.0000 
    130 O           4.1637   70.5513   48.8096 O.2       2 ALA2        0.0000 
    131 O           3.2673   71.4420   47.1058 O.2       2 ALA2        0.0000 
    132 O           2.7550   70.7500   48.3341 O.2       2 ALA2        0.0000 
    133 CA          9.7545   63.4436   43.4736 C.3       5 GLY6        0.0000 
    134 CA          9.2422   62.7516   44.7019 C.3       5 GLY6        0.0000 
    135 CA          8.8581   64.3343   41.7697 C.3       5 GLY6        0.0000 
    136 NZ          8.3458   63.6423   42.9980 N.2       3 LYS4        0.0000 
@<TRIPOS>BOND
@<TRIPOS>SUBSTRUCTURE
     1 SER1       11 GROUP   
     2 ALA2        2 GROUP   
     3 LYS4       18 GROUP   
     4 PHE5        1 GROUP   
     5 GLY6       10 GROUP   
     6 CUB7        3 GROUP   
@<TRIPOS>SET

