#    Name: 1i5e_U5P_1_INTS_M
#    Modification time : Tue Mar 25 06:41:49 2014

@<TRIPOS>MOLECULE
1i5e_U5P_1_INTS_M
   48     0     9     0     0
SMALL
NO_CHARGES


@<TRIPOS>ATOM
      1 O          11.7585   62.6060   48.6515 O.2       1 ALC1        0.0000 
      2 O          10.4390   63.1840   48.4250 O.2       7 ALL1        0.0000 
      3 O          13.0780   62.0280   48.8780 O.2       4 ALP1        0.0000 
      4 CA          8.8735   63.9510   51.3355 C.3       3 GLC5        0.0000 
      5 CA          8.2830   63.7660   49.3370 C.3       9 GLL5        0.0000 
      6 CA          9.4640   64.1360   53.3340 C.3       6 GLP5        0.0000 
      7 CA          7.5200   62.0175   50.4665 C.3       3 GLC5        0.0000 
      8 CA          6.7570   60.2690   51.5960 C.3       6 GLP5        0.0000 
      9 N          12.2520   63.1795   45.8935 N.am      2 SEC2        0.0000 
     10 N          10.9530   63.8280   46.2060 N.am      8 SEL2        0.0000 
     11 N          13.5510   62.5310   45.5810 N.am      5 SEP2        0.0000 
     12 N           9.3360   62.2015   51.8250 N.am      2 SEC2        0.0000 
     13 N           9.8960   62.5970   50.5410 N.am      8 SEL2        0.0000 
     14 N           8.7760   61.8060   53.1090 N.am      5 SEP2        0.0000 
     15 O           7.3205   62.6750   43.2550 O.2       1 ALC1        0.0000 
     16 O           8.0660   63.4040   44.1310 O.2       7 ALL1        0.0000 
     17 O           6.5750   61.9460   42.3790 O.2       4 ALP1        0.0000 
     18 CA          4.3845   66.0855   43.9920 C.3       3 GLC5        0.0000 
     19 CA          6.4190   65.2810   44.4640 C.3       9 GLL5        0.0000 
     20 CA          2.3500   66.8900   43.5200 C.3       6 GLP5        0.0000 
     21 O           6.1015   64.5355   42.3095 O.2       1 ALC1        0.0000 
     22 O           6.8600   65.5260   43.0830 O.2       7 ALL1        0.0000 
     23 O           5.3430   63.5450   41.5360 O.2       4 ALP1        0.0000 
     24 CA          3.9615   66.8955   44.8780 C.3       3 GLC5        0.0000 
     25 CA          5.5730   66.9010   46.2360 C.3       9 GLL5        0.0000 
     26 N           1.6090   67.2160   45.9920 N.am      2 SEC2        0.0000 
     27 N           2.6860   67.1000   46.9120 N.am      8 SEL2        0.0000 
     28 N           0.5320   67.3320   45.0720 N.am      5 SEP2        0.0000 
     29 N           2.9020   67.3695   45.6730 N.am      2 SEC2        0.0000 
     30 N           3.1180   67.6390   44.4340 N.am      5 SEP2        0.0000 
     31 N           3.1805   63.4500   48.3420 N.am      2 SEC2        0.0000 
     32 N           2.8340   64.7900   47.8750 N.am      8 SEL2        0.0000 
     33 N           3.5270   62.1100   48.8090 N.am      5 SEP2        0.0000 
     34 N           2.5110   64.6225   49.2185 N.am      2 SEC2        0.0000 
     35 N           2.1880   64.4550   50.5620 N.am      5 SEP2        0.0000 
     36 N           1.4740   64.5750   48.4350 N.am      2 SEC2        0.0000 
     37 N           0.1140   64.3600   48.9950 N.am      5 SEP2        0.0000 
     38 N           3.1675   65.5480   49.7440 N.am      2 SEC2        0.0000 
     39 N           4.1470   66.6410   48.9260 N.am      8 SEL2        0.0000 
     40 N           2.7230   66.8790   49.3965 N.am      2 SEC2        0.0000 
     41 N           1.2990   67.1170   49.8670 N.am      5 SEP2        0.0000 
     42 CA          7.9030   62.4123   47.6928 C.3       3 GLC5        0.0000 
     43 CA          8.0170   64.3530   48.1240 C.3       9 GLL5        0.0000 
     44 CA          7.6560   60.7650   46.6550 C.3       6 GLP5        0.0000 
     45 CA          6.4700   63.8637   49.4597 C.3       3 GLC5        0.0000 
     46 CA          4.7900   63.6680   50.1890 C.3       6 GLP5        0.0000 
     47 CA          7.8002   62.7000   46.0405 C.3       3 GLC5        0.0000 
     48 CA          8.4530   65.0500   45.8200 C.3       9 GLL5        0.0000 
@<TRIPOS>BOND
@<TRIPOS>SUBSTRUCTURE
     1 ALC1        1 GROUP        1 X    ALC  0     ROOT ALC X 1
     2 SEC2        9 GROUP        1 X    SEC  0     **** SEC X 2
     3 GLC5        4 GROUP        1 X    GLC  0     **** GLC X 6
     4 ALP1        3 GROUP        1 Y    ALP  0     ROOT ALP Y 8
     5 SEP2       11 GROUP        1 Y    SEP  0     **** SEP Y 9
     6 GLP5        6 GROUP        1 Y    GLP  0     **** GLP Y 13
     7 ALL1        2 GROUP        1 Z    ALL  0     ROOT ALL Z 15
     8 SEL2       10 GROUP        1 Z    SEL  0     **** SEL Z 16
     9 GLL5        5 GROUP        1 Z    GLL  0     **** GLL Z 20
@<TRIPOS>SET

