#    Name: 1i5e_U5P_1_ligand
#    Modification time : Tue Mar 25 06:41:49 2014

@<TRIPOS>MOLECULE
1i5e_U5P_1_ligand
   32    33     1     0     0
SMALL
NO_CHARGES


@<TRIPOS>ATOM
      1 N1          8.8350   64.3790   47.1420 N.am      1 U5P250      0.0000 
      2 C2         10.1000   63.8010   47.2250 C.2       1 U5P250      0.0000 
      3 N3         10.4390   63.1840   48.4250 N.am      1 U5P250      0.0000 
      4 C4          9.5620   63.1510   49.4880 C.2       1 U5P250      0.0000 
      5 C5          8.2830   63.7660   49.3370 C.2       1 U5P250      0.0000 
      6 C6          8.0170   64.3530   48.1240 C.2       1 U5P250      0.0000 
      7 O2         10.9530   63.8280   46.2060 O.2       1 U5P250      0.0000 
      8 O4          9.8960   62.5970   50.5410 O.2       1 U5P250      0.0000 
      9 C1'         8.4530   65.0500   45.8200 C.3       1 U5P250      0.0000 
     10 C2'         7.4360   64.2200   45.0320 C.3       1 U5P250      0.0000 
     11 O2'         8.0660   63.4040   44.1310 O.3       1 U5P250      0.0000 
     12 C3'         6.4190   65.2810   44.4640 C.3       1 U5P250      0.0000 
     13 C4'         6.6290   66.4940   45.3060 C.3       1 U5P250      0.0000 
     14 O3'         6.8600   65.5260   43.0830 O.3       1 U5P250      0.0000 
     15 O4'         7.8750   66.3350   46.1150 O.3       1 U5P250      0.0000 
     16 C5'         5.5730   66.9010   46.2360 C.3       1 U5P250      0.0000 
     17 O5'         4.7410   65.7970   46.6590 O.3       1 U5P250      0.0000 
     18 P           3.5600   66.0960   47.6430 P.3       1 U5P250      0.0000 
     19 O1P         2.6860   67.1000   46.9120 O.co2     1 U5P250      0.0000 
     20 O2P         2.8340   64.7900   47.8750 O.co2     1 U5P250      0.0000 
     21 O3P         4.1470   66.6410   48.9260 O.co2     1 U5P250      0.0000 
     22 H          11.3749   62.7400   48.5164 H         1 U5P250      0.0000 
     23 H           7.6273   63.7563   50.0960 H         1 U5P250      0.0000 
     24 H           7.0439   64.8114   48.0329 H         1 U5P250      0.0000 
     25 H           9.3413   65.1621   45.2243 H         1 U5P250      0.0000 
     26 H           6.8684   63.6650   45.8040 H         1 U5P250      0.0000 
     27 H           5.4738   64.8986   44.5379 H         1 U5P250      0.0000 
     28 H           6.8387   67.3575   44.6217 H         1 U5P250      0.0000 
     29 H           4.9465   67.6871   45.7570 H         1 U5P250      0.0000 
     30 H           6.0352   67.3901   47.1232 H         1 U5P250      0.0000 
     31 H           7.3307   63.0152   43.5758 H         1 U5P250      0.0000 
     32 H           6.3738   64.8478   42.5320 H         1 U5P250      0.0000 
@<TRIPOS>BOND
     1    2    1 1    
     2    6    1 1    
     3    9    1 1    
     4    3    2 1    
     5    7    2 2    
     6    4    3 1    
     7   22    3 1    
     8    5    4 1    
     9    8    4 2    
    10    6    5 2    
    11   23    5 1    
    12   24    6 1    
    13   10    9 1    
    14   15    9 1    
    15   25    9 1    
    16   11   10 1    
    17   12   10 1    
    18   26   10 1    
    19   31   11 1    
    20   13   12 1    
    21   14   12 1    
    22   27   12 1    
    23   15   13 1    
    24   16   13 1    
    25   28   13 1    
    26   32   14 1    
    27   17   16 1    
    28   29   16 1    
    29   30   16 1    
    30   18   17 1    
    31   19   18 ar   
    32   20   18 ar   
    33   21   18 ar   
@<TRIPOS>SUBSTRUCTURE
     1 U5P250      1 GROUP   
@<TRIPOS>SET

