#    Name: 2cmj_NAP_1_INTS_M
#    Modification time : Tue Mar 25 01:07:16 2014

@<TRIPOS>MOLECULE
2cmj_NAP_1_INTS_M
   88     0    12     0     0
SMALL
NO_CHARGES


@<TRIPOS>ATOM
      1 N         -14.5285    6.7530   26.3995 N.am      2 SEC2        0.0000 
      2 N         -15.1120    6.7870   27.6680 N.am     10 SEL2        0.0000 
      3 N         -13.9450    6.7190   25.1310 N.am      6 SEP2        0.0000 
      4 N         -12.8755    9.6470   27.6245 N.am      2 SEC2        0.0000 
      5 N         -14.1130    9.0110   27.5710 N.am     10 SEL2        0.0000 
      6 N         -11.6380   10.2830   27.6780 N.am      6 SEP2        0.0000 
      7 CA        -18.0240    7.5635   30.3980 C.3       4 GLC5        0.0000 
      8 CA        -15.9800    7.7970   30.6610 C.3      12 GLL5        0.0000 
      9 CA        -20.0680    7.3300   30.1350 C.3       8 GLP5        0.0000 
     10 N         -16.3245    5.2615   31.8500 N.am      2 SEC2        0.0000 
     11 N         -15.0880    5.8240   31.6790 N.am     10 SEL2        0.0000 
     12 N         -17.5610    4.6990   32.0210 N.am      6 SEP2        0.0000 
     13 N         -15.9760    6.2845   34.7125 N.am      2 SEC2        0.0000 
     14 N         -14.2880    6.3310   34.3730 N.am     10 SEL2        0.0000 
     15 N         -17.6640    6.2380   35.0520 N.am      6 SEP2        0.0000 
     16 N         -14.7915    5.0535   35.3415 N.am      2 SEC2        0.0000 
     17 N         -15.2950    3.7760   36.3100 N.am      6 SEP2        0.0000 
     18 CA        -14.8870    4.2380   30.7880 C.3       4 GLC5        0.0000 
     19 CA        -13.8690    5.4390   32.3090 C.3      12 GLL5        0.0000 
     20 CA        -15.9050    3.0370   29.2670 C.3       8 GLP5        0.0000 
     21 CA        -11.1505    4.4205   28.2215 C.3       4 GLC5        0.0000 
     22 CA        -10.8070    4.7230   30.3960 C.3      12 GLL5        0.0000 
     23 CA        -11.4940    4.1180   26.0470 C.3       8 GLP5        0.0000 
     24 CA         -9.4415    2.3650   29.6385 C.3       4 GLC5        0.0000 
     25 CA         -9.4640    4.3530   30.4040 C.3      12 GLL5        0.0000 
     26 CA         -9.4190    0.3770   28.8730 C.3       8 GLP5        0.0000 
     27 CA         -8.1265    5.7280   30.5370 C.3       4 GLC5        0.0000 
     28 CA         -6.7890    7.1030   30.6700 C.3       8 GLP5        0.0000 
     29 CA         -7.9760    3.0510   30.8285 C.3       4 GLC5        0.0000 
     30 CA         -6.4880    1.7490   31.2530 C.3       8 GLP5        0.0000 
     31 O          -7.4325    3.8070   29.0350 O.2       1 ALC1        0.0000 
     32 O          -8.7740    4.2420   29.2760 O.2       9 ALL1        0.0000 
     33 O          -6.0910    3.3720   28.7940 O.2       5 ALP1        0.0000 
     34 N          -7.2990    4.0805   31.6660 N.am      2 SEC2        0.0000 
     35 N          -8.8300    4.1090   31.6170 N.am     10 SEL2        0.0000 
     36 N          -5.7680    4.0520   31.7150 N.am      6 SEP2        0.0000 
     37 CA         -8.0020    2.9820   32.0365 C.3       4 GLC5        0.0000 
     38 CA         -9.5160    4.2150   32.8200 C.3      12 GLL5        0.0000 
     39 CA         -9.3290    2.7295   34.2200 C.3       4 GLC5        0.0000 
     40 CA         -9.1420    1.2440   35.6200 C.3       8 GLP5        0.0000 
     41 CA        -11.0510    6.7705   31.3120 C.3       4 GLC5        0.0000 
     42 CA        -11.4870    4.8310   31.6190 C.3      12 GLL5        0.0000 
     43 CA        -10.6150    8.7100   31.0050 C.3       8 GLP5        0.0000 
     44 CA        -14.7410   13.1625   28.1570 C.3       4 GLC5        0.0000 
     45 CA        -15.6850   11.8450   26.9170 C.3      12 GLL5        0.0000 
     46 CA        -13.7970   14.4800   29.3970 C.3       8 GLP5        0.0000 
     47 CA        -13.3855   12.2970   25.1715 C.3       4 GLC5        0.0000 
     48 CA        -15.4480   12.3560   25.5000 C.3      12 GLL5        0.0000 
     49 CA        -11.3230   12.2380   24.8430 C.3       8 GLP5        0.0000 
     50 N         -13.7400   10.6260   24.9075 N.am      2 SEC2        0.0000 
     51 N         -15.1360   11.2450   24.6780 N.am     10 SEL2        0.0000 
     52 N         -12.3440   10.0070   25.1370 N.am      6 SEP2        0.0000 
     53 N         -15.7870   15.2590   25.1580 N.am      2 SEC2        0.0000 
     54 N         -16.3920   14.2440   24.3360 N.am     10 SEL2        0.0000 
     55 N         -15.1820   16.2740   25.9800 N.am      6 SEP2        0.0000 
     56 CA        -19.1345   11.6795   24.7875 C.3       4 GLC5        0.0000 
     57 CA        -17.2140   11.9640   23.9270 C.3      12 GLL5        0.0000 
     58 CA        -21.0550   11.3950   25.6480 C.3       8 GLP5        0.0000 
     59 N         -17.3065   13.5015   21.6045 N.am      2 SEC2        0.0000 
     60 N         -17.8090   12.5530   22.8030 N.am     10 SEL2        0.0000 
     61 N         -16.8040   14.4500   20.4060 N.am      6 SEP2        0.0000 
     62 CA        -15.2305   12.9985   22.3460 C.3       4 GLC5        0.0000 
     63 CA        -15.9520   11.2320   23.5210 C.3      12 GLL5        0.0000 
     64 CA        -14.5090   14.7650   21.1710 C.3       8 GLP5        0.0000 
     65 CA        -14.8360    9.6615   24.1200 C.3       4 GLC5        0.0000 
     66 CA        -13.7200    8.0910   24.7190 C.3       8 GLP5        0.0000 
     67 CA        -13.8360   11.7345   23.4440 C.3       4 GLC5        0.0000 
     68 CA        -11.7200   12.2370   23.3670 C.3       8 GLP5        0.0000 
     69 O         -14.1210   10.3350   20.2695 O.2       1 ALC1        0.0000 
     70 O         -13.9400    8.6650   19.7790 O.2       9 ALL1        0.0000 
     71 O         -14.3020   12.0050   20.7600 O.2       5 ALP1        0.0000 
     72 NZ        -15.1295    5.0920   36.5540 N.4       3 LYC4        0.0000 
     73 NZ        -14.9640    6.4080   36.7980 N.4      11 LYL4        0.0000 
     74 NZ        -15.2950    3.7760   36.3100 N.4       7 LYP4        0.0000 
     75 N         -16.3140    6.3230   35.9250 N.am      2 SEC2        0.0000 
     76 N         -14.9640    6.4080   36.7980 N.am     10 SEL2        0.0000 
     77 N         -15.1295    5.0920   36.5540 N.am      2 SEC2        0.0000 
     78 N         -11.4925    7.4935   35.5950 N.am      2 SEC2        0.0000 
     79 N         -12.6130    6.8410   36.2030 N.am     10 SEL2        0.0000 
     80 N         -10.3720    8.1460   34.9870 N.am      6 SEP2        0.0000 
     81 CA        -12.2075    7.9460   31.9115 C.3       4 GLC5        0.0000 
     82 CA        -13.5260    6.5990   33.2190 C.3      12 GLL5        0.0000 
     83 CA        -10.0422    6.3765   29.5225 C.3       4 GLC5        0.0000 
     84 CA         -9.9490    8.2150   28.6450 C.3       8 GLP5        0.0000 
     85 CA        -14.5750    8.4270   23.2617 C.3       4 GLC5        0.0000 
     86 CA        -15.4160    9.4230   22.0180 C.3      12 GLL5        0.0000 
     87 CA        -15.1886    8.1099   24.0560 C.3       4 GLC5        0.0000 
     88 CA        -16.1760    7.1610   22.3280 C.3      12 GLL5        0.0000 
@<TRIPOS>BOND
@<TRIPOS>SUBSTRUCTURE
     1 ALC1       31 GROUP        1 X    ALC  0     ROOT ALC X 1
     2 SEC2        1 GROUP        1 X    SEC  0     **** SEC X 2
     3 LYC4       72 GROUP        1 X    LYC  0     **** LYC X 4
     4 GLC5        7 GROUP        1 X    GLC  0     **** GLC X 6
     5 ALP1       33 GROUP        1 Y    ALP  0     ROOT ALP Y 8
     6 SEP2        3 GROUP        1 Y    SEP  0     **** SEP Y 9
     7 LYP4       74 GROUP        1 Y    LYP  0     **** LYP Y 11
     8 GLP5        9 GROUP        1 Y    GLP  0     **** GLP Y 13
     9 ALL1       32 GROUP        1 Z    ALL  0     ROOT ALL Z 15
    10 SEL2        2 GROUP        1 Z    SEL  0     **** SEL Z 16
    11 LYL4       73 GROUP        1 Z    LYL  0     **** LYL Z 18
    12 GLL5        8 GROUP        1 Z    GLL  0     **** GLL Z 20
@<TRIPOS>SET

