#    Name: 2cmj_NAP_1_ligand
#    Modification time : Tue Mar 25 01:07:17 2014

@<TRIPOS>MOLECULE
2cmj_NAP_1_ligand
   73    77     1     0     0
SMALL
NO_CHARGES


@<TRIPOS>ATOM
      1 PA        -15.1650    8.1790   28.1810 P.3       1 NAP1414     0.0000 
      2 O1A       -15.1120    6.7870   27.6680 O.co2     1 NAP1414     0.0000 
      3 O2A       -14.1130    9.0110   27.5710 O.co2     1 NAP1414     0.0000 
      4 O5B       -14.9400    8.1520   29.7780 O.3       1 NAP1414     0.0000 
      5 C5B       -15.9800    7.7970   30.6610 C.3       1 NAP1414     0.0000 
      6 C4B       -15.3930    7.1780   31.9180 C.3       1 NAP1414     0.0000 
      7 O4B       -15.0880    5.8240   31.6790 O.3       1 NAP1414     0.0000 
      8 C3B       -14.0740    7.7650   32.4170 C.3       1 NAP1414     0.0000 
      9 O3B       -14.3050    8.9130   33.1750 O.3       1 NAP1414     0.0000 
     10 C2B       -13.5260    6.5990   33.2190 C.3       1 NAP1414     0.0000 
     11 O2B       -14.2880    6.3310   34.3730 O.3       1 NAP1414     0.0000 
     12 C1B       -13.8690    5.4390   32.3090 C.3       1 NAP1414     0.0000 
     13 N9A       -12.7810    5.2130   31.3250 N.pl3     1 NAP1414     0.0000 
     14 C8A       -12.8790    5.3180   29.9500 C.2       1 NAP1414     0.0000 
     15 N7A       -11.6830    5.0170   29.4020 N.2       1 NAP1414     0.0000 
     16 C5A       -10.8070    4.7230   30.3960 C.ar      1 NAP1414     0.0000 
     17 C6A        -9.4640    4.3530   30.4040 C.ar      1 NAP1414     0.0000 
     18 N6A        -8.7740    4.2420   29.2760 N.pl3     1 NAP1414     0.0000 
     19 N1A        -8.8300    4.1090   31.6170 N.ar      1 NAP1414     0.0000 
     20 C2A        -9.5160    4.2150   32.8200 C.ar      1 NAP1414     0.0000 
     21 N3A       -10.8510    4.5740   32.8030 N.ar      1 NAP1414     0.0000 
     22 C4A       -11.4870    4.8310   31.6190 C.ar      1 NAP1414     0.0000 
     23 O3        -16.6650    8.7640   28.0290 O.3       1 NAP1414     0.0000 
     24 PN        -17.2760   10.2420   28.2590 P.3       1 NAP1414     0.0000 
     25 O1N       -18.7570   10.0740   28.2240 O.co2     1 NAP1414     0.0000 
     26 O2N       -16.6420   10.9010   29.4340 O.co2     1 NAP1414     0.0000 
     27 O5D       -16.8350   11.0060   26.9290 O.3       1 NAP1414     0.0000 
     28 C5D       -15.6850   11.8450   26.9170 C.3       1 NAP1414     0.0000 
     29 C4D       -15.4480   12.3560   25.5000 C.3       1 NAP1414     0.0000 
     30 O4D       -15.1360   11.2450   24.6780 O.3       1 NAP1414     0.0000 
     31 C3D       -16.7030   12.9870   24.9310 C.3       1 NAP1414     0.0000 
     32 O3D       -16.3920   14.2440   24.3360 O.3       1 NAP1414     0.0000 
     33 C2D       -17.2140   11.9640   23.9270 C.3       1 NAP1414     0.0000 
     34 O2D       -17.8090   12.5530   22.8030 O.3       1 NAP1414     0.0000 
     35 C1D       -15.9520   11.2320   23.5210 C.3       1 NAP1414     0.0000 
     36 N1N       -16.1050    9.8200   23.1290 N.pl3     1 NAP1414     0.0000 
     37 C2N       -15.4160    9.4230   22.0180 C.ar      1 NAP1414     0.0000 
     38 C3N       -15.4440    8.1030   21.5910 C.ar      1 NAP1414     0.0000 
     39 C7N       -14.5790    7.7100   20.4350 C.2       1 NAP1414     0.0000 
     40 O7N       -14.4720    6.3480   20.0910 O.2       1 NAP1414     0.0000 
     41 N7N       -13.9400    8.6650   19.7790 N.am      1 NAP1414     0.0000 
     42 C4N       -16.1760    7.1610   22.3280 C.ar      1 NAP1414     0.0000 
     43 C5N       -16.8470    7.5560   23.4840 C.ar      1 NAP1414     0.0000 
     44 C6N       -16.8030    8.8990   23.8800 C.ar      1 NAP1414     0.0000 
     45 P2B       -14.0480    7.0510   35.7990 P.3       1 NAP1414     0.0000 
     46 O1X       -14.9640    6.4080   36.7980 O.co2     1 NAP1414     0.0000 
     47 O2X       -12.6130    6.8410   36.2030 O.co2     1 NAP1414     0.0000 
     48 O3X       -14.3250    8.5190   35.6360 O.co2     1 NAP1414     0.0000 
     49 H         -16.6667    7.0630   30.2170 H         1 NAP1414     0.0000 
     50 H         -16.5786    8.6667   30.9656 H         1 NAP1414     0.0000 
     51 H         -16.1132    7.2496   32.7275 H         1 NAP1414     0.0000 
     52 H         -13.4525    7.9006   31.5645 H         1 NAP1414     0.0000 
     53 H         -12.5205    6.6548   33.3332 H         1 NAP1414     0.0000 
     54 H         -14.0103    4.5727   32.9227 H         1 NAP1414     0.0000 
     55 H         -13.6798    5.5670   29.4776 H         1 NAP1414     0.0000 
     56 H          -9.2807    4.4148   28.4314 H         1 NAP1414     0.0000 
     57 H          -7.8097    3.9955   29.3725 H         1 NAP1414     0.0000 
     58 H          -9.0372    4.0293   33.7054 H         1 NAP1414     0.0000 
     59 H         -14.7846   11.3081   27.2342 H         1 NAP1414     0.0000 
     60 H         -15.8077   12.7153   27.5705 H         1 NAP1414     0.0000 
     61 H         -14.6655   13.0731   25.5095 H         1 NAP1414     0.0000 
     62 H         -17.4171   13.0619   25.7249 H         1 NAP1414     0.0000 
     63 H         -17.8366   11.2730   24.4444 H         1 NAP1414     0.0000 
     64 H         -15.4647   11.7915   22.7373 H         1 NAP1414     0.0000 
     65 H         -14.8583   10.1148   21.4767 H         1 NAP1414     0.0000 
     66 H         -14.1272    9.6021   20.0735 H         1 NAP1414     0.0000 
     67 H         -13.3278    8.3630   19.0482 H         1 NAP1414     0.0000 
     68 H         -16.2151    6.1866   22.0146 H         1 NAP1414     0.0000 
     69 H         -17.3673    6.8745   24.0399 H         1 NAP1414     0.0000 
     70 H         -17.2968    9.1888   24.7360 H         1 NAP1414     0.0000 
     71 H         -14.7394    8.5858   34.0142 H         1 NAP1414     0.0000 
     72 H         -16.8765   14.2430   23.4612 H         1 NAP1414     0.0000 
     73 H         -17.8461   11.8249   22.1186 H         1 NAP1414     0.0000 
@<TRIPOS>BOND
     1    2    1 ar   
     2    3    1 ar   
     3    4    1 1    
     4   23    1 1    
     5    5    4 1    
     6    6    5 1    
     7   49    5 1    
     8   50    5 1    
     9    7    6 1    
    10    8    6 1    
    11   51    6 1    
    12   12    7 1    
    13    9    8 1    
    14   10    8 1    
    15   52    8 1    
    16   71    9 1    
    17   11   10 1    
    18   12   10 1    
    19   53   10 1    
    20   45   11 1    
    21   13   12 1    
    22   54   12 1    
    23   14   13 1    
    24   22   13 1    
    25   15   14 2    
    26   55   14 1    
    27   16   15 1    
    28   17   16 ar   
    29   22   16 ar   
    30   18   17 1    
    31   19   17 ar   
    32   56   18 1    
    33   57   18 1    
    34   20   19 ar   
    35   21   20 ar   
    36   58   20 1    
    37   22   21 ar   
    38   24   23 1    
    39   25   24 ar   
    40   26   24 ar   
    41   27   24 1    
    42   28   27 1    
    43   29   28 1    
    44   59   28 1    
    45   60   28 1    
    46   30   29 1    
    47   31   29 1    
    48   61   29 1    
    49   35   30 1    
    50   32   31 1    
    51   33   31 1    
    52   62   31 1    
    53   72   32 1    
    54   34   33 1    
    55   35   33 1    
    56   63   33 1    
    57   73   34 1    
    58   36   35 1    
    59   64   35 1    
    60   37   36 ar   
    61   44   36 ar   
    62   38   37 ar   
    63   65   37 1    
    64   39   38 1    
    65   42   38 ar   
    66   40   39 2    
    67   41   39 am   
    68   66   41 1    
    69   67   41 1    
    70   43   42 ar   
    71   68   42 1    
    72   44   43 ar   
    73   69   43 1    
    74   70   44 1    
    75   46   45 ar   
    76   47   45 ar   
    77   48   45 ar   
@<TRIPOS>SUBSTRUCTURE
     1 NAP1414     1 GROUP   
@<TRIPOS>SET

