#    Name: 2qcu_FAD_4_INTS_M
#    Modification time : Mon Mar 24 21:45:43 2014

@<TRIPOS>MOLECULE
2qcu_FAD_4_INTS_M
  131     0     9     0     0
SMALL
NO_CHARGES


@<TRIPOS>ATOM
      1 N          22.1880   24.4765   26.8740 N.am      2 SEC2        0.0000 
      2 N          21.1930   23.4410   26.6330 N.am      8 SEL2        0.0000 
      3 N          23.1830   25.5120   27.1150 N.am      5 SEP2        0.0000 
      4 N          22.2410   23.4845   25.8325 N.am      2 SEC2        0.0000 
      5 N          23.2890   23.5280   25.0320 N.am      5 SEP2        0.0000 
      6 N          20.5655   24.3380   28.9575 N.am      2 SEC2        0.0000 
      7 N          19.8600   22.9680   28.7650 N.am      8 SEL2        0.0000 
      8 N          21.2710   25.7080   29.1500 N.am      5 SEP2        0.0000 
      9 N          20.7635   23.2455   29.7465 N.am      2 SEC2        0.0000 
     10 N          21.6670   23.5230   30.7280 N.am      5 SEP2        0.0000 
     11 CA         18.9730   22.3585   24.9895 C.3       3 GLC5        0.0000 
     12 CA         17.7720   21.7990   26.7970 C.3       9 GLL5        0.0000 
     13 CA         20.1740   22.9180   23.1820 C.3       6 GLP5        0.0000 
     14 CA         18.3370   20.4440   28.1715 C.3       3 GLC5        0.0000 
     15 CA         18.9020   19.0890   29.5460 C.3       6 GLP5        0.0000 
     16 CA         15.8045   21.3730   24.6505 C.3       3 GLC5        0.0000 
     17 CA         16.6700   22.5170   26.0320 C.3       9 GLL5        0.0000 
     18 CA         14.9390   20.2290   23.2690 C.3       6 GLP5        0.0000 
     19 CA         16.1815   26.1730   26.4505 C.3       3 GLC5        0.0000 
     20 CA         16.4750   23.9600   26.5240 C.3       9 GLL5        0.0000 
     21 CA         15.8880   28.3860   26.3770 C.3       6 GLP5        0.0000 
     22 CA         17.5085   25.0685   27.8550 C.3       3 GLC5        0.0000 
     23 CA         18.5420   26.1770   29.1860 C.3       6 GLP5        0.0000 
     24 O          16.0185   24.7045   24.4165 O.2       1 ALC1        0.0000 
     25 O          16.7740   24.9130   25.4890 O.2       7 ALL1        0.0000 
     26 O          15.2630   24.4960   23.3440 O.2       4 ALP1        0.0000 
     27 O          14.1910   25.6505   25.4670 O.2       1 ALC1        0.0000 
     28 O          14.3190   25.1620   26.7220 O.2       7 ALL1        0.0000 
     29 O          14.0630   26.1390   24.2120 O.2       4 ALP1        0.0000 
     30 CA         14.6780   21.5010   24.7245 C.3       3 GLC5        0.0000 
     31 CA         14.4170   22.7730   26.1800 C.3       9 GLL5        0.0000 
     32 CA          8.3345   22.2440   26.7770 C.3       3 GLC5        0.0000 
     33 CA          9.9330   20.9820   26.5660 C.3       9 GLL5        0.0000 
     34 CA          6.7360   23.5060   26.9880 C.3       6 GLP5        0.0000 
     35 CA          8.5035   19.8980   25.3195 C.3       3 GLC5        0.0000 
     36 CA          7.0740   18.8140   24.0730 C.3       6 GLP5        0.0000 
     37 O           7.5275   20.3035   27.0900 O.2       1 ALC1        0.0000 
     38 O           8.9900   20.5970   27.4210 O.2       7 ALL1        0.0000 
     39 O           6.0650   20.0100   26.7590 O.2       4 ALP1        0.0000 
     40 N           8.1960   21.2675   24.8450 N.am      2 SEC2        0.0000 
     41 N           9.6070   21.2660   25.2640 N.am      8 SEL2        0.0000 
     42 N           6.7850   21.2690   24.4260 N.am      5 SEP2        0.0000 
     43 CA         10.6615   19.9965   24.3175 C.3       3 GLC5        0.0000 
     44 CA         10.4860   21.8180   24.3630 C.3       9 GLL5        0.0000 
     45 CA         10.8370   18.1750   24.2720 C.3       6 GLP5        0.0000 
     46 CA         11.4045   22.9910   22.9425 C.3       3 GLC5        0.0000 
     47 CA         12.3230   24.1640   21.5220 C.3       6 GLP5        0.0000 
     48 CA         10.3820   23.5125   25.0640 C.3       3 GLC5        0.0000 
     49 CA         10.2780   25.2070   25.7650 C.3       6 GLP5        0.0000 
     50 CA          8.6505   22.7740   24.4255 C.3       3 GLC5        0.0000 
     51 CA          6.8150   23.7300   24.4880 C.3       6 GLP5        0.0000 
     52 N          11.4820   23.5405   24.1755 N.am      2 SEC2        0.0000 
     53 N          11.7340   22.1530   24.8120 N.am      8 SEL2        0.0000 
     54 N          11.2300   24.9280   23.5390 N.am      5 SEP2        0.0000 
     55 CA         13.4955   21.0990   24.6955 C.3       3 GLC5        0.0000 
     56 CA         12.0520   21.9690   26.1220 C.3       9 GLL5        0.0000 
     57 N          29.9750   21.0305   26.9845 N.am      2 SEC2        0.0000 
     58 N          30.7360   21.8710   28.1310 N.am      8 SEL2        0.0000 
     59 N          29.2140   20.1900   25.8380 N.am      5 SEP2        0.0000 
     60 N          31.7910   20.4320   25.3345 N.am      2 SEC2        0.0000 
     61 N          32.1540   21.1280   26.4980 N.am      8 SEL2        0.0000 
     62 N          31.4280   19.7360   24.1710 N.am      5 SEP2        0.0000 
     63 N          33.1715   20.6855   25.7195 N.am      2 SEC2        0.0000 
     64 N          34.1890   20.2430   24.9410 N.am      5 SEP2        0.0000 
     65 O          33.5605   23.2300   26.4240 O.2       1 ALC1        0.0000 
     66 O          32.6930   23.0380   27.4820 O.2       7 ALL1        0.0000 
     67 O          34.4280   23.4220   25.3660 O.2       4 ALP1        0.0000 
     68 N          33.8210   25.6135   27.1515 N.am      2 SEC2        0.0000 
     69 N          33.2730   24.9590   28.4330 N.am      8 SEL2        0.0000 
     70 N          34.3690   26.2680   25.8700 N.am      5 SEP2        0.0000 
     71 N          31.3960   26.1670   30.0245 N.am      2 SEC2        0.0000 
     72 N          31.3290   24.7470   30.4430 N.am      8 SEL2        0.0000 
     73 N          31.4630   27.5870   29.6060 N.am      5 SEP2        0.0000 
     74 CA         28.4585   26.8595   35.9200 C.3       3 GLC5        0.0000 
     75 CA         28.7830   26.4590   34.1950 C.3       9 GLL5        0.0000 
     76 CA         28.1340   27.2600   37.6450 C.3       6 GLP5        0.0000 
     77 CA         29.8105   27.5295   35.4450 C.3       3 GLC5        0.0000 
     78 CA         30.8380   28.6000   36.6950 C.3       6 GLP5        0.0000 
     79 CA         24.9920   26.4520   33.7050 C.3       3 GLC5        0.0000 
     80 CA         26.4570   24.9980   33.2240 C.3       9 GLL5        0.0000 
     81 CA         23.5270   27.9060   34.1860 C.3       6 GLP5        0.0000 
     82 CA         24.6915   24.7270   34.4300 C.3       3 GLC5        0.0000 
     83 CA         22.9260   24.4560   35.6360 C.3       6 GLP5        0.0000 
     84 CA         27.6890   22.8325   33.1690 C.3       3 GLC5        0.0000 
     85 CA         28.0100   23.7840   31.6210 C.3       9 GLL5        0.0000 
     86 CA         27.3680   21.8810   34.7170 C.3       6 GLP5        0.0000 
     87 CA         29.2015   25.0115   29.5100 C.3       3 GLC5        0.0000 
     88 CA         29.1920   23.7400   30.8980 C.3       9 GLL5        0.0000 
     89 CA         29.2110   26.2830   28.1220 C.3       6 GLP5        0.0000 
     90 CA         28.5775   22.1585   26.5875 C.3       3 GLC5        0.0000 
     91 CA         27.4270   22.0770   28.5110 C.3       9 GLL5        0.0000 
     92 CA         29.7280   22.2400   24.6640 C.3       6 GLP5        0.0000 
     93 O          26.4725   18.9210   28.0995 O.2       1 ALC1        0.0000 
     94 O          26.5060   19.9030   28.9360 O.2       7 ALL1        0.0000 
     95 O          26.4390   17.9390   27.2630 O.2       4 ALP1        0.0000 
     96 O          24.1300   23.1225   26.0630 O.2       1 ALC1        0.0000 
     97 O          24.9710   22.7170   27.0940 O.2       7 ALL1        0.0000 
     98 O          23.2890   23.5280   25.0320 O.2       4 ALP1        0.0000 
     99 CA         23.3820   22.2550   28.8175 C.3       3 GLC5        0.0000 
    100 CA         23.9610   20.6140   27.7030 C.3       9 GLL5        0.0000 
    101 CA         22.8030   23.8960   29.9320 C.3       6 GLP5        0.0000 
    102 N          22.7530   18.1125   26.3045 N.am      2 SEC2        0.0000 
    103 N          21.6960   18.7770   27.0470 N.am      8 SEL2        0.0000 
    104 N          23.8100   17.4480   25.5620 N.am      5 SEP2        0.0000 
    105 N          21.8960   19.7995   23.7285 N.am      2 SEC2        0.0000 
    106 N          21.2780   20.3250   24.9890 N.am      8 SEL2        0.0000 
    107 N          22.5140   19.2740   22.4680 N.am      5 SEP2        0.0000 
    108 CA         16.4360   20.3550   26.9848 C.3       3 GLC5        0.0000 
    109 CA         15.6510   18.5520   27.5550 C.3       6 GLP5        0.0000 
    110 CA         15.8800   23.9698   28.7108 C.3       3 GLC5        0.0000 
    111 CA         16.0190   23.9810   30.6850 C.3       6 GLP5        0.0000 
    112 CA         11.0714   19.8746   25.3666 C.3       3 GLC5        0.0000 
    113 CA         11.1860   21.3770   27.0350 C.3       9 GLL5        0.0000 
    114 CA         10.7919   23.3906   26.1131 C.3       3 GLC5        0.0000 
    115 CA         12.2554   19.8876   26.6846 C.3       3 GLC5        0.0000 
    116 CA         13.2050   18.2010   26.9080 C.3       6 GLP5        0.0000 
    117 CA         29.5918   26.1795   30.5157 C.3       3 GLC5        0.0000 
    118 CA         30.2160   24.6380   31.2260 C.3       9 GLL5        0.0000 
    119 CA         29.0610   27.2640   29.2810 C.3       6 GLP5        0.0000 
    120 CA         27.3798   23.4809   33.8666 C.3       3 GLC5        0.0000 
    121 CA         25.8334   24.0057   31.4956 C.3       3 GLC5        0.0000 
    122 CA         27.8140   24.7160   32.6630 C.3       9 GLL5        0.0000 
    123 CA         24.0940   23.6910   30.7090 C.3       6 GLP5        0.0000 
    124 CA         28.6145   25.8689   30.7479 C.3       3 GLC5        0.0000 
    125 CA         28.1553   19.9552   28.1359 C.3       3 GLC5        0.0000 
    126 CA         26.1380   21.2570   28.6330 C.3       9 GLL5        0.0000 
    127 CA         29.2860   18.3470   27.4160 C.3       6 GLP5        0.0000 
    128 CA         24.8025   20.9507   25.5817 C.3       3 GLC5        0.0000 
    129 CA         25.2590   21.3530   27.3960 C.3       9 GLL5        0.0000 
    130 CA         24.9950   20.9180   23.6140 C.3       6 GLP5        0.0000 
    131 CA         25.0574   22.6005   29.3465 C.3       3 GLC5        0.0000 
@<TRIPOS>BOND
@<TRIPOS>SUBSTRUCTURE
     1 ALC1       24 GROUP        1 X    ALC  0     ROOT ALC X 1
     2 SEC2        1 GROUP        1 X    SEC  0     **** SEC X 2
     3 GLC5       11 GROUP        1 X    GLC  0     **** GLC X 6
     4 ALP1       26 GROUP        1 Y    ALP  0     ROOT ALP Y 8
     5 SEP2        3 GROUP        1 Y    SEP  0     **** SEP Y 9
     6 GLP5       13 GROUP        1 Y    GLP  0     **** GLP Y 13
     7 ALL1       25 GROUP        1 Z    ALL  0     ROOT ALL Z 15
     8 SEL2        2 GROUP        1 Z    SEL  0     **** SEL Z 16
     9 GLL5       12 GROUP        1 Z    GLL  0     **** GLL Z 20
@<TRIPOS>SET

