#    Name: 2qcu_FAD_4_ligand
#    Modification time : Mon Mar 24 21:45:43 2014

@<TRIPOS>MOLECULE
2qcu_FAD_4_ligand
   84    89     1     0     0
SMALL
NO_CHARGES


@<TRIPOS>ATOM
      1 PA         20.2020   22.5590   27.3640 P.3       1 FAD600      0.0000 
      2 O1A        21.1930   23.4410   26.6330 O.co2     1 FAD600      0.0000 
      3 O2A        19.8600   22.9680   28.7650 O.co2     1 FAD600      0.0000 
      4 O5B        18.9720   22.4420   26.3640 O.3       1 FAD600      0.0000 
      5 C5B        17.7720   21.7990   26.7970 C.3       1 FAD600      0.0000 
      6 C4B        16.6700   22.5170   26.0320 C.3       1 FAD600      0.0000 
      7 O4B        15.4470   21.8120   26.2590 O.3       1 FAD600      0.0000 
      8 C3B        16.4750   23.9600   26.5240 C.3       1 FAD600      0.0000 
      9 O3B        16.7740   24.9130   25.4890 O.3       1 FAD600      0.0000 
     10 C2B        15.0070   23.9570   26.9490 C.3       1 FAD600      0.0000 
     11 O2B        14.3190   25.1620   26.7220 O.3       1 FAD600      0.0000 
     12 C1B        14.4170   22.7730   26.1800 C.3       1 FAD600      0.0000 
     13 N9A        13.2190   22.2100   26.8020 N.pl3     1 FAD600      0.0000 
     14 C8A        13.0490   21.8330   28.1200 C.2       1 FAD600      0.0000 
     15 N7A        11.7970   21.2910   28.2450 N.2       1 FAD600      0.0000 
     16 C5A        11.1860   21.3770   27.0350 C.ar      1 FAD600      0.0000 
     17 C6A         9.9330   20.9820   26.5660 C.ar      1 FAD600      0.0000 
     18 N6A         8.9900   20.5970   27.4210 N.pl3     1 FAD600      0.0000 
     19 N1A         9.6070   21.2660   25.2640 N.ar      1 FAD600      0.0000 
     20 C2A        10.4860   21.8180   24.3630 C.ar      1 FAD600      0.0000 
     21 N3A        11.7340   22.1530   24.8120 N.ar      1 FAD600      0.0000 
     22 C4A        12.0520   21.9690   26.1220 C.ar      1 FAD600      0.0000 
     23 N1         30.7360   21.8710   28.1310 N.2       1 FAD600      0.0000 
     24 C2         31.8730   21.9440   27.3630 C.2       1 FAD600      0.0000 
     25 O2         32.1540   21.1280   26.4980 O.2       1 FAD600      0.0000 
     26 N3         32.6930   23.0380   27.4820 N.am      1 FAD600      0.0000 
     27 C4         32.5960   23.9240   28.5380 C.2       1 FAD600      0.0000 
     28 O4         33.2730   24.9590   28.4330 O.2       1 FAD600      0.0000 
     29 C4X        31.4850   23.8440   29.3680 C.2       1 FAD600      0.0000 
     30 N5         31.3290   24.7470   30.4430 N.2       1 FAD600      0.0000 
     31 C5X        30.2160   24.6380   31.2260 C.ar      1 FAD600      0.0000 
     32 C6         30.0290   25.5520   32.2750 C.ar      1 FAD600      0.0000 
     33 C7         28.8380   25.6110   32.9540 C.ar      1 FAD600      0.0000 
     34 C7M        28.7830   26.4590   34.1950 C.3       1 FAD600      0.0000 
     35 C8         27.8140   24.7160   32.6630 C.ar      1 FAD600      0.0000 
     36 C8M        26.4570   24.9980   33.2240 C.3       1 FAD600      0.0000 
     37 C9         28.0100   23.7840   31.6210 C.ar      1 FAD600      0.0000 
     38 C9A        29.1920   23.7400   30.8980 C.ar      1 FAD600      0.0000 
     39 N10        29.3750   22.7980   29.8800 N.pl3     1 FAD600      0.0000 
     40 C10        30.5570   22.7980   29.1620 C.2       1 FAD600      0.0000 
     41 C1'        28.3950   21.6630   29.6460 C.3       1 FAD600      0.0000 
     42 C2'        27.4270   22.0770   28.5110 C.3       1 FAD600      0.0000 
     43 O2'        27.1110   23.4580   28.6420 O.3       1 FAD600      0.0000 
     44 C3'        26.1380   21.2570   28.6330 C.3       1 FAD600      0.0000 
     45 O3'        26.5060   19.9030   28.9360 O.3       1 FAD600      0.0000 
     46 C4'        25.2590   21.3530   27.3960 C.3       1 FAD600      0.0000 
     47 O4'        24.9710   22.7170   27.0940 O.3       1 FAD600      0.0000 
     48 C5'        23.9610   20.6140   27.7030 C.3       1 FAD600      0.0000 
     49 O5'        23.1730   20.7810   26.5570 O.3       1 FAD600      0.0000 
     50 P          21.6820   20.1700   26.4070 P.3       1 FAD600      0.0000 
     51 O1P        21.6960   18.7770   27.0470 O.co2     1 FAD600      0.0000 
     52 O2P        21.2780   20.3250   24.9890 O.co2     1 FAD600      0.0000 
     53 O3P        20.8330   21.0570   27.4110 O.3       1 FAD600      0.0000 
     54 H          17.5966   21.9317   27.8485 H         1 FAD600      0.0000 
     55 H          17.7488   20.7590   26.5288 H         1 FAD600      0.0000 
     56 H          16.9157   22.5378   24.9936 H         1 FAD600      0.0000 
     57 H          17.0712   24.0760   27.4016 H         1 FAD600      0.0000 
     58 H          14.9975   23.6558   28.0060 H         1 FAD600      0.0000 
     59 H          14.2510   23.0703   25.1792 H         1 FAD600      0.0000 
     60 H          13.6926   21.9347   28.8143 H         1 FAD600      0.0000 
     61 H           9.2537   20.5726   28.3853 H         1 FAD600      0.0000 
     62 H           8.1022   20.3666   27.0225 H         1 FAD600      0.0000 
     63 H          10.2138   21.9716   23.3923 H         1 FAD600      0.0000 
     64 H          33.4212   23.2115   26.7467 H         1 FAD600      0.0000 
     65 H          30.8086   26.1842   32.5293 H         1 FAD600      0.0000 
     66 H          27.2444   23.1206   31.3993 H         1 FAD600      0.0000 
     67 H          27.8231   21.4782   30.5407 H         1 FAD600      0.0000 
     68 H          28.9244   20.7739   29.3445 H         1 FAD600      0.0000 
     69 H          27.8887   21.8512   27.5783 H         1 FAD600      0.0000 
     70 H          25.5778   21.6798   29.4822 H         1 FAD600      0.0000 
     71 H          25.7477   20.8511   26.5897 H         1 FAD600      0.0000 
     72 H          23.5244   21.0642   28.5830 H         1 FAD600      0.0000 
     73 H          24.2073   19.5799   27.8971 H         1 FAD600      0.0000 
     74 H          29.4350   26.1480   34.8865 H         1 FAD600      0.0000 
     75 H          28.9965   27.4164   34.0004 H         1 FAD600      0.0000 
     76 H          27.8768   26.4408   34.6174 H         1 FAD600      0.0000 
     77 H          26.4674   25.0290   34.2235 H         1 FAD600      0.0000 
     78 H          26.0994   25.8765   32.9072 H         1 FAD600      0.0000 
     79 H          25.7930   24.2986   32.9594 H         1 FAD600      0.0000 
     80 H          16.1779   24.6621   24.7263 H         1 FAD600      0.0000 
     81 H          14.3940   25.3212   25.7376 H         1 FAD600      0.0000 
     82 H          26.2829   23.5868   28.0965 H         1 FAD600      0.0000 
     83 H          26.4022   19.4076   28.0736 H         1 FAD600      0.0000 
     84 H          24.7916   22.7319   26.1103 H         1 FAD600      0.0000 
@<TRIPOS>BOND
     1    2    1 ar   
     2    3    1 ar   
     3    4    1 1    
     4   53    1 1    
     5    5    4 1    
     6    6    5 1    
     7   54    5 1    
     8   55    5 1    
     9    7    6 1    
    10    8    6 1    
    11   56    6 1    
    12   12    7 1    
    13    9    8 1    
    14   10    8 1    
    15   57    8 1    
    16   80    9 1    
    17   11   10 1    
    18   12   10 1    
    19   58   10 1    
    20   81   11 1    
    21   13   12 1    
    22   59   12 1    
    23   14   13 1    
    24   22   13 1    
    25   15   14 2    
    26   60   14 1    
    27   16   15 1    
    28   17   16 ar   
    29   22   16 ar   
    30   18   17 1    
    31   19   17 ar   
    32   61   18 1    
    33   62   18 1    
    34   20   19 ar   
    35   21   20 ar   
    36   63   20 1    
    37   22   21 ar   
    38   24   23 1    
    39   40   23 2    
    40   25   24 2    
    41   26   24 am   
    42   27   26 am   
    43   64   26 1    
    44   28   27 2    
    45   29   27 1    
    46   30   29 2    
    47   40   29 1    
    48   31   30 1    
    49   32   31 ar   
    50   38   31 ar   
    51   33   32 ar   
    52   65   32 1    
    53   34   33 1    
    54   35   33 ar   
    55   74   34 1    
    56   75   34 1    
    57   76   34 1    
    58   36   35 1    
    59   37   35 ar   
    60   77   36 1    
    61   78   36 1    
    62   79   36 1    
    63   38   37 ar   
    64   66   37 1    
    65   39   38 1    
    66   40   39 1    
    67   41   39 1    
    68   42   41 1    
    69   67   41 1    
    70   68   41 1    
    71   43   42 1    
    72   44   42 1    
    73   69   42 1    
    74   82   43 1    
    75   45   44 1    
    76   46   44 1    
    77   70   44 1    
    78   83   45 1    
    79   47   46 1    
    80   48   46 1    
    81   71   46 1    
    82   84   47 1    
    83   49   48 1    
    84   72   48 1    
    85   73   48 1    
    86   50   49 1    
    87   51   50 ar   
    88   52   50 ar   
    89   53   50 1    
@<TRIPOS>SUBSTRUCTURE
     1 FAD600      1 GROUP   
@<TRIPOS>SET

