#    Name: 2fsz_OHT_1_INTS_M
#    Modification time : Tue Mar 25 13:06:38 2014

@<TRIPOS>MOLECULE
2fsz_OHT_1_INTS_M
  101     0    12     0     0
SMALL
NO_CHARGES


@<TRIPOS>ATOM
      1 CA         89.3900   19.8050   -2.5555 C.3       4 GLC5        0.0000 
      2 CA         89.6910   19.2370   -4.3800 C.3      12 GLL5        0.0000 
      3 CA         89.0890   20.3730   -0.7310 C.3       8 GLP5        0.0000 
      4 CA         88.8950   17.7830   -3.3765 C.3       4 GLC5        0.0000 
      5 CA         88.0990   16.3290   -2.3730 C.3       8 GLP5        0.0000 
      6 CA         88.0365   19.5295   -4.4460 C.3       4 GLC5        0.0000 
      7 CA         86.3820   19.8220   -4.5120 C.3       8 GLP5        0.0000 
      8 CA         90.4475   19.7310   -7.0160 C.3       4 GLC5        0.0000 
      9 CA         90.8600   18.8850   -5.3160 C.3      12 GLL5        0.0000 
     10 CA         90.0350   20.5770   -8.7160 C.3       8 GLP5        0.0000 
     11 CA         93.3430   19.6000   -1.0720 C.3       4 GLC5        0.0000 
     12 CA         92.8320   18.1300   -2.4980 C.3      12 GLL5        0.0000 
     13 CA         93.8540   21.0700    0.3540 C.3       8 GLP5        0.0000 
     14 CA         94.9070   17.0005   -0.5345 C.3       4 GLC5        0.0000 
     15 CA         93.2920   17.0110   -1.7020 C.3      12 GLL5        0.0000 
     16 CA         96.5220   16.9900    0.6330 C.3       8 GLP5        0.0000 
     17 CA         95.0980   15.6475   -4.0830 C.3       4 GLC5        0.0000 
     18 CA         93.6950   15.7920   -2.3760 C.3      12 GLL5        0.0000 
     19 CA         96.5010   15.5030   -5.7900 C.3       8 GLP5        0.0000 
     20 CA         93.3280   14.4485   -0.7185 C.3       4 GLC5        0.0000 
     21 CA         92.9610   13.1050    0.9390 C.3       8 GLP5        0.0000 
     22 CA         95.1795   15.6320   -0.8535 C.3       4 GLC5        0.0000 
     23 CA         96.6640   15.4720    0.6690 C.3       8 GLP5        0.0000 
     24 CA         94.5765   14.8705   -4.9900 C.3       4 GLC5        0.0000 
     25 CA         93.6490   15.6680   -3.8290 C.3      12 GLL5        0.0000 
     26 CA         95.5040   14.0730   -6.1510 C.3       8 GLP5        0.0000 
     27 CA         94.8445   16.1475   -5.2155 C.3       4 GLC5        0.0000 
     28 CA         93.1880   16.7920   -4.6410 C.3      12 GLL5        0.0000 
     29 CA         93.4360   16.9325   -6.4565 C.3       4 GLC5        0.0000 
     30 CA         93.6840   17.0730   -8.2720 C.3       8 GLP5        0.0000 
     31 CA         91.2825   25.0800   -4.3485 C.3       4 GLC5        0.0000 
     32 CA         90.8880   23.7710   -5.8200 C.3      12 GLL5        0.0000 
     33 CA         91.6770   26.3890   -2.8770 C.3       8 GLP5        0.0000 
     34 CA         92.4235   25.9685   -5.6570 C.3       4 GLC5        0.0000 
     35 CA         91.6690   24.3250   -6.8820 C.3      12 GLL5        0.0000 
     36 CA         93.1780   27.6120   -4.4320 C.3       8 GLP5        0.0000 
     37 N          90.5030   26.0235   -8.4570 N.am      2 SEC2        0.0000 
     38 N          91.2640   25.4910   -7.4560 N.am     10 SEL2        0.0000 
     39 N          89.7420   26.5560   -9.4580 N.am      6 SEP2        0.0000 
     40 O          91.7920   26.8625   -7.6895 O.2       1 ALC1        0.0000 
     41 O          91.2640   25.4910   -7.4560 O.2       9 ALL1        0.0000 
     42 O          92.3200   28.2340   -7.9230 O.2       5 ALP1        0.0000 
     43 O          92.4610   26.0005   -7.7655 O.2       1 ALC1        0.0000 
     44 O          93.6580   26.5100   -8.0750 O.2       5 ALP1        0.0000 
     45 CA         94.2945   20.6960   -7.6290 C.3       4 GLC5        0.0000 
     46 CA         93.2970   22.4480   -6.7360 C.3      12 GLL5        0.0000 
     47 CA         95.2920   18.9440   -8.5220 C.3       8 GLP5        0.0000 
     48 CA         94.4050   23.6405   -3.0625 C.3       4 GLC5        0.0000 
     49 CA         94.7010   21.4750   -3.1540 C.3      12 GLL5        0.0000 
     50 CA         94.1090   25.8060   -2.9710 C.3       8 GLP5        0.0000 
     51 CA         98.0185   22.7995   -4.3730 C.3       4 GLC5        0.0000 
     52 CA         99.4570   21.5750   -3.2030 C.3      12 GLL5        0.0000 
     53 CA         96.5800   24.0240   -5.5430 C.3       8 GLP5        0.0000 
     54 OD1       101.0595   23.8150   -3.0085 O.co2     3 ASC3        0.0000 
     55 OD1       101.0410   22.9250   -1.9320 O.co2    11 ASL3        0.0000 
     56 OD1       101.0780   24.7050   -4.0850 O.co2     7 ASP3        0.0000 
     57 OD1       101.8265   23.3775   -3.6680 O.co2     3 ASC3        0.0000 
     58 OD1       102.6120   23.8300   -5.4040 O.co2     7 ASP3        0.0000 
     59 O         101.0595   23.8150   -3.0085 O.2       1 ALC1        0.0000 
     60 O         101.0410   22.9250   -1.9320 O.2       9 ALL1        0.0000 
     61 O         101.0780   24.7050   -4.0850 O.2       5 ALP1        0.0000 
     62 CA         99.5285   24.9705   -1.3480 C.3       4 GLC5        0.0000 
     63 CA        100.5650   23.2800   -0.5870 C.3      12 GLL5        0.0000 
     64 CA         98.4920   26.6610   -2.1090 C.3       8 GLP5        0.0000 
     65 CA         98.7120   23.3390    0.2270 C.3       4 GLC5        0.0000 
     66 CA         96.8590   23.3980    1.0410 C.3       8 GLP5        0.0000 
     67 CA         97.4625   18.5720   -2.8075 C.3       4 GLC5        0.0000 
     68 CA         96.8760   19.8880   -4.2990 C.3      12 GLL5        0.0000 
     69 CA         98.0490   17.2560   -1.3160 C.3       8 GLP5        0.0000 
     70 CA         95.4210   19.3760   -6.6960 C.3       4 GLC5        0.0000 
     71 CA         95.5500   19.8080   -4.8700 C.3      12 GLL5        0.0000 
     72 CA         89.4917   17.4720   -5.9830 C.3       4 GLC5        0.0000 
     73 CA         88.7080   15.8830   -7.1180 C.3       8 GLP5        0.0000 
     74 CA         92.6250   18.0673   -6.6543 C.3       4 GLC5        0.0000 
     75 CA         92.1345   17.4573   -0.2685 C.3       4 GLC5        0.0000 
     76 CA         91.2070   17.3440    1.5630 C.3       8 GLP5        0.0000 
     77 CA         91.7028   15.5742   -1.2280 C.3       4 GLC5        0.0000 
     78 CA         89.9120   14.7470   -0.4170 C.3       8 GLP5        0.0000 
     79 CA         94.9615   14.2525   -2.9443 C.3       4 GLC5        0.0000 
     80 CA         96.2510   12.7750   -2.7860 C.3       8 GLP5        0.0000 
     81 CA         92.6600   14.5485   -4.2464 C.3       4 GLC5        0.0000 
     82 CA         91.8900   12.8360   -4.6210 C.3       8 GLP5        0.0000 
     83 CA         89.2350   22.7317   -6.1683 C.3       4 GLC5        0.0000 
     84 CA         91.3280   22.5500   -5.2170 C.3      12 GLL5        0.0000 
     85 CA         87.3620   22.3030   -6.8180 C.3       8 GLP5        0.0000 
     86 CA         93.3452   23.3907   -9.0362 C.3       4 GLC5        0.0000 
     87 CA         92.8740   23.6790   -7.3610 C.3      12 GLL5        0.0000 
     88 CA         93.6050   23.7180  -11.0240 C.3       8 GLP5        0.0000 
     89 CA         94.8328   23.5438   -6.2957 C.3       4 GLC5        0.0000 
     90 CA         95.5752   22.5293   -4.6377 C.3       4 GLC5        0.0000 
     91 CA         94.4400   20.5940   -4.3110 C.3      12 GLL5        0.0000 
     92 CA         94.6103   21.2913   -1.2585 C.3       4 GLC5        0.0000 
     93 CA         96.5803   22.5843   -4.2112 C.3       4 GLC5        0.0000 
     94 CA         96.0320   21.5500   -2.5880 C.3      12 GLL5        0.0000 
     95 CA         97.0938   20.1722   -1.3348 C.3       4 GLC5        0.0000 
     96 CA         97.6070   19.2000    0.2100 C.3       8 GLP5        0.0000 
     97 CA        100.7668   20.9802   -4.4975 C.3       4 GLC5        0.0000 
     98 CA        101.4530   20.4030   -6.2380 C.3       8 GLP5        0.0000 
     99 CA         97.6825   20.2815   -5.9428 C.3       4 GLC5        0.0000 
    100 CA         99.1520   20.7150   -7.3010 C.3       8 GLP5        0.0000 
    101 CA         96.3965   21.9360   -5.0638 C.3       4 GLC5        0.0000 
@<TRIPOS>BOND
@<TRIPOS>SUBSTRUCTURE
     1 ALC1       40 GROUP        1 X    ALC  0     ROOT ALC X 1
     2 SEC2       37 GROUP        1 X    SEC  0     **** SEC X 2
     3 ASC3       54 GROUP        1 X    ASC  0     **** ASC X 3
     4 GLC5        1 GROUP        1 X    GLC  0     **** GLC X 6
     5 ALP1       42 GROUP        1 Y    ALP  0     ROOT ALP Y 8
     6 SEP2       39 GROUP        1 Y    SEP  0     **** SEP Y 9
     7 ASP3       56 GROUP        1 Y    ASP  0     **** ASP Y 10
     8 GLP5        3 GROUP        1 Y    GLP  0     **** GLP Y 13
     9 ALL1       41 GROUP        1 Z    ALL  0     ROOT ALL Z 15
    10 SEL2       38 GROUP        1 Z    SEL  0     **** SEL Z 16
    11 ASL3       55 GROUP        1 Z    ASL  0     **** ASL Z 17
    12 GLL5        2 GROUP        1 Z    GLL  0     **** GLL Z 20
@<TRIPOS>SET

