#    Name: 2fsz_OHT_1_ligand
#    Modification time : Tue Mar 25 13:06:38 2014

@<TRIPOS>MOLECULE
2fsz_OHT_1_ligand
   59    61     1     0     0
SMALL
NO_CHARGES


@<TRIPOS>ATOM
      1 C10        89.6910   19.2370   -4.3800 C.3       1 OHT101      0.0000 
      2 C9         90.8600   18.8850   -5.3160 C.3       1 OHT101      0.0000 
      3 C8         92.2720   19.2380   -4.7570 C.2       1 OHT101      0.0000 
      4 C11        92.7730   18.0360   -3.9710 C.ar      1 OHT101      0.0000 
      5 C16        92.8320   18.1300   -2.4980 C.ar      1 OHT101      0.0000 
      6 C15        93.2920   17.0110   -1.7020 C.ar      1 OHT101      0.0000 
      7 C14        93.6950   15.7920   -2.3760 C.ar      1 OHT101      0.0000 
      8 C13        93.6490   15.6680   -3.8290 C.ar      1 OHT101      0.0000 
      9 C12        93.1880   16.7920   -4.6410 C.ar      1 OHT101      0.0000 
     10 C7         93.0120   20.4990   -4.9110 C.2       1 OHT101      0.0000 
     11 C1         92.5340   21.8270   -5.6290 C.ar      1 OHT101      0.0000 
     12 C2         91.3280   22.5500   -5.2170 C.ar      1 OHT101      0.0000 
     13 C3         90.8880   23.7710   -5.8200 C.ar      1 OHT101      0.0000 
     14 C4         91.6690   24.3250   -6.8820 C.ar      1 OHT101      0.0000 
     15 O4         91.2640   25.4910   -7.4560 O.3       1 OHT101      0.0000 
     16 C5         92.8740   23.6790   -7.3610 C.ar      1 OHT101      0.0000 
     17 C6         93.2970   22.4480   -6.7360 C.ar      1 OHT101      0.0000 
     18 C17        94.4400   20.5940   -4.3110 C.ar      1 OHT101      0.0000 
     19 C18        94.7010   21.4750   -3.1540 C.ar      1 OHT101      0.0000 
     20 C19        96.0320   21.5500   -2.5880 C.ar      1 OHT101      0.0000 
     21 C20        97.1290   20.7390   -3.1710 C.ar      1 OHT101      0.0000 
     22 O20        98.4540   20.7210   -2.6800 O.3       1 OHT101      0.0000 
     23 C23        99.4570   21.5750   -3.2030 C.3       1 OHT101      0.0000 
     24 C24       100.7040   21.5400   -2.3110 C.3       1 OHT101      0.0000 
     25 N24       101.0410   22.9250   -1.9320 N.4       1 OHT101      0.0000 
     26 C25       102.5000   23.0940   -1.9470 C.3       1 OHT101      0.0000 
     27 C26       100.5650   23.2800   -0.5870 C.3       1 OHT101      0.0000 
     28 C21        96.8760   19.8880   -4.2990 C.ar      1 OHT101      0.0000 
     29 C22        95.5500   19.8080   -4.8700 C.ar      1 OHT101      0.0000 
     30 H          90.7260   19.4122   -6.2736 H         1 OHT101      0.0000 
     31 H          90.8347   17.8057   -5.5337 H         1 OHT101      0.0000 
     32 H          92.5455   18.9900   -2.0526 H         1 OHT101      0.0000 
     33 H          93.3313   17.0770   -0.7047 H         1 OHT101      0.0000 
     34 H          94.0195   14.9989   -1.8236 H         1 OHT101      0.0000 
     35 H          93.9333   14.8125   -4.2711 H         1 OHT101      0.0000 
     36 H          93.1531   16.7228   -5.6339 H         1 OHT101      0.0000 
     37 H          90.7709   22.1426   -4.4433 H         1 OHT101      0.0000 
     38 H          90.0515   24.2270   -5.5048 H         1 OHT101      0.0000 
     39 H          93.4015   24.0799   -8.1107 H         1 OHT101      0.0000 
     40 H          94.1445   21.9802   -7.0554 H         1 OHT101      0.0000 
     41 H          93.9478   22.0161   -2.7697 H         1 OHT101      0.0000 
     42 H          96.2273   22.1435   -1.8045 H         1 OHT101      0.0000 
     43 H          99.1217   22.6205   -3.2579 H         1 OHT101      0.0000 
     44 H          99.7679   21.2759   -4.2141 H         1 OHT101      0.0000 
     45 H         101.5135   21.0843   -2.8690 H         1 OHT101      0.0000 
     46 H         100.4833   20.9424   -1.4343 H         1 OHT101      0.0000 
     47 H         100.6104   23.6136   -2.6558 H         1 OHT101      0.0000 
     48 H          97.6276   19.3386   -4.7005 H         1 OHT101      0.0000 
     49 H          95.3729   19.2067   -5.6644 H         1 OHT101      0.0000 
     50 H          89.7595   18.7590   -3.5043 H         1 OHT101      0.0000 
     51 H          89.6588   20.2158   -4.1779 H         1 OHT101      0.0000 
     52 H          88.8080   18.9911   -4.7799 H         1 OHT101      0.0000 
     53 H         102.9522   22.4745   -1.3053 H         1 OHT101      0.0000 
     54 H         102.8857   22.9118   -2.8515 H         1 OHT101      0.0000 
     55 H         102.7688   24.0238   -1.6956 H         1 OHT101      0.0000 
     56 H         100.9623   22.6895    0.1154 H         1 OHT101      0.0000 
     57 H         100.8007   24.2215   -0.3461 H         1 OHT101      0.0000 
     58 H          99.5713   23.1981   -0.5111 H         1 OHT101      0.0000 
     59 H          92.1089   25.9578   -7.7173 H         1 OHT101      0.0000 
@<TRIPOS>BOND
     1    2    1 1    
     2   50    1 1    
     3   51    1 1    
     4   52    1 1    
     5    3    2 1    
     6   30    2 1    
     7   31    2 1    
     8    4    3 1    
     9   10    3 2    
    10    5    4 ar   
    11    9    4 ar   
    12    6    5 ar   
    13   32    5 1    
    14    7    6 ar   
    15   33    6 1    
    16    8    7 ar   
    17   34    7 1    
    18    9    8 ar   
    19   35    8 1    
    20   36    9 1    
    21   11   10 1    
    22   18   10 1    
    23   12   11 ar   
    24   17   11 ar   
    25   13   12 ar   
    26   37   12 1    
    27   14   13 ar   
    28   38   13 1    
    29   15   14 1    
    30   16   14 ar   
    31   59   15 1    
    32   17   16 ar   
    33   39   16 1    
    34   40   17 1    
    35   19   18 ar   
    36   29   18 ar   
    37   20   19 ar   
    38   41   19 1    
    39   21   20 ar   
    40   42   20 1    
    41   22   21 1    
    42   28   21 ar   
    43   23   22 1    
    44   24   23 1    
    45   43   23 1    
    46   44   23 1    
    47   25   24 1    
    48   45   24 1    
    49   46   24 1    
    50   26   25 1    
    51   27   25 1    
    52   47   25 1    
    53   53   26 1    
    54   54   26 1    
    55   55   26 1    
    56   56   27 1    
    57   57   27 1    
    58   58   27 1    
    59   29   28 ar   
    60   48   28 1    
    61   49   29 1    
@<TRIPOS>SUBSTRUCTURE
     1 OHT101      1 GROUP   
@<TRIPOS>SET

