#    Name: 1aa6_MGD_2_INTS_M
#    Modification time : Mon Apr  7 12:52:31 2014

@<TRIPOS>MOLECULE
1aa6_MGD_2_INTS_M
  114     0    12     0     0
SMALL
NO_CHARGES


@<TRIPOS>ATOM
      1 N          73.6245   40.6930   32.1545 N.am      2 SEC2        0.0000 
      2 N          74.8000   41.0120   33.3350 N.am     10 SEL2        0.0000 
      3 N          72.4490   40.3740   30.9740 N.am      6 SEP2        0.0000 
      4 NZ         76.5800   42.9960   31.1790 N.4       3 LYC4        0.0000 
      5 NZ         76.1130   41.8380   31.2850 N.4      11 LYL4        0.0000 
      6 NZ         77.0470   44.1540   31.0730 N.4       7 LYP4        0.0000 
      7 N          76.5800   42.9960   31.1790 N.am      2 SEC2        0.0000 
      8 N          76.1130   41.8380   31.2850 N.am     10 SEL2        0.0000 
      9 N          77.0470   44.1540   31.0730 N.am      6 SEP2        0.0000 
     10 N          80.3260   40.8275   34.1095 N.am      2 SEC2        0.0000 
     11 N          79.3060   39.7020   34.2330 N.am     10 SEL2        0.0000 
     12 N          81.3460   41.9530   33.9860 N.am      6 SEP2        0.0000 
     13 N          76.3610   39.9385   36.7470 N.am      2 SEC2        0.0000 
     14 N          76.9310   39.4410   35.1890 N.am     10 SEL2        0.0000 
     15 N          75.7910   40.4360   38.3050 N.am      6 SEP2        0.0000 
     16 N          76.7360   43.5465   32.3570 N.am      2 SEC2        0.0000 
     17 N          76.4250   42.9390   33.6410 N.am     10 SEL2        0.0000 
     18 CA         77.5485   44.5045   37.0985 C.3       4 GLC5        0.0000 
     19 CA         75.9690   43.9390   35.8800 C.3      12 GLL5        0.0000 
     20 CA         79.1280   45.0700   38.3170 C.3       8 GLP5        0.0000 
     21 N          72.3875   43.6255   36.0410 N.am      2 SEC2        0.0000 
     22 N          73.6880   43.9400   36.5420 N.am     10 SEL2        0.0000 
     23 N          71.0870   43.3110   35.5400 N.am      6 SEP2        0.0000 
     24 O          74.1365   44.6440   37.6790 O.2       1 ALC1        0.0000 
     25 O          73.6880   43.9400   36.5420 O.2       9 ALL1        0.0000 
     26 O          74.5850   45.3480   38.8160 O.2       5 ALP1        0.0000 
     27 N          72.0415   46.0440   35.6470 N.am      2 SEC2        0.0000 
     28 N          73.4710   46.5240   35.8560 N.am     10 SEL2        0.0000 
     29 N          70.6120   45.5640   35.4380 N.am      6 SEP2        0.0000 
     30 O          73.5325   46.8680   37.0905 O.2       1 ALC1        0.0000 
     31 O          73.4710   46.5240   35.8560 O.2       9 ALL1        0.0000 
     32 O          73.5940   47.2120   38.3250 O.2       5 ALP1        0.0000 
     33 CA         77.4885   45.6425   37.1755 C.3       4 GLC5        0.0000 
     34 CA         75.8490   46.2150   36.0340 C.3      12 GLL5        0.0000 
     35 CA         75.3785   48.0890   37.1735 C.3       4 GLC5        0.0000 
     36 CA         74.9080   49.9630   38.3130 C.3       8 GLP5        0.0000 
     37 N          78.7610   52.7540   35.2295 N.am      2 SEC2        0.0000 
     38 N          78.8550   51.3030   35.4880 N.am     10 SEL2        0.0000 
     39 N          78.6670   54.2050   34.9710 N.am      6 SEP2        0.0000 
     40 N          80.3500   51.7345   35.7385 N.am      2 SEC2        0.0000 
     41 N          81.8450   52.1660   35.9890 N.am      6 SEP2        0.0000 
     42 O          80.1875   50.5685   37.6490 O.2       1 ALC1        0.0000 
     43 O          79.0260   50.0330   37.3920 O.2       9 ALL1        0.0000 
     44 O          81.3490   51.1040   37.9060 O.2       5 ALP1        0.0000 
     45 O          78.2730   48.1030   40.3610 O.2       1 ALC1        0.0000 
     46 O          79.0600   48.7620   39.3320 O.2       9 ALL1        0.0000 
     47 O          77.4860   47.4440   41.3900 O.2       5 ALP1        0.0000 
     48 CA         78.2380   46.6685   37.3410 C.3       4 GLC5        0.0000 
     49 CA         77.3480   48.2670   36.3650 C.3      12 GLL5        0.0000 
     50 CA         79.5915   39.6795   31.4670 C.3       4 GLC5        0.0000 
     51 CA         78.1500   38.2820   31.6470 C.3      12 GLL5        0.0000 
     52 CA         81.0330   41.0770   31.2870 C.3       8 GLP5        0.0000 
     53 N          76.5025   36.4445   32.8845 N.am      2 SEC2        0.0000 
     54 N          77.1950   36.0430   31.7780 N.am     10 SEL2        0.0000 
     55 N          75.8100   36.8460   33.9910 N.am      6 SEP2        0.0000 
     56 CA         81.9425   36.2640   29.4055 C.3       4 GLC5        0.0000 
     57 CA         80.4190   37.4240   29.7930 C.3      12 GLL5        0.0000 
     58 CA         83.4660   35.1040   29.0180 C.3       8 GLP5        0.0000 
     59 CA         80.7260   39.2505   30.5400 C.3       4 GLC5        0.0000 
     60 CA         80.7705   35.6525   30.6435 C.3       4 GLC5        0.0000 
     61 CA         81.1220   33.8810   31.4940 C.3       8 GLP5        0.0000 
     62 CA         81.5240   34.9650   28.5705 C.3       4 GLC5        0.0000 
     63 CA         79.5820   34.8260   28.1230 C.3      12 GLL5        0.0000 
     64 CA         80.3795   33.0715   27.5620 C.3       4 GLC5        0.0000 
     65 CA         81.1770   31.3170   27.0010 C.3       8 GLP5        0.0000 
     66 CA         76.7220   32.7615   29.5795 C.3       4 GLC5        0.0000 
     67 CA         77.5960   34.3790   30.0870 C.3      12 GLL5        0.0000 
     68 CA         75.8480   31.1440   29.0720 C.3       8 GLP5        0.0000 
     69 O          76.4670   34.6940   27.6570 O.2       1 ALC1        0.0000 
     70 O          76.4550   34.6810   29.2490 O.2       9 ALL1        0.0000 
     71 O          76.4790   34.7070   26.0650 O.2       5 ALP1        0.0000 
     72 CA         74.8105   36.1035   29.6545 C.3       4 GLC5        0.0000 
     73 CA         75.2370   34.3420   29.7740 C.3      12 GLL5        0.0000 
     74 CA         74.3840   37.8650   29.5350 C.3       8 GLP5        0.0000 
     75 N          73.9890   34.1735   26.5365 N.am      2 SEC2        0.0000 
     76 N          74.1810   34.6410   27.7140 N.am     10 SEL2        0.0000 
     77 N          73.7970   33.7060   25.3590 N.am      6 SEP2        0.0000 
     78 N          75.3300   34.6740   26.8895 N.am      2 SEC2        0.0000 
     79 N          76.4790   34.7070   26.0650 N.am      6 SEP2        0.0000 
     80 O          71.6855   33.4900   28.8115 O.2       1 ALC1        0.0000 
     81 O          72.8980   33.9990   29.5160 O.2       9 ALL1        0.0000 
     82 O          70.4730   32.9810   28.1070 O.2       5 ALP1        0.0000 
     83 O          71.8020   33.9000   32.7630 O.2       1 ALC1        0.0000 
     84 O          71.6530   33.4190   31.3850 O.2       9 ALL1        0.0000 
     85 O          71.9510   34.3810   34.1410 O.2       5 ALP1        0.0000 
     86 CA         74.7800   34.6040   33.0635 C.3       4 GLC5        0.0000 
     87 CA         75.0890   34.0460   31.1360 C.3      12 GLL5        0.0000 
     88 CA         74.4710   35.1620   34.9910 C.3       8 GLP5        0.0000 
     89 CA         74.7330   36.0185   31.0735 C.3       4 GLC5        0.0000 
     90 CA         74.3770   37.9910   31.0110 C.3       8 GLP5        0.0000 
     91 O          75.8965   33.5825   33.2710 O.2       1 ALC1        0.0000 
     92 O          76.1550   33.9950   31.9850 O.2       9 ALL1        0.0000 
     93 O          75.6380   33.1700   34.5570 O.2       5 ALP1        0.0000 
     94 CA         76.4300   35.4555   33.3770 C.3       4 GLC5        0.0000 
     95 CA         77.3470   34.6720   31.5300 C.3      12 GLL5        0.0000 
     96 CA         75.5130   36.2390   35.2240 C.3       8 GLP5        0.0000 
     97 CA         75.8620   36.3315   31.2705 C.3       4 GLC5        0.0000 
     98 CA         77.1030   42.4303   37.1093 C.3       4 GLC5        0.0000 
     99 CA         76.5830   42.8160   35.0570 C.3      12 GLL5        0.0000 
    100 CA         77.9300   41.4830   38.7500 C.3       8 GLP5        0.0000 
    101 CA         74.4723   42.3076   36.4786 C.3       4 GLC5        0.0000 
    102 CA         73.5310   40.7720   37.4990 C.3       8 GLP5        0.0000 
    103 CA         73.4120   44.0472   34.1333 C.3       4 GLC5        0.0000 
    104 CA         74.5510   44.3090   35.4480 C.3      12 GLL5        0.0000 
    105 CA         72.2490   43.0050   32.9230 C.3       8 GLP5        0.0000 
    106 CA         76.2180   49.3745   37.1427 C.3       4 GLC5        0.0000 
    107 CA         78.7885   47.4265   35.1842 C.3       4 GLC5        0.0000 
    108 CA         80.0490   46.0670   34.3960 C.3       8 GLP5        0.0000 
    109 CA         76.3237   37.7580   31.3195 C.3       4 GLC5        0.0000 
    110 CA         79.9313   35.2313   31.2335 C.3       4 GLC5        0.0000 
    111 CA         78.3910   36.7680   31.6090 C.3      12 GLL5        0.0000 
    112 CA         80.1380   34.4610   30.1783 C.3       4 GLC5        0.0000 
    113 CA         78.7260   35.2560   29.6020 C.3      12 GLL5        0.0000 
    114 CA         79.2968   34.2032   31.1513 C.3       4 GLC5        0.0000 
@<TRIPOS>BOND
@<TRIPOS>SUBSTRUCTURE
     1 ALC1       24 GROUP        1 X    ALC  0     ROOT ALC X 1
     2 SEC2        1 GROUP        1 X    SEC  0     **** SEC X 2
     3 LYC4        4 GROUP        1 X    LYC  0     **** LYC X 4
     4 GLC5       18 GROUP        1 X    GLC  0     **** GLC X 6
     5 ALP1       26 GROUP        1 Y    ALP  0     ROOT ALP Y 8
     6 SEP2        3 GROUP        1 Y    SEP  0     **** SEP Y 9
     7 LYP4        6 GROUP        1 Y    LYP  0     **** LYP Y 11
     8 GLP5       20 GROUP        1 Y    GLP  0     **** GLP Y 13
     9 ALL1       25 GROUP        1 Z    ALL  0     ROOT ALL Z 15
    10 SEL2        2 GROUP        1 Z    SEL  0     **** SEL Z 16
    11 LYL4        5 GROUP        1 Z    LYL  0     **** LYL Z 18
    12 GLL5       19 GROUP        1 Z    GLL  0     **** GLL Z 20
@<TRIPOS>SET

