#    Name: 1aa6_MGD_2_ligand
#    Modification time : Mon Apr  7 12:52:31 2014

@<TRIPOS>MOLECULE
1aa6_MGD_2_ligand
   69    74     1     0     0
SMALL
NO_CHARGES


@<TRIPOS>ATOM
      1 PB         76.0240   41.6150   32.7630 P.3       1 MGD802      0.0000 
      2 O1B        74.8000   41.0120   33.3350 O.co2     1 MGD802      0.0000 
      3 O2B        76.1130   41.8380   31.2850 O.co2     1 MGD802      0.0000 
      4 O3B        77.4080   40.8550   33.1240 O.3       1 MGD802      0.0000 
      5 O3A        77.4880   38.5060   32.8880 O.3       1 MGD802      0.0000 
      6 PA         77.8530   39.6350   34.0070 P.3       1 MGD802      0.0000 
      7 O1A        79.3060   39.7020   34.2330 O.co2     1 MGD802      0.0000 
      8 O2A        76.9310   39.4410   35.1890 O.co2     1 MGD802      0.0000 
      9 O5'        76.4250   42.9390   33.6410 O.3       1 MGD802      0.0000 
     10 C5'        76.5830   42.8160   35.0570 C.3       1 MGD802      0.0000 
     11 C4'        75.9690   43.9390   35.8800 C.3       1 MGD802      0.0000 
     12 O4'        76.7260   45.1210   35.7690 O.3       1 MGD802      0.0000 
     13 C3'        74.5510   44.3090   35.4480 C.3       1 MGD802      0.0000 
     14 O3'        73.6880   43.9400   36.5420 O.3       1 MGD802      0.0000 
     15 C2'        74.5990   45.8700   35.2390 C.3       1 MGD802      0.0000 
     16 O2'        73.4710   46.5240   35.8560 O.3       1 MGD802      0.0000 
     17 C1'        75.8490   46.2150   36.0340 C.3       1 MGD802      0.0000 
     18 N9         76.4740   47.4930   35.6210 N.pl3     1 MGD802      0.0000 
     19 C8         76.3740   48.1340   34.4070 C.2       1 MGD802      0.0000 
     20 N7         77.1000   49.2140   34.3370 N.2       1 MGD802      0.0000 
     21 C5         77.7080   49.3050   35.5800 C.2       1 MGD802      0.0000 
     22 C6         78.5940   50.2720   36.1020 C.2       1 MGD802      0.0000 
     23 O6         78.8550   51.3030   35.4880 O.2       1 MGD802      0.0000 
     24 N1         79.0260   50.0330   37.3920 N.am      1 MGD802      0.0000 
     25 C2         78.6130   48.9380   38.1140 C.2       1 MGD802      0.0000 
     26 N2         79.0600   48.7620   39.3320 N.pl3     1 MGD802      0.0000 
     27 N3         77.7710   48.0460   37.6230 N.2       1 MGD802      0.0000 
     28 C4         77.3480   48.2670   36.3650 C.2       1 MGD802      0.0000 
     29 C10        78.1500   38.2820   31.6470 C.3       1 MGD802      0.0000 
     30 C11        78.3910   36.7680   31.6090 C.3       1 MGD802      0.0000 
     31 O11        77.1950   36.0430   31.7780 O.3       1 MGD802      0.0000 
     32 C12        79.0900   36.3950   30.3370 C.2       1 MGD802      0.0000 
     33 S12        80.4190   37.4240   29.7930 S.3       1 MGD802      0.0000 
     34 C13        78.7260   35.2560   29.6020 C.2       1 MGD802      0.0000 
     35 S13        79.5820   34.8260   28.1230 S.3       1 MGD802      0.0000 
     36 C14        77.5960   34.3790   30.0870 C.3       1 MGD802      0.0000 
     37 N15        76.4550   34.6810   29.2490 N.pl3     1 MGD802      0.0000 
     38 C16        75.2370   34.3420   29.7740 C.2       1 MGD802      0.0000 
     39 C17        74.1010   34.3310   28.9220 C.2       1 MGD802      0.0000 
     40 O17        74.1810   34.6410   27.7140 O.2       1 MGD802      0.0000 
     41 N18        72.8980   33.9990   29.5160 N.am      1 MGD802      0.0000 
     42 C19        72.8150   33.7180   30.8540 C.2       1 MGD802      0.0000 
     43 N19        71.6530   33.4190   31.3850 N.pl3     1 MGD802      0.0000 
     44 N20        73.8680   33.7440   31.6250 N.2       1 MGD802      0.0000 
     45 C21        75.0890   34.0460   31.1360 C.2       1 MGD802      0.0000 
     46 N22        76.1550   33.9950   31.9850 N.pl3     1 MGD802      0.0000 
     47 C23        77.3470   34.6720   31.5300 C.3       1 MGD802      0.0000 
     48 H          77.6667   42.7543   35.3342 H         1 MGD802      0.0000 
     49 H          76.1432   41.8540   35.4260 H         1 MGD802      0.0000 
     50 H          75.9163   43.6219   36.9206 H         1 MGD802      0.0000 
     51 H          74.3332   43.8475   34.5479 H         1 MGD802      0.0000 
     52 H          74.7526   46.0681   34.2445 H         1 MGD802      0.0000 
     53 H          75.5845   46.2325   37.0734 H         1 MGD802      0.0000 
     54 H          75.7920   47.7758   33.6766 H         1 MGD802      0.0000 
     55 H          79.6920   50.7116   37.8338 H         1 MGD802      0.0000 
     56 H          78.7050   47.9646   39.8200 H         1 MGD802      0.0000 
     57 H          79.7153   49.4411   39.6626 H         1 MGD802      0.0000 
     58 H          79.1057   38.7719   31.5965 H         1 MGD802      0.0000 
     59 H          77.5385   38.5424   30.8019 H         1 MGD802      0.0000 
     60 H          79.0926   36.5498   32.4396 H         1 MGD802      0.0000 
     61 H          77.8995   33.3564   29.9666 H         1 MGD802      0.0000 
     62 H          76.5870   35.1039   28.3634 H         1 MGD802      0.0000 
     63 H          72.0372   33.9631   28.9276 H         1 MGD802      0.0000 
     64 H          70.9761   33.0200   30.7664 H         1 MGD802      0.0000 
     65 H          71.5506   33.6174   32.3597 H         1 MGD802      0.0000 
     66 H          76.1519   33.5340   32.8649 H         1 MGD802      0.0000 
     67 H          78.2028   34.2796   32.1023 H         1 MGD802      0.0000 
     68 H          74.0557   44.4239   37.3361 H         1 MGD802      0.0000 
     69 H          73.8642   47.0875   36.5824 H         1 MGD802      0.0000 
@<TRIPOS>BOND
     1    2    1 ar   
     2    3    1 ar   
     3    4    1 1    
     4    9    1 1    
     5    6    4 1    
     6    6    5 1    
     7   29    5 1    
     8    7    6 ar   
     9    8    6 ar   
    10   10    9 1    
    11   11   10 1    
    12   48   10 1    
    13   49   10 1    
    14   12   11 1    
    15   13   11 1    
    16   50   11 1    
    17   17   12 1    
    18   14   13 1    
    19   15   13 1    
    20   51   13 1    
    21   68   14 1    
    22   16   15 1    
    23   17   15 1    
    24   52   15 1    
    25   69   16 1    
    26   18   17 1    
    27   53   17 1    
    28   19   18 1    
    29   28   18 1    
    30   20   19 2    
    31   54   19 1    
    32   21   20 1    
    33   22   21 1    
    34   28   21 2    
    35   23   22 2    
    36   24   22 am   
    37   25   24 1    
    38   55   24 1    
    39   26   25 1    
    40   27   25 2    
    41   56   26 1    
    42   57   26 1    
    43   28   27 1    
    44   30   29 1    
    45   58   29 1    
    46   59   29 1    
    47   31   30 1    
    48   32   30 1    
    49   60   30 1    
    50   47   31 1    
    51   33   32 1    
    52   34   32 2    
    53   35   34 1    
    54   36   34 1    
    55   37   36 1    
    56   47   36 1    
    57   61   36 1    
    58   38   37 1    
    59   62   37 1    
    60   39   38 1    
    61   45   38 2    
    62   40   39 2    
    63   41   39 am   
    64   42   41 1    
    65   63   41 1    
    66   43   42 1    
    67   44   42 2    
    68   64   43 1    
    69   65   43 1    
    70   45   44 1    
    71   46   45 1    
    72   47   46 1    
    73   66   46 1    
    74   67   47 1    
@<TRIPOS>SUBSTRUCTURE
     1 MGD802      1 GROUP   
@<TRIPOS>SET

