#    Name: 1yfr_ATP_1_INTS_M
#    Modification time : Mon Apr  7 15:47:09 2014

@<TRIPOS>MOLECULE
1yfr_ATP_1_INTS_M
   61     0    15     0     0
SMALL
NO_CHARGES


@<TRIPOS>ATOM
      1 Zn         87.6240  -11.5190    6.1290 Zn        4 ZIC7        0.0000 
      2 Zn         86.6070  -10.6360    5.8100 Zn       14 ZIL7        0.0000 
      3 Zn         88.6410  -12.4020    6.4480 Zn        9 ZIP7        0.0000 
      4 Zn         87.4340  -12.7590    5.9150 Zn        4 ZIC7        0.0000 
      5 Zn         86.2270  -13.1160    5.3820 Zn       14 ZIL7        0.0000 
      6 NZ         83.7665  -12.1950    4.0375 N.4       3 LYC4        0.0000 
      7 NZ         84.6400  -11.3490    4.4250 N.4      13 LYL4        0.0000 
      8 NZ         82.1290  -13.6020    4.5800 N.4       8 LYP4        0.0000 
      9 N          83.7665  -12.1950    4.0375 N.am      2 SEC2        0.0000 
     10 N          84.6400  -11.3490    4.4250 N.am     12 SEL2        0.0000 
     11 N          82.8930  -13.0410    3.6500 N.am      7 SEP2        0.0000 
     12 Zn         89.1195  -10.8105    1.3730 Zn        4 ZIC7        0.0000 
     13 Zn         89.3480  -11.2240    2.5300 Zn       14 ZIL7        0.0000 
     14 Zn         88.8910  -10.3970    0.2160 Zn        9 ZIP7        0.0000 
     15 NZ         89.0045  -14.3465    4.8430 N.4       3 LYC4        0.0000 
     16 NZ         89.0280  -12.8630    4.5310 N.4      13 LYL4        0.0000 
     17 NZ         90.1040  -16.0750    5.8310 N.4       8 LYP4        0.0000 
     18 Zn         88.8345  -12.6325    5.4895 Zn        4 ZIC7        0.0000 
     19 Zn         89.0280  -12.8630    4.5310 Zn       14 ZIL7        0.0000 
     20 N          89.0045  -14.3465    4.8430 N.am      2 SEC2        0.0000 
     21 N          89.0280  -12.8630    4.5310 N.am     12 SEL2        0.0000 
     22 N          88.9810  -15.8300    5.1550 N.am      7 SEP2        0.0000 
     23 N          89.8955  -13.9680    5.4770 N.am      2 SEC2        0.0000 
     24 N          90.7630  -15.0730    6.4230 N.am      7 SEP2        0.0000 
     25 Zn         88.6430  -11.5625    0.1075 Zn        4 ZIC7        0.0000 
     26 Zn         88.3950  -12.7280   -0.0010 Zn       14 ZIL7        0.0000 
     27 CA         84.4215  -15.8665   -1.6160 C.3       5 GLC5        0.0000 
     28 CA         85.4890  -15.0670    0.1060 C.3      15 GLL5        0.0000 
     29 CA         83.3540  -16.6660   -3.3380 C.3      10 GLP5        0.0000 
     30 CA         84.5265  -11.8130    0.9020 C.3       5 GLC5        0.0000 
     31 CA         85.1920  -13.9280    1.0380 C.3      15 GLL5        0.0000 
     32 CA         83.8610   -9.6980    0.7660 C.3      10 GLP5        0.0000 
     33 CA         82.1155  -14.1315    2.4090 C.3       5 GLC5        0.0000 
     34 CA         84.0060  -14.4770    1.8070 C.3      15 GLL5        0.0000 
     35 CA         80.2250  -13.7860    3.0110 C.3      10 GLP5        0.0000 
     36 N          82.8765  -13.6790    2.3375 N.am      2 SEC2        0.0000 
     37 N          82.8600  -14.3170    1.0250 N.am     12 SEL2        0.0000 
     38 CA         85.4285  -17.8865    2.1385 C.3       5 GLC5        0.0000 
     39 CA         84.3680  -15.9600    1.9480 C.3      15 GLL5        0.0000 
     40 CA         86.4890  -19.8130    2.3290 C.3      10 GLP5        0.0000 
     41 CA         83.2385  -17.1075    0.9110 C.3       5 GLC5        0.0000 
     42 CA         82.1090  -18.2550   -0.1260 C.3      10 GLP5        0.0000 
     43 N          87.7260  -16.3195    5.0020 N.am      2 SEC2        0.0000 
     44 N          86.4710  -16.8090    4.8490 N.am     12 SEL2        0.0000 
     45 CA         84.2505  -17.3140    8.2770 C.3       5 GLC5        0.0000 
     46 CA         84.7620  -17.9700    6.4230 C.3      15 GLL5        0.0000 
     47 CA         83.7390  -16.6580   10.1310 C.3      10 GLP5        0.0000 
     48 CA         83.1140  -18.7390    6.6665 C.3       5 GLC5        0.0000 
     49 CA         81.4660  -19.5080    6.9100 C.3      10 GLP5        0.0000 
     50 O          85.9015  -19.2915    8.2580 O.2       1 ALC1        0.0000 
     51 O          85.5200  -18.2590    7.4810 O.2      11 ALL1        0.0000 
     52 O          86.2830  -20.3240    9.0350 O.2       6 ALP1        0.0000 
     53 N          83.7520  -18.6335    7.9125 N.am      2 SEC2        0.0000 
     54 N          83.4590  -18.3290    6.4710 N.am     12 SEL2        0.0000 
     55 N          84.0450  -18.9380    9.3540 N.am      7 SEP2        0.0000 
     56 CA         82.0660  -18.7545    6.1730 C.3       5 GLC5        0.0000 
     57 CA         82.6660  -18.0010    5.4360 C.3      15 GLL5        0.0000 
     58 CA         83.3195  -19.9715    4.8375 C.3       5 GLC5        0.0000 
     59 CA         83.9730  -21.9420    4.2390 C.3      10 GLP5        0.0000 
     60 CA         87.1213  -16.7660   -0.4530 C.3       5 GLC5        0.0000 
     61 CA         88.0530  -18.4400   -0.7390 C.3      10 GLP5        0.0000 
@<TRIPOS>BOND
@<TRIPOS>SUBSTRUCTURE
     1 ALC1       50 GROUP        1 X    ALC  0     ROOT ALC X 1
     2 SEC2        9 GROUP        1 X    SEC  0     **** SEC X 2
     3 LYC4        6 GROUP        1 X    LYC  0     **** LYC X 4
     4 ZIC7        1 GROUP        1 X    ZIC  0     **** ZIC X 5
     5 GLC5       27 GROUP        1 X    GLC  0     **** GLC X 6
     6 ALP1       52 GROUP        1 Y    ALP  0     ROOT ALP Y 8
     7 SEP2       11 GROUP        1 Y    SEP  0     **** SEP Y 9
     8 LYP4        8 GROUP        1 Y    LYP  0     **** LYP Y 11
     9 ZIP7        3 GROUP        1 Y    ZIP  0     **** ZIP Y 12
    10 GLP5       29 GROUP        1 Y    GLP  0     **** GLP Y 13
    11 ALL1       51 GROUP        1 Z    ALL  0     ROOT ALL Z 15
    12 SEL2       10 GROUP        1 Z    SEL  0     **** SEL Z 16
    13 LYL4        7 GROUP        1 Z    LYL  0     **** LYL Z 18
    14 ZIL7        2 GROUP        1 Z    ZIL  0     **** ZIL Z 19
    15 GLL5       28 GROUP        1 Z    GLL  0     **** GLL Z 20
@<TRIPOS>SET

