#    Name: 1yfr_ATP_1_ligand
#    Modification time : Mon Apr  7 15:47:09 2014

@<TRIPOS>MOLECULE
1yfr_ATP_1_ligand
   43    45     1     0     0
SMALL
NO_CHARGES


@<TRIPOS>ATOM
      1 PG         86.0720  -11.6830    4.8580 P.3       1 ATP2500     0.0000 
      2 O1G        86.6070  -10.6360    5.8100 O.co2     1 ATP2500     0.0000 
      3 O2G        86.2270  -13.1160    5.3820 O.co2     1 ATP2500     0.0000 
      4 O3G        84.6400  -11.3490    4.4250 O.co2     1 ATP2500     0.0000 
      5 PB         88.4960  -12.1900    3.3060 P.3       1 ATP2500     0.0000 
      6 O1B        89.3480  -11.2240    2.5300 O.co2     1 ATP2500     0.0000 
      7 O2B        89.0280  -12.8630    4.5310 O.co2     1 ATP2500     0.0000 
      8 O3B        87.0740  -11.4920    3.6170 O.3       1 ATP2500     0.0000 
      9 PA         88.7220  -13.8270    0.9320 P.3       1 ATP2500     0.0000 
     10 O1A        88.3950  -12.7280   -0.0010 O.co2     1 ATP2500     0.0000 
     11 O2A        90.1310  -14.2600    1.0800 O.co2     1 ATP2500     0.0000 
     12 O3A        88.1280  -13.3970    2.3420 O.3       1 ATP2500     0.0000 
     13 O5'        87.8370  -15.1130    0.6230 O.3       1 ATP2500     0.0000 
     14 C5'        86.8900  -15.1170   -0.4400 C.3       1 ATP2500     0.0000 
     15 C4'        85.4890  -15.0670    0.1060 C.3       1 ATP2500     0.0000 
     16 O4'        85.2820  -16.2430    0.9160 O.3       1 ATP2500     0.0000 
     17 C3'        85.1920  -13.9280    1.0380 C.3       1 ATP2500     0.0000 
     18 O3'        84.7870  -12.7880    0.3070 O.3       1 ATP2500     0.0000 
     19 C2'        84.0060  -14.4770    1.8070 C.3       1 ATP2500     0.0000 
     20 O2'        82.8600  -14.3170    1.0250 O.3       1 ATP2500     0.0000 
     21 C1'        84.3680  -15.9600    1.9480 C.3       1 ATP2500     0.0000 
     22 N9         84.9620  -16.4040    3.2300 N.pl3     1 ATP2500     0.0000 
     23 C8         86.2640  -16.3000    3.6540 C.2       1 ATP2500     0.0000 
     24 N7         86.4710  -16.8090    4.8490 N.2       1 ATP2500     0.0000 
     25 C5         85.2290  -17.2820    5.2390 C.ar      1 ATP2500     0.0000 
     26 C6         84.7620  -17.9700    6.4230 C.ar      1 ATP2500     0.0000 
     27 N6         85.5200  -18.2590    7.4810 N.pl3     1 ATP2500     0.0000 
     28 N1         83.4590  -18.3290    6.4710 N.ar      1 ATP2500     0.0000 
     29 C2         82.6660  -18.0010    5.4360 C.ar      1 ATP2500     0.0000 
     30 N3         82.9720  -17.3510    4.2910 N.ar      1 ATP2500     0.0000 
     31 C4         84.2770  -17.0340    4.2510 C.ar      1 ATP2500     0.0000 
     32 H          86.9850  -16.0224   -1.0604 H         1 ATP2500     0.0000 
     33 H          87.0300  -14.2516   -1.1071 H         1 ATP2500     0.0000 
     34 H          84.7761  -15.0638   -0.6964 H         1 ATP2500     0.0000 
     35 H          85.9859  -13.7863    1.6896 H         1 ATP2500     0.0000 
     36 H          83.9803  -14.0403    2.7503 H         1 ATP2500     0.0000 
     37 H          83.4453  -16.5349    1.7602 H         1 ATP2500     0.0000 
     38 H          86.9675  -15.8715    3.0843 H         1 ATP2500     0.0000 
     39 H          85.9429  -17.4807    7.9451 H         1 ATP2500     0.0000 
     40 H          85.5974  -19.2281    7.7153 H         1 ATP2500     0.0000 
     41 H          81.6053  -18.3074    5.5335 H         1 ATP2500     0.0000 
     42 H          83.8155  -12.9329    0.1191 H         1 ATP2500     0.0000 
     43 H          82.5163  -15.2444    0.8770 H         1 ATP2500     0.0000 
@<TRIPOS>BOND
     1    2    1 ar   
     2    3    1 ar   
     3    4    1 ar   
     4    8    1 1    
     5    6    5 ar   
     6    7    5 ar   
     7    8    5 1    
     8   12    5 1    
     9   10    9 ar   
    10   11    9 ar   
    11   12    9 1    
    12   13    9 1    
    13   14   13 1    
    14   15   14 1    
    15   32   14 1    
    16   33   14 1    
    17   16   15 1    
    18   17   15 1    
    19   34   15 1    
    20   21   16 1    
    21   18   17 1    
    22   19   17 1    
    23   35   17 1    
    24   42   18 1    
    25   20   19 1    
    26   21   19 1    
    27   36   19 1    
    28   43   20 1    
    29   22   21 1    
    30   37   21 1    
    31   23   22 1    
    32   31   22 1    
    33   24   23 2    
    34   38   23 1    
    35   25   24 1    
    36   26   25 ar   
    37   31   25 ar   
    38   27   26 1    
    39   28   26 ar   
    40   39   27 1    
    41   40   27 1    
    42   29   28 ar   
    43   30   29 ar   
    44   41   29 1    
    45   31   30 ar   
@<TRIPOS>SUBSTRUCTURE
     1 ATP2500     1 GROUP   
@<TRIPOS>SET

