#    Name: 2woa_576_1_INTS_M
#    Modification time : Tue Mar 25 04:31:23 2014

@<TRIPOS>MOLECULE
2woa_576_1_INTS_M
   56     0     9     0     0
SMALL
NO_CHARGES


@<TRIPOS>ATOM
      1 N          16.0780   24.1090    2.1200 N.am      1 SEC2        0.0000 
      2 N          16.0320   25.3990    1.3780 N.am      7 SEL2        0.0000 
      3 N          16.1240   22.8190    2.8620 N.am      4 SEP2        0.0000 
      4 CA         17.4415   24.4175    1.4660 C.3       3 GLC5        0.0000 
      5 CA         16.8480   26.5840    1.5250 C.3       9 GLL5        0.0000 
      6 CA         18.0350   22.2510    1.4070 C.3       6 GLP5        0.0000 
      7 CA         15.6000   26.0765    4.0595 C.3       3 GLC5        0.0000 
      8 CA         16.2970   27.5170    2.6270 C.3       9 GLL5        0.0000 
      9 CA         14.9030   24.6360    5.4920 C.3       6 GLP5        0.0000 
     10 Zn         16.7775   30.6045    1.8440 Zn        2 ZIC7        0.0000 
     11 Zn         16.1310   29.8320    1.9890 Zn        8 ZIL7        0.0000 
     12 Zn         17.4240   31.3770    1.6990 Zn        5 ZIP7        0.0000 
     13 Zn         17.6745   30.2540    2.4180 Zn        2 ZIC7        0.0000 
     14 Zn         17.9250   29.1310    3.1370 Zn        8 ZIL7        0.0000 
     15 N          19.0790   28.3810    3.0390 N.am      1 SEC2        0.0000 
     16 N          17.9250   29.1310    3.1370 N.am      7 SEL2        0.0000 
     17 N          20.2330   27.6310    2.9410 N.am      4 SEP2        0.0000 
     18 CA         18.0690   24.4220   -0.7810 C.3       3 GLC5        0.0000 
     19 CA         18.3950   26.5710   -0.5080 C.3       9 GLL5        0.0000 
     20 CA         17.7430   22.2730   -1.0540 C.3       6 GLP5        0.0000 
     21 CA         20.2040   25.4190    0.1390 C.3       3 GLC5        0.0000 
     22 CA         22.0130   24.2670    0.7860 C.3       6 GLP5        0.0000 
     23 CA         21.6950   25.8370   -1.7545 C.3       3 GLC5        0.0000 
     24 CA         19.9100   26.4380   -2.5100 C.3       9 GLL5        0.0000 
     25 CA         23.4800   25.2360   -0.9990 C.3       6 GLP5        0.0000 
     26 CA         22.4605   25.7770   -2.8110 C.3       3 GLC5        0.0000 
     27 CA         21.4410   26.3180   -4.6230 C.3       9 GLL5        0.0000 
     28 CA         20.6355   24.7945   -4.3425 C.3       3 GLC5        0.0000 
     29 CA         19.8300   23.2710   -4.0620 C.3       6 GLP5        0.0000 
     30 CA         21.9820   29.4170   -5.3615 C.3       3 GLC5        0.0000 
     31 CA         20.3340   28.1660   -5.7230 C.3       9 GLL5        0.0000 
     32 CA         23.6300   30.6680   -5.0000 C.3       6 GLP5        0.0000 
     33 CA         18.8302   28.5038    0.1050 C.3       3 GLC5        0.0000 
     34 CA         19.8950   30.1260    0.3970 C.3       6 GLP5        0.0000 
     35 CA         19.5650   28.8680   -1.4765 C.3       3 GLC5        0.0000 
     36 CA         18.8240   27.0780   -1.8750 C.3       9 GLL5        0.0000 
     37 CA         20.6230   30.1190   -0.7480 C.3       6 GLP5        0.0000 
     38 CA         18.3280   26.0360   -3.6242 C.3       3 GLC5        0.0000 
     39 CA         17.2890   25.3140   -5.0560 C.3       6 GLP5        0.0000 
     40 CA         21.0445   28.1090   -2.0942 C.3       3 GLC5        0.0000 
     41 CA         21.9770   29.5590   -1.0500 C.3       6 GLP5        0.0000 
     42 CA         23.2742   25.9566   -5.6811 C.3       3 GLC5        0.0000 
     43 CA         22.1830   27.1830   -7.0100 C.3       9 GLL5        0.0000 
     44 CA         24.7570   24.9350   -5.2370 C.3       6 GLP5        0.0000 
     45 CA         22.7470   29.1623   -6.1240 C.3       3 GLC5        0.0000 
     46 CA         21.3590   27.2290   -5.8580 C.3       9 GLL5        0.0000 
     47 CA         21.2160   30.6468   -6.6907 C.3       3 GLC5        0.0000 
     48 CA         20.9120   29.0550   -7.9290 C.3       9 GLL5        0.0000 
     49 CA         21.9270   32.2220   -6.0380 C.3       6 GLP5        0.0000 
     50 CA         18.7270   26.5521   -4.9815 C.3       3 GLC5        0.0000 
     51 CA         19.8837   29.1973   -2.4305 C.3       3 GLC5        0.0000 
     52 CA         19.6780   27.9490   -4.4150 C.3       9 GLL5        0.0000 
     53 CA         16.4348   28.1025   -3.9765 C.3       3 GLC5        0.0000 
     54 CA         18.6110   28.6020   -3.8110 C.3       9 GLL5        0.0000 
     55 CA         14.4690   27.8260   -4.7800 C.3       6 GLP5        0.0000 
     56 CA         17.8448   26.8465   -4.1145 C.3       3 GLC5        0.0000 
@<TRIPOS>BOND
@<TRIPOS>SUBSTRUCTURE
     1 SEC2        1 GROUP        1 X    SEC  0     ROOT SEC X 2
     2 ZIC7       10 GROUP        1 X    ZIC  0     **** ZIC X 5
     3 GLC5        4 GROUP        1 X    GLC  0     **** GLC X 6
     4 SEP2        3 GROUP        1 Y    SEP  0     ROOT SEP Y 9
     5 ZIP7       12 GROUP        1 Y    ZIP  0     **** ZIP Y 12
     6 GLP5        6 GROUP        1 Y    GLP  0     **** GLP Y 13
     7 SEL2        2 GROUP        1 Z    SEL  0     ROOT SEL Z 16
     8 ZIL7       11 GROUP        1 Z    ZIL  0     **** ZIL Z 19
     9 GLL5        5 GROUP        1 Z    GLL  0     **** GLL Z 20
@<TRIPOS>SET

