#    Name: 2woa_576_1_ligand
#    Modification time : Tue Mar 25 04:31:24 2014

@<TRIPOS>MOLECULE
2woa_576_1_ligand
   38    40     1     0     0
SMALL
NO_CHARGES


@<TRIPOS>ATOM
      1 O1         16.0320   25.3990    1.3780 O.3       1 5761273     0.0000 
      2 C2         16.8480   26.5840    1.5250 C.3       1 5761273     0.0000 
      3 C17        16.2970   27.5170    2.6270 C.3       1 5761273     0.0000 
      4 C18        16.8190   28.9530    2.5700 C.2       1 5761273     0.0000 
      5 O20        16.1310   29.8320    1.9890 O.co2     1 5761273     0.0000 
      6 O19        17.9250   29.1310    3.1370 O.co2     1 5761273     0.0000 
      7 C3         17.1360   27.1920    0.1340 C.3       1 5761273     0.0000 
      8 C4         18.3950   26.5710   -0.5080 C.3       1 5761273     0.0000 
      9 C5         18.8240   27.0780   -1.8750 C.ar      1 5761273     0.0000 
     10 C6         19.9100   26.4380   -2.5100 C.ar      1 5761273     0.0000 
     11 C7         20.3140   26.8800   -3.7670 C.ar      1 5761273     0.0000 
     12 C1         21.4410   26.3180   -4.6230 C.3       1 5761273     0.0000 
     13 C16        21.3590   27.2290   -5.8580 C.ar      1 5761273     0.0000 
     14 C15        22.1830   27.1830   -7.0100 C.ar      1 5761273     0.0000 
     15 C14        21.9570   28.1070   -8.0620 C.ar      1 5761273     0.0000 
     16 C13        20.9120   29.0550   -7.9290 C.ar      1 5761273     0.0000 
     17 C12        20.0980   29.0880   -6.7580 C.ar      1 5761273     0.0000 
     18 C11        20.3340   28.1660   -5.7230 C.ar      1 5761273     0.0000 
     19 C8         19.6780   27.9490   -4.4150 C.ar      1 5761273     0.0000 
     20 C9         18.6110   28.6020   -3.8110 C.ar      1 5761273     0.0000 
     21 C10        18.1900   28.1560   -2.5350 C.ar      1 5761273     0.0000 
     22 H          17.8622   26.2241    1.9079 H         1 5761273     0.0000 
     23 H          16.5462   27.0812    3.6101 H         1 5761273     0.0000 
     24 H          15.1956   27.5303    2.5546 H         1 5761273     0.0000 
     25 H          17.2828   28.2653    0.2394 H         1 5761273     0.0000 
     26 H          16.2807   27.0137   -0.5151 H         1 5761273     0.0000 
     27 H          18.2411   25.4630   -0.5656 H         1 5761273     0.0000 
     28 H          19.2461   26.7001    0.2087 H         1 5761273     0.0000 
     29 H          20.3852   25.6653   -2.0485 H         1 5761273     0.0000 
     30 H          21.2270   25.3282   -4.9001 H         1 5761273     0.0000 
     31 H          22.3646   26.4565   -4.1432 H         1 5761273     0.0000 
     32 H          22.9264   26.4970   -7.0820 H         1 5761273     0.0000 
     33 H          22.5327   28.0892   -8.8936 H         1 5761273     0.0000 
     34 H          20.7356   29.7271   -8.6814 H         1 5761273     0.0000 
     35 H          19.3545   29.7771   -6.6811 H         1 5761273     0.0000 
     36 H          18.1396   29.3761   -4.2603 H         1 5761273     0.0000 
     37 H          17.3973   28.6319   -2.0737 H         1 5761273     0.0000 
     38 H          15.7593   25.3904    0.4159 H         1 5761273     0.0000 
@<TRIPOS>BOND
     1    2    1 1    
     2   38    1 1    
     3    3    2 1    
     4    7    2 1    
     5   22    2 1    
     6    4    3 1    
     7   23    3 1    
     8   24    3 1    
     9    5    4 ar   
    10    6    4 ar   
    11    8    7 1    
    12   25    7 1    
    13   26    7 1    
    14    9    8 1    
    15   27    8 1    
    16   28    8 1    
    17   10    9 ar   
    18   21    9 ar   
    19   11   10 ar   
    20   29   10 1    
    21   12   11 1    
    22   19   11 ar   
    23   13   12 1    
    24   30   12 1    
    25   31   12 1    
    26   14   13 ar   
    27   18   13 ar   
    28   15   14 ar   
    29   32   14 1    
    30   16   15 ar   
    31   33   15 1    
    32   17   16 ar   
    33   34   16 1    
    34   18   17 ar   
    35   35   17 1    
    36   19   18 1    
    37   20   19 ar   
    38   21   20 ar   
    39   36   20 1    
    40   37   21 1    
@<TRIPOS>SUBSTRUCTURE
     1 5761273     1 GROUP   
@<TRIPOS>SET

