#    Name: 1gwn_GTP_1_INTS_M
#    Modification time : Tue Mar 25 04:04:39 2014

@<TRIPOS>MOLECULE
1gwn_GTP_1_INTS_M
   73     0    15     0     0
SMALL
NO_CHARGES


@<TRIPOS>ATOM
      1 N          37.2075   39.6060   61.3035 N.am      2 SEC2        0.0000 
      2 N          36.3600   40.6420   61.0560 N.am     12 SEL2        0.0000 
      3 N          38.0550   38.5700   61.5510 N.am      7 SEP2        0.0000 
      4 Zn         37.9195   43.6315   60.5260 Zn        4 ZIC7        0.0000 
      5 Zn         37.2920   42.8860   60.9880 Zn       14 ZIL7        0.0000 
      6 Zn         38.5470   44.3770   60.0640 Zn        9 ZIP7        0.0000 
      7 N          37.5565   43.0940   62.3440 N.am      2 SEC2        0.0000 
      8 N          37.2920   42.8860   60.9880 N.am     12 SEL2        0.0000 
      9 N          37.8210   43.3020   63.7000 N.am      7 SEP2        0.0000 
     10 NZ         34.6570   42.7980   58.5935 N.4       3 LYC4        0.0000 
     11 NZ         35.0980   42.3890   59.7290 N.4      13 LYL4        0.0000 
     12 NZ         34.2160   43.2070   57.4580 N.4       8 LYP4        0.0000 
     13 N          34.6570   42.7980   58.5935 N.am      2 SEC2        0.0000 
     14 N          35.0980   42.3890   59.7290 N.am     12 SEL2        0.0000 
     15 N          34.2160   43.2070   57.4580 N.am      7 SEP2        0.0000 
     16 N          33.7325   42.7335   60.2420 N.am      2 SEC2        0.0000 
     17 N          32.3670   43.0780   60.7550 N.am      7 SEP2        0.0000 
     18 N          36.6290   40.3825   58.3350 N.am      2 SEC2        0.0000 
     19 N          37.2560   41.5580   58.9580 N.am     12 SEL2        0.0000 
     20 N          36.0020   39.2070   57.7120 N.am      7 SEP2        0.0000 
     21 NZ         35.5185   42.8695   57.0485 N.4       3 LYC4        0.0000 
     22 NZ         36.8210   42.5320   56.6390 N.4      13 LYL4        0.0000 
     23 N          36.5035   41.2205   55.8530 N.am      2 SEC2        0.0000 
     24 N          36.8210   42.5320   56.6390 N.am     12 SEL2        0.0000 
     25 N          36.1860   39.9090   55.0670 N.am      7 SEP2        0.0000 
     26 N          37.3440   42.1210   55.2965 N.am      2 SEC2        0.0000 
     27 N          37.8670   41.7100   53.9540 N.am      7 SEP2        0.0000 
     28 N          37.4090   43.4890   55.6465 N.am      2 SEC2        0.0000 
     29 N          37.9970   44.4460   54.6540 N.am      7 SEP2        0.0000 
     30 N          35.5185   42.8695   57.0485 N.am      2 SEC2        0.0000 
     31 Zn         38.5640   44.0290   59.1135 Zn        4 ZIC7        0.0000 
     32 Zn         38.5810   43.6810   58.1630 Zn       14 ZIL7        0.0000 
     33 N          39.0630   44.7855   57.4375 N.am      2 SEC2        0.0000 
     34 N          38.5810   43.6810   58.1630 N.am     12 SEL2        0.0000 
     35 N          39.5450   45.8900   56.7120 N.am      7 SEP2        0.0000 
     36 N          38.4490   41.5805   55.5855 N.am      2 SEC2        0.0000 
     37 N          39.0310   41.4510   57.2170 N.am     12 SEL2        0.0000 
     38 N          41.4625   44.2705   55.9535 N.am      2 SEC2        0.0000 
     39 N          40.7470   43.0600   56.1660 N.am     12 SEL2        0.0000 
     40 N          42.1780   45.4810   55.7410 N.am      7 SEP2        0.0000 
     41 CA         38.9045   38.9805   56.7375 C.3       5 GLC5        0.0000 
     42 CA         40.7170   39.2950   56.5290 C.3      15 GLL5        0.0000 
     43 CA         37.0920   38.6660   56.9460 C.3      10 GLP5        0.0000 
     44 CA         40.7060   38.3150   54.0955 C.3       5 GLC5        0.0000 
     45 CA         41.6660   38.1940   56.0950 C.3      15 GLL5        0.0000 
     46 CA         39.7460   38.4360   52.0960 C.3      10 GLP5        0.0000 
     47 CA         43.3430   38.3725   58.6300 C.3       5 GLC5        0.0000 
     48 CA         43.0670   38.5020   56.5910 C.3      15 GLL5        0.0000 
     49 CA         43.6190   38.2430   60.6690 C.3      10 GLP5        0.0000 
     50 CA         45.1405   40.2725   54.3275 C.3       5 GLC5        0.0000 
     51 CA         43.7430   39.1840   55.4510 C.3      15 GLL5        0.0000 
     52 CA         46.5380   41.3610   53.2040 C.3      10 GLP5        0.0000 
     53 CA         41.3970   38.4780   53.1800 C.3       5 GLC5        0.0000 
     54 CA         43.0480   38.5200   54.2640 C.3      15 GLL5        0.0000 
     55 CA         41.6725   39.8970   50.4690 C.3       5 GLC5        0.0000 
     56 CA         43.2050   40.4400   51.1910 C.3      15 GLL5        0.0000 
     57 CA         40.1400   39.3540   49.7470 C.3      10 GLP5        0.0000 
     58 CA         45.1280   40.6100   50.1255 C.3       5 GLC5        0.0000 
     59 CA         47.0510   40.7800   49.0600 C.3      10 GLP5        0.0000 
     60 N          44.8190   42.3125   49.0450 N.am      2 SEC2        0.0000 
     61 N          43.4350   41.5270   49.1030 N.am     12 SEL2        0.0000 
     62 N          46.2030   43.0980   48.9870 N.am      7 SEP2        0.0000 
     63 O          44.0215   39.3070   47.8590 O.2       1 ALC1        0.0000 
     64 O          43.9410   39.2860   49.3160 O.2      11 ALL1        0.0000 
     65 O          44.1020   39.3280   46.4020 O.2       6 ALP1        0.0000 
     66 O          44.8065   37.2335   47.9315 O.2       1 ALC1        0.0000 
     67 O          44.4540   37.0700   49.3350 O.2      11 ALL1        0.0000 
     68 O          45.1590   37.3970   46.5280 O.2       6 ALP1        0.0000 
     69 CA         41.7510   38.6675   51.2905 C.3       5 GLC5        0.0000 
     70 CA         43.3700   39.1860   51.9230 C.3      15 GLL5        0.0000 
     71 CA         40.1320   38.1490   50.6580 C.3      10 GLP5        0.0000 
     72 CA         41.2942   39.0583   58.3490 C.3       5 GLC5        0.0000 
     73 CA         41.3970   39.3720   60.3860 C.3      10 GLP5        0.0000 
@<TRIPOS>BOND
@<TRIPOS>SUBSTRUCTURE
     1 ALC1       63 GROUP        1 X    ALC  0     ROOT ALC X 1
     2 SEC2        1 GROUP        1 X    SEC  0     **** SEC X 2
     3 LYC4       10 GROUP        1 X    LYC  0     **** LYC X 4
     4 ZIC7        4 GROUP        1 X    ZIC  0     **** ZIC X 5
     5 GLC5       41 GROUP        1 X    GLC  0     **** GLC X 6
     6 ALP1       65 GROUP        1 Y    ALP  0     ROOT ALP Y 8
     7 SEP2        3 GROUP        1 Y    SEP  0     **** SEP Y 9
     8 LYP4       12 GROUP        1 Y    LYP  0     **** LYP Y 11
     9 ZIP7        6 GROUP        1 Y    ZIP  0     **** ZIP Y 12
    10 GLP5       43 GROUP        1 Y    GLP  0     **** GLP Y 13
    11 ALL1       64 GROUP        1 Z    ALL  0     ROOT ALL Z 15
    12 SEL2        2 GROUP        1 Z    SEL  0     **** SEL Z 16
    13 LYL4       11 GROUP        1 Z    LYL  0     **** LYL Z 18
    14 ZIL7        5 GROUP        1 Z    ZIL  0     **** ZIL Z 19
    15 GLL5       42 GROUP        1 Z    GLL  0     **** GLL Z 20
@<TRIPOS>SET

