#    Name: 1gwn_GTP_1_ligand
#    Modification time : Tue Mar 25 04:04:39 2014

@<TRIPOS>MOLECULE
1gwn_GTP_1_ligand
   44    46     1     0     0
SMALL
NO_CHARGES


@<TRIPOS>ATOM
      1 PG         36.3990   41.9320   60.2830 P.3       1 GTP1201     0.0000 
      2 O1G        36.3600   40.6420   61.0560 O.co2     1 GTP1201     0.0000 
      3 O2G        37.2920   42.8860   60.9880 O.co2     1 GTP1201     0.0000 
      4 O3G        35.0980   42.3890   59.7290 O.co2     1 GTP1201     0.0000 
      5 O3B        37.2560   41.5580   58.9580 O.3       1 GTP1201     0.0000 
      6 PB         37.8490   42.4220   57.7390 P.3       1 GTP1201     0.0000 
      7 O1B        36.8210   42.5320   56.6390 O.co2     1 GTP1201     0.0000 
      8 O2B        38.5810   43.6810   58.1630 O.co2     1 GTP1201     0.0000 
      9 O3A        39.0310   41.4510   57.2170 O.3       1 GTP1201     0.0000 
     10 PA         40.5720   41.8290   56.9730 P.3       1 GTP1201     0.0000 
     11 O1A        40.7470   43.0600   56.1660 O.co2     1 GTP1201     0.0000 
     12 O2A        41.1900   41.7720   58.3310 O.co2     1 GTP1201     0.0000 
     13 O5'        41.1430   40.5990   56.1080 O.3       1 GTP1201     0.0000 
     14 C5'        40.7170   39.2950   56.5290 C.3       1 GTP1201     0.0000 
     15 C4'        41.6660   38.1940   56.0950 C.3       1 GTP1201     0.0000 
     16 O4'        41.7260   38.1260   54.6640 O.3       1 GTP1201     0.0000 
     17 C3'        43.0670   38.5020   56.5910 C.3       1 GTP1201     0.0000 
     18 O3'        43.7540   37.2830   56.7990 O.3       1 GTP1201     0.0000 
     19 C2'        43.7430   39.1840   55.4510 C.3       1 GTP1201     0.0000 
     20 O2'        45.1690   38.9860   55.4910 O.3       1 GTP1201     0.0000 
     21 C1'        43.0480   38.5200   54.2640 C.3       1 GTP1201     0.0000 
     22 N9         43.0290   39.4720   53.1590 N.pl3     1 GTP1201     0.0000 
     23 C8         42.7050   40.7400   53.2300 C.2       1 GTP1201     0.0000 
     24 N7         42.7730   41.3560   52.0150 N.2       1 GTP1201     0.0000 
     25 C5         43.2050   40.4400   51.1910 C.2       1 GTP1201     0.0000 
     26 C6         43.5260   40.4600   49.7810 C.2       1 GTP1201     0.0000 
     27 O6         43.4350   41.5270   49.1030 O.2       1 GTP1201     0.0000 
     28 N1         43.9410   39.2860   49.3160 N.am      1 GTP1201     0.0000 
     29 C2         44.0530   38.1600   50.0220 C.2       1 GTP1201     0.0000 
     30 N2         44.4540   37.0700   49.3350 N.pl3     1 GTP1201     0.0000 
     31 N3         43.7850   38.0850   51.3170 N.2       1 GTP1201     0.0000 
     32 C4         43.3700   39.1860   51.9230 C.2       1 GTP1201     0.0000 
     33 H          39.7117   39.0546   56.1250 H         1 GTP1201     0.0000 
     34 H          40.6217   39.2443   57.6335 H         1 GTP1201     0.0000 
     35 H          41.3510   37.2664   56.5183 H         1 GTP1201     0.0000 
     36 H          43.0285   39.1212   57.4179 H         1 GTP1201     0.0000 
     37 H          43.4529   40.2121   55.4621 H         1 GTP1201     0.0000 
     38 H          43.6426   37.6554   53.9954 H         1 GTP1201     0.0000 
     39 H          42.4374   41.2225   54.0572 H         1 GTP1201     0.0000 
     40 H          44.2147   39.2373   48.2638 H         1 GTP1201     0.0000 
     41 H          44.5848   37.1934   48.3513 H         1 GTP1201     0.0000 
     42 H          44.5848   36.2358   49.8707 H         1 GTP1201     0.0000 
     43 H          44.6410   37.4068   56.3541 H         1 GTP1201     0.0000 
     44 H          45.4472   38.9148   54.5331 H         1 GTP1201     0.0000 
@<TRIPOS>BOND
     1    2    1 ar   
     2    3    1 ar   
     3    4    1 ar   
     4    5    1 1    
     5    6    5 1    
     6    7    6 ar   
     7    8    6 ar   
     8    9    6 1    
     9   10    9 1    
    10   11   10 ar   
    11   12   10 ar   
    12   13   10 1    
    13   14   13 1    
    14   15   14 1    
    15   33   14 1    
    16   34   14 1    
    17   16   15 1    
    18   17   15 1    
    19   35   15 1    
    20   21   16 1    
    21   18   17 1    
    22   19   17 1    
    23   36   17 1    
    24   43   18 1    
    25   20   19 1    
    26   21   19 1    
    27   37   19 1    
    28   44   20 1    
    29   22   21 1    
    30   38   21 1    
    31   23   22 1    
    32   32   22 1    
    33   24   23 2    
    34   39   23 1    
    35   25   24 1    
    36   26   25 1    
    37   32   25 2    
    38   27   26 2    
    39   28   26 am   
    40   29   28 1    
    41   40   28 1    
    42   30   29 1    
    43   31   29 2    
    44   41   30 1    
    45   42   30 1    
    46   32   31 1    
@<TRIPOS>SUBSTRUCTURE
     1 GTP1201     1 GROUP   
@<TRIPOS>SET

