#    Name: 1d7y_FAD_1_INTS_M
#    Modification time : Mon Mar 24 21:34:47 2014

@<TRIPOS>MOLECULE
1d7y_FAD_1_INTS_M
  121     0    12     0     0
SMALL
NO_CHARGES


@<TRIPOS>ATOM
      1 NZ         63.2985   14.6165    8.4320 N.4       3 LYC4        0.0000 
      2 NZ         62.2180   13.7500    8.0360 N.4      11 LYL4        0.0000 
      3 NZ         65.5340   15.6030    8.1820 N.4       7 LYP4        0.0000 
      4 N          63.2985   14.6165    8.4320 N.am      2 SEC2        0.0000 
      5 N          62.2180   13.7500    8.0360 N.am     10 SEL2        0.0000 
      6 N          64.3790   15.4830    8.8280 N.am      6 SEP2        0.0000 
      7 NZ         63.0440   11.0600    8.0090 N.4       3 LYC4        0.0000 
      8 NZ         62.5640   11.7330    9.4600 N.4      11 LYL4        0.0000 
      9 NZ         64.7510   10.6470    6.9910 N.4       7 LYP4        0.0000 
     10 N          63.7470   11.4900    8.8125 N.am      2 SEC2        0.0000 
     11 N          62.5640   11.7330    9.4600 N.am     10 SEL2        0.0000 
     12 N          64.9300   11.2470    8.1650 N.am      6 SEP2        0.0000 
     13 N          63.0440   11.0600    8.0090 N.am      2 SEC2        0.0000 
     14 N          63.5240   10.3870    6.5580 N.am      6 SEP2        0.0000 
     15 CA         59.7095   14.4135    7.8980 C.3       4 GLC5        0.0000 
     16 CA         59.6260   12.5910    7.4100 C.3      12 GLL5        0.0000 
     17 CA         59.7930   16.2360    8.3860 C.3       8 GLP5        0.0000 
     18 CA         57.4030   11.0630    6.2805 C.3       4 GLC5        0.0000 
     19 CA         59.3590   11.5670    6.2810 C.3      12 GLL5        0.0000 
     20 CA         55.4470   10.5590    6.2800 C.3       8 GLP5        0.0000 
     21 O          62.0125    9.6965    4.4025 O.2       1 ALC1        0.0000 
     22 O          60.8650   10.1070    4.9460 O.2       9 ALL1        0.0000 
     23 O          63.1600    9.2860    3.8590 O.2       5 ALP1        0.0000 
     24 O          59.8910   11.9450    1.3760 O.2       1 ALC1        0.0000 
     25 O          60.6570   12.0020    2.9150 O.2       9 ALL1        0.0000 
     26 O          59.1250   11.8880   -0.1630 O.2       5 ALP1        0.0000 
     27 O          59.8995   11.1570    2.1370 O.2       1 ALC1        0.0000 
     28 O          59.1420   10.3120    1.3590 O.2       5 ALP1        0.0000 
     29 CA         57.0150   11.2040    5.1890 C.3       4 GLC5        0.0000 
     30 CA         58.5830   11.8490    4.0980 C.3      12 GLL5        0.0000 
     31 CA         54.7435   13.0465   -0.7415 C.3       4 GLC5        0.0000 
     32 CA         54.8350   13.4300    1.2770 C.3      12 GLL5        0.0000 
     33 CA         54.6520   12.6630   -2.7600 C.3       8 GLP5        0.0000 
     34 CA         52.7955   13.0245    1.0580 C.3       4 GLC5        0.0000 
     35 CA         50.7560   12.6190    0.8390 C.3       8 GLP5        0.0000 
     36 O          53.1065   14.4115   -0.2640 O.2       1 ALC1        0.0000 
     37 O          54.2660   14.4420    0.6810 O.2       9 ALL1        0.0000 
     38 O          51.9470   14.3810   -1.2090 O.2       5 ALP1        0.0000 
     39 N          53.2660   11.8880    0.1515 N.am      2 SEC2        0.0000 
     40 N          54.3080   12.1580    1.1810 N.am     10 SEL2        0.0000 
     41 N          52.2240   11.6180   -0.8780 N.am      6 SEP2        0.0000 
     42 CA         53.2700    9.6845    1.6170 C.3       4 GLC5        0.0000 
     43 CA         54.8760   11.0730    1.7880 C.3      12 GLL5        0.0000 
     44 CA         51.6640    8.2960    1.4460 C.3       8 GLP5        0.0000 
     45 CA         55.3730    9.1860    2.4260 C.3       4 GLC5        0.0000 
     46 CA         55.8700    7.2990    3.0640 C.3       8 GLP5        0.0000 
     47 CA         56.2625   10.5675    0.6400 C.3       4 GLC5        0.0000 
     48 CA         57.6490   10.0620   -0.5080 C.3       8 GLP5        0.0000 
     49 CA         54.3670   10.7080   -0.1850 C.3       4 GLC5        0.0000 
     50 CA         53.8580   10.3430   -2.1580 C.3       8 GLP5        0.0000 
     51 N          56.4805    9.7785    1.8965 N.am      2 SEC2        0.0000 
     52 N          55.9930   11.0750    2.5430 N.am     10 SEL2        0.0000 
     53 N          56.9680    8.4820    1.2500 N.am      6 SEP2        0.0000 
     54 CA         55.9995   11.4405    4.4725 C.3       4 GLC5        0.0000 
     55 CA         56.5520   12.3220    2.6650 C.3      12 GLL5        0.0000 
     56 CA         57.1005   11.1920    1.0785 C.3       4 GLC5        0.0000 
     57 N          67.3670   14.2475   16.7585 N.am      2 SEC2        0.0000 
     58 N          68.8760   14.2620   16.0360 N.am     10 SEL2        0.0000 
     59 N          65.8580   14.2330   17.4810 N.am      6 SEP2        0.0000 
     60 N          67.3255   14.3125   17.8545 N.am      2 SEC2        0.0000 
     61 N          68.7930   14.3920   18.2280 N.am     10 SEL2        0.0000 
     62 N          73.4075   12.0415   15.6445 N.am      2 SEC2        0.0000 
     63 N          72.5410   12.5500   16.5810 N.am     10 SEL2        0.0000 
     64 N          74.2740   11.5330   14.7080 N.am      6 SEP2        0.0000 
     65 N          72.9615   12.2230   14.3230 N.am      2 SEC2        0.0000 
     66 N          71.6490   12.9130   13.9380 N.am     10 SEL2        0.0000 
     67 CA         72.4195   10.6370    8.5710 C.3       4 GLC5        0.0000 
     68 CA         72.2340   12.5340    9.0840 C.3      12 GLL5        0.0000 
     69 CA         72.6050    8.7400    8.0580 C.3       8 GLP5        0.0000 
     70 CA         74.1535   12.2780    9.5520 C.3       4 GLC5        0.0000 
     71 CA         76.0730   12.0220   10.0200 C.3       8 GLP5        0.0000 
     72 CA         73.0665   12.7695    7.3735 C.3       4 GLC5        0.0000 
     73 CA         73.8990   13.0050    5.6630 C.3       8 GLP5        0.0000 
     74 CA         73.4630   14.2300    9.0310 C.3       4 GLC5        0.0000 
     75 CA         74.6920   15.9260    8.9780 C.3       8 GLP5        0.0000 
     76 CA         67.8515   12.6355    8.7300 C.3       4 GLC5        0.0000 
     77 CA         69.4710   13.7670    8.6880 C.3      12 GLL5        0.0000 
     78 CA         66.2320   11.5040    8.7720 C.3       8 GLP5        0.0000 
     79 CA         68.2015   14.4250    7.4660 C.3       4 GLC5        0.0000 
     80 CA         66.9320   15.0830    6.2440 C.3       8 GLP5        0.0000 
     81 CA         70.7085   15.2780    9.5920 C.3       4 GLC5        0.0000 
     82 CA         71.9460   16.7890   10.4960 C.3       8 GLP5        0.0000 
     83 CA         66.0075   13.2045   15.5145 C.3       4 GLC5        0.0000 
     84 CA         66.6210   13.5470   13.5020 C.3      12 GLL5        0.0000 
     85 CA         65.3940   12.8620   17.5270 C.3       8 GLP5        0.0000 
     86 O          64.0145   16.1475   13.7315 O.2       1 ALC1        0.0000 
     87 O          64.9750   15.1410   14.1880 O.2       9 ALL1        0.0000 
     88 O          63.0540   17.1540   13.2750 O.2       5 ALP1        0.0000 
     89 CA         62.3325   15.8165   11.9740 C.3       4 GLC5        0.0000 
     90 CA         62.9180   13.9570   12.6040 C.3      12 GLL5        0.0000 
     91 CA         61.7470   17.6760   11.3440 C.3       8 GLP5        0.0000 
     92 N          59.3125   11.0650   12.7745 N.am      2 SEC2        0.0000 
     93 N          59.7320   11.8830   11.7880 N.am     10 SEL2        0.0000 
     94 N          58.8930   10.2470   13.7610 N.am      6 SEP2        0.0000 
     95 N          59.9000   15.7930   12.4565 N.am      2 SEC2        0.0000 
     96 N          59.8870   14.3470   12.0070 N.am     10 SEL2        0.0000 
     97 N          59.9130   17.2390   12.9060 N.am      6 SEP2        0.0000 
     98 CA         59.6532   10.4300    8.2787 C.3       4 GLC5        0.0000 
     99 CA         59.8140    8.7810    9.7120 C.3       8 GLP5        0.0000 
    100 CA         58.0562   13.5265    6.7728 C.3       4 GLC5        0.0000 
    101 CA         56.6200   14.9740    6.7000 C.3       8 GLP5        0.0000 
    102 CA         55.3441   14.0356    3.6258 C.3       4 GLC5        0.0000 
    103 CA         56.0620   13.5270    2.0870 C.3      12 GLL5        0.0000 
    104 CA         54.6880   15.1710    5.0780 C.3       8 GLP5        0.0000 
    105 CA         72.3963   14.6615   11.5678 C.3       4 GLC5        0.0000 
    106 CA         71.1000   13.1370   12.6960 C.3      12 GLL5        0.0000 
    107 CA         73.3100   16.3740   11.0100 C.3       8 GLP5        0.0000 
    108 CA         69.3257   11.7775   10.2190 C.3       4 GLC5        0.0000 
    109 CA         71.3850   12.9460   10.2660 C.3      12 GLL5        0.0000 
    110 CA         67.9310   10.3120   10.2760 C.3       8 GLP5        0.0000 
    111 CA         71.3333   15.0160   10.3290 C.3       4 GLC5        0.0000 
    112 CA         70.0560   13.5400   10.0580 C.3      12 GLL5        0.0000 
    113 CA         68.7372   12.0665   11.0583 C.3       4 GLC5        0.0000 
    114 CA         69.2910   13.9180   11.1840 C.3      12 GLL5        0.0000 
    115 CA         70.7448   15.3050   11.1683 C.3       4 GLC5        0.0000 
    116 CA         70.9201   11.4992   12.8641 C.3       4 GLC5        0.0000 
    117 CA         69.7960   13.7240   12.4970 C.3      12 GLL5        0.0000 
    118 CA         71.2010    9.6620   13.4170 C.3       8 GLP5        0.0000 
    119 CA         62.2750   13.2342   14.3175 C.3       4 GLC5        0.0000 
    120 CA         64.1820   13.2080   12.9880 C.3      12 GLL5        0.0000 
    121 CA         61.0000   12.8860   15.8390 C.3       8 GLP5        0.0000 
@<TRIPOS>BOND
@<TRIPOS>SUBSTRUCTURE
     1 ALC1       21 GROUP        1 X    ALC  0     ROOT ALC X 1
     2 SEC2        4 GROUP        1 X    SEC  0     **** SEC X 2
     3 LYC4        1 GROUP        1 X    LYC  0     **** LYC X 4
     4 GLC5       15 GROUP        1 X    GLC  0     **** GLC X 6
     5 ALP1       23 GROUP        1 Y    ALP  0     ROOT ALP Y 8
     6 SEP2        6 GROUP        1 Y    SEP  0     **** SEP Y 9
     7 LYP4        3 GROUP        1 Y    LYP  0     **** LYP Y 11
     8 GLP5       17 GROUP        1 Y    GLP  0     **** GLP Y 13
     9 ALL1       22 GROUP        1 Z    ALL  0     ROOT ALL Z 15
    10 SEL2        5 GROUP        1 Z    SEL  0     **** SEL Z 16
    11 LYL4        2 GROUP        1 Z    LYL  0     **** LYL Z 18
    12 GLL5       16 GROUP        1 Z    GLL  0     **** GLL Z 20
@<TRIPOS>SET

