#    Name: 1d7y_FAD_1_ligand
#    Modification time : Mon Mar 24 21:34:47 2014

@<TRIPOS>MOLECULE
1d7y_FAD_1_ligand
   84    89     1     0     0
SMALL
NO_CHARGES


@<TRIPOS>ATOM
      1 PA         61.7560   12.7410    9.0180 P.3       1 FAD449      0.0000 
      2 O1A        62.2180   13.7500    8.0360 O.co2     1 FAD449      0.0000 
      3 O2A        62.5640   11.7330    9.4600 O.co2     1 FAD449      0.0000 
      4 O5B        60.7510   11.9980    8.1370 O.3       1 FAD449      0.0000 
      5 C5B        59.6260   12.5910    7.4100 C.3       1 FAD449      0.0000 
      6 C4B        59.3590   11.5670    6.2810 C.3       1 FAD449      0.0000 
      7 O4B        58.1950   12.0410    5.4910 O.3       1 FAD449      0.0000 
      8 C3B        60.5030   11.4040    5.2630 C.3       1 FAD449      0.0000 
      9 O3B        60.8650   10.1070    4.9460 O.3       1 FAD449      0.0000 
     10 C2B        60.0230   12.2530    4.1300 C.3       1 FAD449      0.0000 
     11 O2B        60.6570   12.0020    2.9150 O.3       1 FAD449      0.0000 
     12 C1B        58.5830   11.8490    4.0980 C.3       1 FAD449      0.0000 
     13 N9A        57.6970   12.7200    3.3470 N.pl3     1 FAD449      0.0000 
     14 C8A        57.8290   14.0840    3.1630 C.2       1 FAD449      0.0000 
     15 N7A        56.8620   14.5960    2.4110 N.2       1 FAD449      0.0000 
     16 C5A        56.0620   13.5270    2.0870 C.ar      1 FAD449      0.0000 
     17 C6A        54.8350   13.4300    1.2770 C.ar      1 FAD449      0.0000 
     18 N6A        54.2660   14.4420    0.6810 N.pl3     1 FAD449      0.0000 
     19 N1A        54.3080   12.1580    1.1810 N.ar      1 FAD449      0.0000 
     20 C2A        54.8760   11.0730    1.7880 C.ar      1 FAD449      0.0000 
     21 N3A        55.9930   11.0750    2.5430 N.ar      1 FAD449      0.0000 
     22 C4A        56.5520   12.3220    2.6650 C.ar      1 FAD449      0.0000 
     23 N1         68.8760   14.2620   16.0360 N.2       1 FAD449      0.0000 
     24 C2         69.3850   14.0680   17.2420 C.2       1 FAD449      0.0000 
     25 O2         68.7930   14.3920   18.2280 O.2       1 FAD449      0.0000 
     26 N3         70.6720   13.4640   17.4320 N.am      1 FAD449      0.0000 
     27 C4         71.4560   13.0590   16.3680 C.2       1 FAD449      0.0000 
     28 O4         72.5410   12.5500   16.5810 O.2       1 FAD449      0.0000 
     29 C4X        70.9210   13.2790   15.0370 C.2       1 FAD449      0.0000 
     30 N5         71.6490   12.9130   13.9380 N.2       1 FAD449      0.0000 
     31 C5X        71.1000   13.1370   12.6960 C.ar      1 FAD449      0.0000 
     32 C6         71.8650   12.7610   11.5550 C.ar      1 FAD449      0.0000 
     33 C7         71.3850   12.9460   10.2660 C.ar      1 FAD449      0.0000 
     34 C7M        72.2340   12.5340    9.0840 C.3       1 FAD449      0.0000 
     35 C8         70.0560   13.5400   10.0580 C.ar      1 FAD449      0.0000 
     36 C8M        69.4710   13.7670    8.6880 C.3       1 FAD449      0.0000 
     37 C9         69.2910   13.9180   11.1840 C.ar      1 FAD449      0.0000 
     38 C9A        69.7960   13.7240   12.4970 C.ar      1 FAD449      0.0000 
     39 N10        69.0540   14.0970   13.7090 N.pl3     1 FAD449      0.0000 
     40 C10        69.5790   13.8960   14.9280 C.2       1 FAD449      0.0000 
     41 C1'        67.7060   14.6930   13.5190 C.3       1 FAD449      0.0000 
     42 C2'        66.6210   13.5470   13.5020 C.3       1 FAD449      0.0000 
     43 O2'        67.0130   12.5760   12.5530 O.3       1 FAD449      0.0000 
     44 C3'        65.3120   14.2250   13.1520 C.3       1 FAD449      0.0000 
     45 O3'        64.9750   15.1410   14.1880 O.3       1 FAD449      0.0000 
     46 C4'        64.1820   13.2080   12.9880 C.3       1 FAD449      0.0000 
     47 O4'        64.5210   12.2670   11.9340 O.3       1 FAD449      0.0000 
     48 C5'        62.9180   13.9570   12.6040 C.3       1 FAD449      0.0000 
     49 O5'        61.7890   12.8750   12.3890 O.3       1 FAD449      0.0000 
     50 P          60.5460   13.1930   11.5930 P.3       1 FAD449      0.0000 
     51 O1P        59.7320   11.8830   11.7880 O.co2     1 FAD449      0.0000 
     52 O2P        59.8870   14.3470   12.0070 O.co2     1 FAD449      0.0000 
     53 O3P        60.8270   13.4000   10.1530 O.3       1 FAD449      0.0000 
     54 H          59.8900   13.5196    6.9646 H         1 FAD449      0.0000 
     55 H          58.7551   12.6560    8.0163 H         1 FAD449      0.0000 
     56 H          59.1273   10.6146    6.7044 H         1 FAD449      0.0000 
     57 H          61.3492   11.9841    5.7190 H         1 FAD449      0.0000 
     58 H          60.0566   13.2759    4.4506 H         1 FAD449      0.0000 
     59 H          58.4834   10.8380    3.8495 H         1 FAD449      0.0000 
     60 H          58.5767   14.5986    3.5624 H         1 FAD449      0.0000 
     61 H          53.4625   14.2300    0.1246 H         1 FAD449      0.0000 
     62 H          54.6858   15.3364    0.8355 H         1 FAD449      0.0000 
     63 H          54.3752   10.1236    1.6443 H         1 FAD449      0.0000 
     64 H          71.0049   13.3368   18.4059 H         1 FAD449      0.0000 
     65 H          72.7980   12.3416   11.7070 H         1 FAD449      0.0000 
     66 H          68.3653   14.3351   11.0558 H         1 FAD449      0.0000 
     67 H          67.6397   15.2182   12.5743 H         1 FAD449      0.0000 
     68 H          67.4570   15.3651   14.3308 H         1 FAD449      0.0000 
     69 H          66.5687   13.1729   14.4999 H         1 FAD449      0.0000 
     70 H          65.4371   14.7422   12.2092 H         1 FAD449      0.0000 
     71 H          64.0253   12.7153   13.9186 H         1 FAD449      0.0000 
     72 H          63.0566   14.4820   11.6839 H         1 FAD449      0.0000 
     73 H          62.6110   14.6071   13.3944 H         1 FAD449      0.0000 
     74 H          73.1051   13.0246    9.0635 H         1 FAD449      0.0000 
     75 H          72.4480   11.5573    9.1029 H         1 FAD449      0.0000 
     76 H          71.7743   12.7166    8.2149 H         1 FAD449      0.0000 
     77 H          70.0422   14.3748    8.1363 H         1 FAD449      0.0000 
     78 H          69.3757   12.9118    8.1785 H         1 FAD449      0.0000 
     79 H          68.5626   14.1822    8.7362 H         1 FAD449      0.0000 
     80 H          61.8016   10.1764    4.6026 H         1 FAD449      0.0000 
     81 H          60.0250   11.4141    2.4100 H         1 FAD449      0.0000 
     82 H          66.1603   12.2664   12.1323 H         1 FAD449      0.0000 
     83 H          64.3395   15.7872   13.7654 H         1 FAD449      0.0000 
     84 H          63.9307   12.5152   11.1659 H         1 FAD449      0.0000 
@<TRIPOS>BOND
     1    2    1 ar   
     2    3    1 ar   
     3    4    1 1    
     4   53    1 1    
     5    5    4 1    
     6    6    5 1    
     7   54    5 1    
     8   55    5 1    
     9    7    6 1    
    10    8    6 1    
    11   56    6 1    
    12   12    7 1    
    13    9    8 1    
    14   10    8 1    
    15   57    8 1    
    16   80    9 1    
    17   11   10 1    
    18   12   10 1    
    19   58   10 1    
    20   81   11 1    
    21   13   12 1    
    22   59   12 1    
    23   14   13 1    
    24   22   13 1    
    25   15   14 2    
    26   60   14 1    
    27   16   15 1    
    28   17   16 ar   
    29   22   16 ar   
    30   18   17 1    
    31   19   17 ar   
    32   61   18 1    
    33   62   18 1    
    34   20   19 ar   
    35   21   20 ar   
    36   63   20 1    
    37   22   21 ar   
    38   24   23 1    
    39   40   23 2    
    40   25   24 2    
    41   26   24 am   
    42   27   26 am   
    43   64   26 1    
    44   28   27 2    
    45   29   27 1    
    46   30   29 2    
    47   40   29 1    
    48   31   30 1    
    49   32   31 ar   
    50   38   31 ar   
    51   33   32 ar   
    52   65   32 1    
    53   34   33 1    
    54   35   33 ar   
    55   74   34 1    
    56   75   34 1    
    57   76   34 1    
    58   36   35 1    
    59   37   35 ar   
    60   77   36 1    
    61   78   36 1    
    62   79   36 1    
    63   38   37 ar   
    64   66   37 1    
    65   39   38 1    
    66   40   39 1    
    67   41   39 1    
    68   42   41 1    
    69   67   41 1    
    70   68   41 1    
    71   43   42 1    
    72   44   42 1    
    73   69   42 1    
    74   82   43 1    
    75   45   44 1    
    76   46   44 1    
    77   70   44 1    
    78   83   45 1    
    79   47   46 1    
    80   48   46 1    
    81   71   46 1    
    82   84   47 1    
    83   49   48 1    
    84   72   48 1    
    85   73   48 1    
    86   50   49 1    
    87   51   50 ar   
    88   52   50 ar   
    89   53   50 1    
@<TRIPOS>SUBSTRUCTURE
     1 FAD449      1 GROUP   
@<TRIPOS>SET

