#    Name: 1I8Z_1_CAVITY_N1_6.mol2
#    Modification time : Tue Mar 11 07:54:17 2014

@<TRIPOS>MOLECULE
1I8Z_1_CAVITY_N1_6.mol2
   85     0     6     0     0
SMALL
NO_CHARGES


@<TRIPOS>ATOM
      1 CA         -1.2757    7.1656   14.2502 C.3       5 GLY6        0.0000 
      2 CZ         -2.4976    8.0262   14.1226 C.ar      4 PHE5        0.0000 
      3 DU          0.7945    4.2722   10.1768 H         6 CUB7        0.0000 
      4 CA         -3.2341    7.2522   15.9552 C.3       5 GLY6        0.0000 
      5 CA         -2.1368    6.0009   14.6400 C.3       5 GLY6        0.0000 
      6 CZ         -3.3587    6.8615   14.5124 C.ar      4 PHE5        0.0000 
      7 N          -1.0394    4.7495   13.3247 N.2       2 ALA2        0.0000 
      8 DU         -2.2613    5.6101   13.1971 H         6 CUB7        0.0000 
      9 DU         -3.4832    6.4707   13.0695 H         6 CUB7        0.0000 
     10 CZ         -4.7052    7.3313   12.9420 C.ar      4 PHE5        0.0000 
     11 N           0.0580    3.4982   12.0094 N.2       2 ALA2        0.0000 
     12 N          -1.1639    4.3588   11.8818 N.2       2 ALA2        0.0000 
     13 DU         -3.6078    6.0800   11.6267 H         6 CUB7        0.0000 
     14 DU         -4.8297    6.9406   11.4991 H         6 CUB7        0.0000 
     15 CZ         -0.0666    3.1075   10.5666 C.ar      4 PHE5        0.0000 
     16 DU         -1.2885    3.9681   10.4390 H         6 CUB7        0.0000 
     17 DU         -2.5104    4.8286   10.3114 H         6 CUB7        0.0000 
     18 DU         -3.7323    5.6892   10.1838 H         6 CUB7        0.0000 
     19 O          -0.1911    2.7167    9.1237 O.2       2 ALA2        0.0000 
     20 O          -1.4130    3.5773    8.9961 O.2       2 ALA2        0.0000 
     21 O          -1.5376    3.1866    7.5533 O.2       2 ALA2        0.0000 
     22 CA         -1.7759    3.9755   15.1573 C.3       5 GLY6        0.0000 
     23 CA         -2.9978    4.8361   15.0297 C.3       5 GLY6        0.0000 
     24 CA         -4.2197    5.6967   14.9021 C.3       5 GLY6        0.0000 
     25 CZ         -5.4416    6.5573   14.7746 C.ar      4 PHE5        0.0000 
     26 OG         -1.9004    3.5848   13.7144 O.2       1 SER1        0.0000 
     27 DU         -3.1223    4.4453   13.5869 H         6 CUB7        0.0000 
     28 DU         -4.3443    5.3059   13.4593 H         6 CUB7        0.0000 
     29 CZ         -5.5662    6.1665   13.3317 C.ar      4 PHE5        0.0000 
     30 CZ         -6.7881    7.0271   13.2042 C.ar      4 PHE5        0.0000 
     31 OG         -2.0250    3.1940   12.2716 O.2       1 SER1        0.0000 
     32 DU         -3.2469    4.0546   12.1440 H         6 CUB7        0.0000 
     33 O          -4.4688    4.9152   12.0165 O.2       2 ALA2        0.0000 
     34 O          -5.6908    5.7758   11.8889 O.2       2 ALA2        0.0000 
     35 CZ         -0.9276    1.9427   10.9563 C.ar      4 PHE5        0.0000 
     36 O          -2.1495    2.8033   10.8288 O.2       2 ALA2        0.0000 
     37 O          -3.3714    3.6639   10.7012 O.2       2 ALA2        0.0000 
     38 O          -4.5934    4.5245   10.5736 O.2       2 ALA2        0.0000 
     39 O          -1.0521    1.5519    9.5135 O.2       2 ALA2        0.0000 
     40 O          -2.2741    2.4125    9.3859 O.2       2 ALA2        0.0000 
     41 OG         -2.6369    2.8107   15.5471 O.2       1 SER1        0.0000 
     42 CA         -3.8588    3.6713   15.4195 C.3       5 GLY6        0.0000 
     43 CA         -5.0807    4.5319   15.2919 C.3       5 GLY6        0.0000 
     44 CA         -6.3027    5.3925   15.1643 C.3       5 GLY6        0.0000 
     45 OG         -3.9834    3.2806   13.9766 O.2       1 SER1        0.0000 
     46 O          -5.2053    4.1412   13.8491 O.2       2 ALA2        0.0000 
     47 O          -6.4272    5.0017   13.7215 O.2       2 ALA2        0.0000 
     48 CA         -7.6492    5.8623   13.5939 C.3       5 GLY6        0.0000 
     49 OG         -2.8860    2.0292   12.6614 O.2       1 SER1        0.0000 
     50 O          -4.1079    2.8898   12.5338 O.2       2 ALA2        0.0000 
     51 O          -5.3299    3.7504   12.4062 O.2       2 ALA2        0.0000 
     52 OG         -1.7886    0.7779   11.3461 O.2       1 SER1        0.0000 
     53 OG         -3.0105    1.6385   11.2185 O.2       1 SER1        0.0000 
     54 O          -4.2325    2.4991   11.0909 O.2       2 ALA2        0.0000 
     55 CA         -1.9132    0.3872    9.9032 C.3       5 GLY6        0.0000 
     56 O          -3.1351    1.2478    9.7757 O.2       2 ALA2        0.0000 
     57 OG         -3.4979    1.6459   15.9368 O.2       1 SER1        0.0000 
     58 CA         -4.7198    2.5065   15.8093 C.3       5 GLY6        0.0000 
     59 CA         -5.9418    3.3671   15.6817 C.3       5 GLY6        0.0000 
     60 CA         -7.1637    4.2277   15.5541 C.3       5 GLY6        0.0000 
     61 OG         -3.6225    1.2552   14.4940 O.2       1 SER1        0.0000 
     62 OG         -4.8444    2.1158   14.3664 O.2       1 SER1        0.0000 
     63 O          -6.0663    2.9764   14.2388 O.2       2 ALA2        0.0000 
     64 CA         -7.2883    3.8370   14.1113 C.3       5 GLY6        0.0000 
     65 OG         -3.7470    0.8645   13.0511 O.2       1 SER1        0.0000 
     66 N          -4.9690    1.7250   12.9236 N.2       2 ALA2        0.0000 
     67 O          -6.1909    2.5856   12.7960 O.2       2 ALA2        0.0000 
     68 CA         -2.6496   -0.3869   11.7359 C.3       5 GLY6        0.0000 
     69 DU         -3.8716    0.4737   11.6083 H         6 CUB7        0.0000 
     70 O          -5.0935    1.3343   11.4807 O.2       2 ALA2        0.0000 
     71 CA         -2.7742   -0.7776   10.2930 C.3       5 GLY6        0.0000 
     72 O          -3.9961    0.0830   10.1654 O.2       2 ALA2        0.0000 
     73 O          -5.2181    0.9436   10.0379 O.2       2 ALA2        0.0000 
     74 CA         -5.4563    1.7325   17.6419 C.3       5 GLY6        0.0000 
     75 CA         -6.6783    2.5931   17.5143 C.3       5 GLY6        0.0000 
     76 O          -4.3589    0.4812   16.3266 O.2       2 ALA2        0.0000 
     77 OD1        -5.5809    1.3417   16.1990 O.3       3 ASP3        0.0000 
     78 CA         -6.8028    2.2023   16.0714 C.3       5 GLY6        0.0000 
     79 OD1        -4.4835    0.0904   14.8837 O.3       3 ASP3        0.0000 
     80 N          -5.7054    0.9510   14.7562 N.2       2 ALA2        0.0000 
     81 N          -4.6081   -0.3003   13.4409 N.2       2 ALA2        0.0000 
     82 CA         -3.5107   -1.5516   12.1256 C.3       5 GLY6        0.0000 
     83 CA         -4.7326   -0.6911   11.9980 C.3       5 GLY6        0.0000 
     84 CA         -3.6352   -1.9424   10.6828 C.3       5 GLY6        0.0000 
     85 CA         -4.8572   -1.0818   10.5552 C.3       5 GLY6        0.0000 
@<TRIPOS>BOND
@<TRIPOS>SUBSTRUCTURE
     1 SER1       26 GROUP   
     2 ALA2        7 GROUP   
     3 ASP3       77 GROUP   
     4 PHE5        2 GROUP   
     5 GLY6        1 GROUP   
     6 CUB7        3 GROUP   
@<TRIPOS>SET

