#    Name: 1i8z_INL_1_INTS_M
#    Modification time : Tue Mar 25 06:47:44 2014

@<TRIPOS>MOLECULE
1i8z_INL_1_INTS_M
   47     0    12     0     0
SMALL
NO_CHARGES


@<TRIPOS>ATOM
      1 N          -4.1420    0.3730   18.4945 N.am      2 SEC2        0.0000 
      2 N          -5.4330    0.7710   18.0390 N.am     10 SEL2        0.0000 
      3 N          -2.8510   -0.0250   18.9500 N.am      6 SEP2        0.0000 
      4 O          -4.6560   -1.4015   16.8885 O.2       1 ALC1        0.0000 
      5 O          -5.4450   -0.5330   16.1380 O.2       9 ALL1        0.0000 
      6 O          -3.8670   -2.2700   17.6390 O.2       5 ALP1        0.0000 
      7 Zn         -6.1035   -1.1545   15.6690 Zn        3 ZIC7        0.0000 
      8 Zn         -5.4450   -0.5330   16.1380 Zn       11 ZIL7        0.0000 
      9 Zn         -6.7620   -1.7760   15.2000 Zn        7 ZIP7        0.0000 
     10 CA         -3.2570    2.5920   17.0430 C.3       4 GLC5        0.0000 
     11 CA         -4.0990    1.9930   15.3380 C.3      12 GLL5        0.0000 
     12 CA         -2.4150    3.1910   18.7480 C.3       8 GLP5        0.0000 
     13 CA         -2.8015    0.3515   14.8980 C.3       4 GLC5        0.0000 
     14 CA         -1.5040   -1.2900   14.4580 C.3       8 GLP5        0.0000 
     15 CA         -7.9620    3.2225   15.1315 C.3       4 GLC5        0.0000 
     16 CA         -6.1140    3.1920   15.4520 C.3      12 GLL5        0.0000 
     17 CA         -9.8100    3.2530   14.8110 C.3       8 GLP5        0.0000 
     18 CA         -2.3785    4.6010   15.8380 C.3       4 GLC5        0.0000 
     19 CA         -2.7850    3.7620   13.8900 C.3      12 GLL5        0.0000 
     20 CA         -1.9720    5.4400   17.7860 C.3       8 GLP5        0.0000 
     21 Zn         -5.4325    2.0340   14.1850 Zn        3 ZIC7        0.0000 
     22 Zn         -4.1030    5.8440   13.1700 Zn       11 ZIL7        0.0000 
     23 CA         -0.1395    5.6770   13.8725 C.3       4 GLC5        0.0000 
     24 CA         -1.6680    5.6690   12.2600 C.3      12 GLL5        0.0000 
     25 CA          1.3890    5.6850   15.4850 C.3       8 GLP5        0.0000 
     26 CA         -3.3840    9.8580   13.3580 C.3       4 GLC5        0.0000 
     27 CA         -1.3190    9.6400   12.7770 C.3      12 GLL5        0.0000 
     28 CA         -5.4490   10.0760   13.9390 C.3       8 GLP5        0.0000 
     29 CA         -3.7930    9.3305   14.4660 C.3       4 GLC5        0.0000 
     30 CA         -2.1370    8.5850   14.9930 C.3      12 GLL5        0.0000 
     31 CA         -3.2180    9.4390   16.2875 C.3       4 GLC5        0.0000 
     32 CA         -4.2990   10.2930   17.5820 C.3       8 GLP5        0.0000 
     33 CA         -0.2910    7.6830   15.7475 C.3       4 GLC5        0.0000 
     34 CA          1.5550    6.7810   16.5020 C.3       8 GLP5        0.0000 
     35 CA         -1.1225    8.8685   16.9430 C.3       4 GLC5        0.0000 
     36 CA         -0.1080    9.1520   18.8930 C.3       8 GLP5        0.0000 
     37 CA         -0.2405    6.4355   14.9710 C.3       4 GLC5        0.0000 
     38 CA         -1.8700    7.1860   14.4570 C.3      12 GLL5        0.0000 
     39 CA         -8.1290   10.1810   10.9885 C.3       4 GLC5        0.0000 
     40 CA         -6.5270    9.9610   10.5910 C.3      12 GLL5        0.0000 
     41 CA         -9.7310   10.4010   11.3860 C.3       8 GLP5        0.0000 
     42 CA         -6.2755   10.6355   12.1300 C.3       4 GLC5        0.0000 
     43 CA         -6.0240   11.3100   13.6690 C.3       8 GLP5        0.0000 
     44 CA         -1.9878    6.6628   16.2555 C.3       4 GLC5        0.0000 
     45 CA         -4.7194    3.9090   16.7893 C.3       4 GLC5        0.0000 
     46 CA         -5.1610    3.9930   14.6270 C.3      12 GLL5        0.0000 
     47 CA         -4.2850    4.7400   18.4390 C.3       8 GLP5        0.0000 
@<TRIPOS>BOND
@<TRIPOS>SUBSTRUCTURE
     1 ALC1        4 GROUP        1 X    ALC  0     ROOT ALC X 1
     2 SEC2        1 GROUP        1 X    SEC  0     **** SEC X 2
     3 ZIC7        7 GROUP        1 X    ZIC  0     **** ZIC X 5
     4 GLC5       10 GROUP        1 X    GLC  0     **** GLC X 6
     5 ALP1        6 GROUP        1 Y    ALP  0     ROOT ALP Y 8
     6 SEP2        3 GROUP        1 Y    SEP  0     **** SEP Y 9
     7 ZIP7        9 GROUP        1 Y    ZIP  0     **** ZIP Y 12
     8 GLP5       12 GROUP        1 Y    GLP  0     **** GLP Y 13
     9 ALL1        5 GROUP        1 Z    ALL  0     ROOT ALL Z 15
    10 SEL2        2 GROUP        1 Z    SEL  0     **** SEL Z 16
    11 ZIL7        8 GROUP        1 Z    ZIL  0     **** ZIL Z 19
    12 GLL5       11 GROUP        1 Z    GLL  0     **** GLL Z 20
@<TRIPOS>SET

