#    Name: 1i8z_INL_1_ligand
#    Modification time : Tue Mar 25 06:47:45 2014

@<TRIPOS>MOLECULE
1i8z_INL_1_ligand
   51    54     1     0     0
SMALL
NO_CHARGES


@<TRIPOS>ATOM
      1 S1         -5.9430    0.6900   16.7430 S.o2      1 INL555      0.0000 
      2 O2         -5.4330    0.7710   18.0390 O.2       1 INL555      0.0000 
      3 O3         -7.3270    0.7100   16.7950 O.2       1 INL555      0.0000 
      4 N4         -5.4450   -0.5330   16.1380 N.pl3     1 INL555      0.0000 
      5 C5         -5.4080    1.9220   15.8850 C.2       1 INL555      0.0000 
      6 C6         -4.0990    1.9930   15.3380 C.2       1 INL555      0.0000 
      7 C7         -3.9320    3.2050   14.5940 C.2       1 INL555      0.0000 
      8 C8         -5.1610    3.9930   14.6270 C.2       1 INL555      0.0000 
      9 S9         -6.1140    3.1920   15.4520 S.3       1 INL555      0.0000 
     10 C10        -2.7850    3.7620   13.8900 C.2       1 INL555      0.0000 
     11 C11        -2.7680    5.0980   13.1030 C.2       1 INL555      0.0000 
     12 N12        -4.1030    5.8440   13.1700 N.pl3     1 INL555      0.0000 
     13 S13        -5.1930    5.3870   14.0850 S.o2      1 INL555      0.0000 
     14 O14        -5.0530    6.2980   15.1230 O.2       1 INL555      0.0000 
     15 O15        -6.4060    5.5890   13.4820 O.2       1 INL555      0.0000 
     16 C16        -1.6680    5.6690   12.2600 C.3       1 INL555      0.0000 
     17 C17        -0.9650    8.2270   12.2380 C.3       1 INL555      0.0000 
     18 C18        -1.3190    9.6400   12.7770 C.3       1 INL555      0.0000 
     19 O19        -1.2940    9.6780   14.3340 O.3       1 INL555      0.0000 
     20 C20        -2.1370    8.5850   14.9930 C.3       1 INL555      0.0000 
     21 C21        -1.8700    7.1860   14.4570 C.3       1 INL555      0.0000 
     22 N22        -1.8960    7.1600   12.8610 N.4       1 INL555      0.0000 
     23 C23        -5.2900    7.1760   11.4220 C.ar      1 INL555      0.0000 
     24 C24        -4.5910    5.9900   11.8120 C.ar      1 INL555      0.0000 
     25 C25        -4.4490    4.9060   10.8600 C.ar      1 INL555      0.0000 
     26 C26        -4.9800    4.9620    9.4990 C.ar      1 INL555      0.0000 
     27 C27        -5.6710    6.2500    9.2340 C.ar      1 INL555      0.0000 
     28 C28        -5.9010    7.3800   10.1620 C.ar      1 INL555      0.0000 
     29 O29        -6.6000    8.4870    9.8150 O.3       1 INL555      0.0000 
     30 C30        -6.5270    9.9610   10.5910 C.3       1 INL555      0.0000 
     31 H          -4.8654   -1.1061   16.7173 H         1 INL555      0.0000 
     32 H          -3.4250    1.3328   15.4468 H         1 INL555      0.0000 
     33 H          -1.8865    3.2481   13.8943 H         1 INL555      0.0000 
     34 H          -1.9182    5.7040   11.2783 H         1 INL555      0.0000 
     35 H          -0.7523    5.3624   12.5682 H         1 INL555      0.0000 
     36 H           0.0614    7.9987   12.4954 H         1 INL555      0.0000 
     37 H          -1.0846    8.2202   11.1621 H         1 INL555      0.0000 
     38 H          -2.3125    9.9115   12.4347 H         1 INL555      0.0000 
     39 H          -0.5975   10.3558   12.3963 H         1 INL555      0.0000 
     40 H          -3.2044    8.8271   14.8529 H         1 INL555      0.0000 
     41 H          -1.9469    8.5970   16.0799 H         1 INL555      0.0000 
     42 H          -2.6296    6.4950   14.8064 H         1 INL555      0.0000 
     43 H          -0.8917    6.8397   14.7725 H         1 INL555      0.0000 
     44 H          -2.9456    7.4307   12.5751 H         1 INL555      0.0000 
     45 H          -5.3510    7.9528   12.1311 H         1 INL555      0.0000 
     46 H          -3.9508    4.0530   11.1517 H         1 INL555      0.0000 
     47 H          -4.9006    4.2756    8.8622 H         1 INL555      0.0000 
     48 H          -6.0489    6.3746    8.2491 H         1 INL555      0.0000 
     49 H          -5.6034   10.3440   10.5747 H         1 INL555      0.0000 
     50 H          -7.1313   10.6349   10.1658 H         1 INL555      0.0000 
     51 H          -6.7976    9.8891   11.5510 H         1 INL555      0.0000 
@<TRIPOS>BOND
     1    2    1 2    
     2    3    1 2    
     3    4    1 1    
     4    5    1 1    
     5   31    4 1    
     6    6    5 2    
     7    9    5 1    
     8    7    6 1    
     9   32    6 1    
    10    8    7 2    
    11   10    7 1    
    12    9    8 1    
    13   13    8 1    
    14   11   10 2    
    15   33   10 1    
    16   12   11 1    
    17   16   11 1    
    18   13   12 1    
    19   24   12 1    
    20   14   13 2    
    21   15   13 2    
    22   22   16 1    
    23   34   16 1    
    24   35   16 1    
    25   18   17 1    
    26   22   17 1    
    27   36   17 1    
    28   37   17 1    
    29   19   18 1    
    30   38   18 1    
    31   39   18 1    
    32   20   19 1    
    33   21   20 1    
    34   40   20 1    
    35   41   20 1    
    36   22   21 1    
    37   42   21 1    
    38   43   21 1    
    39   44   22 1    
    40   24   23 ar   
    41   28   23 ar   
    42   45   23 1    
    43   25   24 ar   
    44   26   25 ar   
    45   46   25 1    
    46   27   26 ar   
    47   47   26 1    
    48   28   27 ar   
    49   48   27 1    
    50   29   28 1    
    51   30   29 1    
    52   49   30 1    
    53   50   30 1    
    54   51   30 1    
@<TRIPOS>SUBSTRUCTURE
     1 INL555      1 GROUP   
@<TRIPOS>SET

