#    Name: 1N7G_2_CAVITY_N1_6.mol2
#    Modification time : Mon Mar 10 19:01:35 2014

@<TRIPOS>MOLECULE
1N7G_2_CAVITY_N1_6.mol2
   94     0     7     0     0
SMALL
NO_CHARGES


@<TRIPOS>ATOM
      1 CA         30.5917   54.0527   36.4704 C.3       6 GLY6        0.0000 
      2 O          30.7835   53.4655   37.8373 O.2       2 ALA2        0.0000 
      3 O          30.9754   52.8783   39.2042 O.2       2 ALA2        0.0000 
      4 O          29.1452   54.3013   36.7802 O.2       2 ALA2        0.0000 
      5 NZ         29.3371   53.7141   38.1471 N.2       4 LYS4        0.0000 
      6 CA         29.5290   53.1270   39.5140 C.3       6 GLY6        0.0000 
      7 O          27.6988   54.5499   37.0901 O.2       2 ALA2        0.0000 
      8 N          26.0605   55.3857   36.0330 N.2       2 ALA2        0.0000 
      9 CA         24.4222   56.2215   34.9759 C.3       6 GLY6        0.0000 
     10 OG         31.3424   51.0886   35.0917 O.2       1 SER1        0.0000 
     11 OG         31.5343   50.5014   36.4586 O.2       1 SER1        0.0000 
     12 CA         31.7262   49.9143   37.8255 C.3       6 GLY6        0.0000 
     13 N          31.9180   49.3271   39.1924 N.2       2 ALA2        0.0000 
     14 OG         30.0878   50.7501   36.7685 O.2       1 SER1        0.0000 
     15 N          30.2797   50.1629   38.1354 N.2       2 ALA2        0.0000 
     16 N          30.4716   49.5757   39.5023 N.2       2 ALA2        0.0000 
     17 OG         28.4495   51.5859   35.7114 O.2       1 SER1        0.0000 
     18 CA         28.6414   50.9987   37.0783 C.3       6 GLY6        0.0000 
     19 N          28.8333   50.4115   38.4452 N.2       2 ALA2        0.0000 
     20 CZ         26.2356   54.1832   30.5536 C.ar      5 PHE5        0.0000 
     21 CZ         26.4275   53.5960   31.9205 C.ar      5 PHE5        0.0000 
     22 O          26.6194   53.0088   33.2874 O.2       2 ALA2        0.0000 
     23 CA         26.8112   52.4217   34.6543 C.3       6 GLY6        0.0000 
     24 CA         27.0031   51.8345   36.0212 C.3       6 GLY6        0.0000 
     25 CA         27.1950   51.2473   37.3881 C.3       6 GLY6        0.0000 
     26 N          27.3868   50.6601   38.7550 N.2       2 ALA2        0.0000 
     27 O          24.5973   55.0190   29.4966 O.2       2 ALA2        0.0000 
     28 O          24.7892   54.4318   30.8635 O.2       2 ALA2        0.0000 
     29 O          24.9811   53.8446   32.2304 O.2       2 ALA2        0.0000 
     30 DU         25.1729   53.2575   33.5973 H         7 CUB7        0.0000 
     31 OG         25.3648   52.6703   34.9642 O.2       1 SER1        0.0000 
     32 OG         25.5567   52.0831   36.3311 O.2       1 SER1        0.0000 
     33 DU         25.7485   51.4959   37.6980 H         7 CUB7        0.0000 
     34 CA         25.9404   50.9087   39.0649 C.3       6 GLY6        0.0000 
     35 CA         26.1323   50.3216   40.4318 C.3       6 GLY6        0.0000 
     36 O          23.3427   54.6804   31.1733 O.2       2 ALA2        0.0000 
     37 OG         23.5346   54.0932   32.5402 O.2       1 SER1        0.0000 
     38 OG         23.7265   53.5061   33.9071 O.2       1 SER1        0.0000 
     39 OG         23.9183   52.9189   35.2740 O.2       1 SER1        0.0000 
     40 OG         24.1102   52.3317   36.6409 O.2       1 SER1        0.0000 
     41 CA         24.3021   51.7445   38.0078 C.3       6 GLY6        0.0000 
     42 CA         24.4940   51.1574   39.3747 C.3       6 GLY6        0.0000 
     43 NZ         21.8963   54.9290   31.4831 N.2       4 LYS4        0.0000 
     44 OG         22.0882   54.3419   32.8500 O.2       1 SER1        0.0000 
     45 OG         22.4719   53.1675   35.5838 O.2       1 SER1        0.0000 
     46 N          22.6638   52.5803   36.9507 N.2       2 ALA2        0.0000 
     47 N          22.8556   51.9932   38.3176 N.2       2 ALA2        0.0000 
     48 OG         31.6903   52.4463   35.6261 O.2       1 SER1        0.0000 
     49 O          31.8821   51.8592   36.9930 O.2       2 ALA2        0.0000 
     50 OG         30.2438   52.6950   35.9360 O.2       1 SER1        0.0000 
     51 O          30.4357   52.1078   37.3029 O.2       2 ALA2        0.0000 
     52 CA         30.6276   51.5206   38.6698 C.3       6 GLY6        0.0000 
     53 N          30.8194   50.9334   40.0367 N.2       2 ALA2        0.0000 
     54 O          28.7974   52.9436   36.2458 O.2       2 ALA2        0.0000 
     55 DU         28.9893   52.3564   37.6127 H         7 CUB7        0.0000 
     56 CA         29.1811   51.7692   38.9796 C.3       6 GLY6        0.0000 
     57 CA         29.3730   51.1821   40.3465 C.3       6 GLY6        0.0000 
     58 O          27.1591   53.7794   35.1887 O.2       2 ALA2        0.0000 
     59 O          27.3509   53.1922   36.5556 O.2       2 ALA2        0.0000 
     60 NZ         27.5428   52.6050   37.9225 N.2       4 LYS4        0.0000 
     61 NZ         27.7347   52.0179   39.2894 N.2       4 LYS4        0.0000 
     62 CA         27.9265   51.4307   40.6563 C.3       6 GLY6        0.0000 
     63 O          25.1370   55.7895   31.3979 O.2       2 ALA2        0.0000 
     64 O          25.5208   54.6152   34.1317 O.2       2 ALA2        0.0000 
     65 O          25.7126   54.0280   35.4986 O.2       2 ALA2        0.0000 
     66 N          25.9045   53.4408   36.8655 N.2       2 ALA2        0.0000 
     67 NZ         26.0964   52.8536   38.2324 N.2       4 LYS4        0.0000 
     68 NZ         26.2882   52.2665   39.5993 N.2       4 LYS4        0.0000 
     69 NZ         26.4801   51.6793   40.9662 N.2       4 LYS4        0.0000 
     70 N          23.8825   55.4510   33.0746 N.2       2 ALA2        0.0000 
     71 DU         24.0743   54.8638   34.4415 H         7 CUB7        0.0000 
     72 DU         24.2662   54.2766   35.8084 H         7 CUB7        0.0000 
     73 N          24.4581   53.6894   37.1753 N.2       2 ALA2        0.0000 
     74 NZ         24.6499   53.1023   38.5422 N.2       4 LYS4        0.0000 
     75 NZ         24.8418   52.5151   39.9091 N.2       4 LYS4        0.0000 
     76 N          22.4360   55.6996   33.3845 N.2       2 ALA2        0.0000 
     77 O          22.6279   55.1124   34.7513 O.2       2 ALA2        0.0000 
     78 N          22.8197   54.5252   36.1182 N.2       2 ALA2        0.0000 
     79 N          23.0116   53.9381   37.4851 N.2       2 ALA2        0.0000 
     80 N          23.2035   53.3509   38.8520 N.2       2 ALA2        0.0000 
     81 OG         29.7400   49.3923   36.2341 O.2       1 SER1        0.0000 
     82 N          29.9319   48.8052   37.6010 N.2       2 ALA2        0.0000 
     83 CA         28.2936   49.6410   36.5439 C.3       6 GLY6        0.0000 
     84 CA         26.8471   49.8896   36.8537 C.3       6 GLY6        0.0000 
     85 CA         24.4413   53.0741   30.3291 C.3       6 GLY6        0.0000 
     86 N          24.6332   52.4869   31.6960 N.2       2 ALA2        0.0000 
     87 OG         24.8251   51.8997   33.0629 O.2       1 SER1        0.0000 
     88 OG         25.2088   50.7254   35.7967 O.2       1 SER1        0.0000 
     89 OG         25.4007   50.1382   37.1636 O.2       1 SER1        0.0000 
     90 OD1        25.5926   49.5510   38.5305 O.3       3 ASP3        0.0000 
     91 NZ         22.9949   53.3227   30.6389 N.2       4 LYS4        0.0000 
     92 OG         23.1868   52.7355   32.0058 O.2       1 SER1        0.0000 
     93 OG         23.3786   52.1484   33.3727 O.2       1 SER1        0.0000 
     94 OD1        23.9542   50.3868   37.4734 O.3       3 ASP3        0.0000 
@<TRIPOS>BOND
@<TRIPOS>SUBSTRUCTURE
     1 SER1       10 GROUP   
     2 ALA2        2 GROUP   
     3 ASP3       90 GROUP   
     4 LYS4        5 GROUP   
     5 PHE5       20 GROUP   
     6 GLY6        1 GROUP   
     7 CUB7       30 GROUP   
@<TRIPOS>SET

