#    Name: 1n7g_NDP_2_INTS_M
#    Modification time : Mon Mar 24 17:48:40 2014

@<TRIPOS>MOLECULE
1n7g_NDP_2_INTS_M
  125     0    12     0     0
SMALL
NO_CHARGES


@<TRIPOS>ATOM
      1 NZ         31.7775   49.1030   34.2080 N.4       3 LYC4        0.0000 
      2 NZ         31.4270   50.2620   35.0640 N.4      11 LYL4        0.0000 
      3 NZ         32.4100   48.6240   32.2460 N.4       7 LYP4        0.0000 
      4 N          30.3810   50.1725   34.3990 N.am      2 SEC2        0.0000 
      5 N          31.4270   50.2620   35.0640 N.am     10 SEL2        0.0000 
      6 N          29.3350   50.0830   33.7340 N.am      6 SEP2        0.0000 
      7 N          31.7775   49.1030   34.2080 N.am      2 SEC2        0.0000 
      8 N          32.1280   47.9440   33.3520 N.am      6 SEP2        0.0000 
      9 N          31.8490   50.1040   33.6460 N.am      2 SEC2        0.0000 
     10 N          32.2710   49.9460   32.2280 N.am      6 SEP2        0.0000 
     11 N          32.8330   53.0295   37.7990 N.am      2 SEC2        0.0000 
     12 N          32.4010   52.1550   36.4880 N.am     10 SEL2        0.0000 
     13 N          33.2650   53.9040   39.1100 N.am      6 SEP2        0.0000 
     14 CA         33.2840   49.2750   36.6740 C.3       4 GLC5        0.0000 
     15 CA         31.4860   48.6080   37.5040 C.3      12 GLL5        0.0000 
     16 CA         35.0820   49.9420   35.8440 C.3       8 GLP5        0.0000 
     17 CA         30.6125   46.7365   39.6000 C.3       4 GLC5        0.0000 
     18 CA         32.0760   47.9020   38.6980 C.3      12 GLL5        0.0000 
     19 CA         29.1490   45.5710   40.5020 C.3       8 GLP5        0.0000 
     20 N          30.2440   45.9940   38.4105 N.am      2 SEC2        0.0000 
     21 N          31.6210   46.5120   38.7230 N.am     10 SEL2        0.0000 
     22 N          28.8670   45.4760   38.0980 N.am      6 SEP2        0.0000 
     23 O          35.3735   47.9035   40.1885 O.2       1 ALC1        0.0000 
     24 O          34.0850   47.7960   40.0110 O.2       9 ALL1        0.0000 
     25 O          36.6620   48.0110   40.3660 O.2       5 ALP1        0.0000 
     26 CA         32.4190   46.4100   40.5150 C.3       4 GLC5        0.0000 
     27 CA         32.7540   45.6640   38.8030 C.3      12 GLL5        0.0000 
     28 CA         32.0840   47.1560   42.2270 C.3       8 GLP5        0.0000 
     29 CA         30.9515   45.6175   39.6525 C.3       4 GLC5        0.0000 
     30 CA         30.4725   40.1290   39.4335 C.3       4 GLC5        0.0000 
     31 CA         32.0890   40.8640   38.3320 C.3      12 GLL5        0.0000 
     32 CA         28.8560   39.3940   40.5350 C.3       8 GLP5        0.0000 
     33 O          32.1430   38.4885   38.0605 O.2       1 ALC1        0.0000 
     34 O          31.7790   39.8390   37.5300 O.2       9 ALL1        0.0000 
     35 O          32.5070   37.1380   38.5910 O.2       5 ALP1        0.0000 
     36 N          31.7195   39.5070   40.3105 N.am      2 SEC2        0.0000 
     37 N          32.3790   40.6060   39.6270 N.am     10 SEL2        0.0000 
     38 N          31.0600   38.4080   40.9940 N.am      6 SEP2        0.0000 
     39 CA         34.3955   41.5250   39.7690 C.3       4 GLC5        0.0000 
     40 CA         32.6940   41.6310   40.4290 C.3      12 GLL5        0.0000 
     41 CA         36.0970   41.4190   39.1090 C.3       8 GLP5        0.0000 
     42 CA         33.0390   39.7490   40.9360 C.3       4 GLC5        0.0000 
     43 CA         33.3840   37.8670   41.4430 C.3       8 GLP5        0.0000 
     44 CA         31.0275   41.3645   41.3560 C.3       4 GLC5        0.0000 
     45 CA         29.3610   41.0980   42.2830 C.3       8 GLP5        0.0000 
     46 CA         31.1775   42.9530   40.7755 C.3       4 GLC5        0.0000 
     47 CA         29.6610   44.2750   41.1220 C.3       8 GLP5        0.0000 
     48 CA         31.0655   43.7150   39.9900 C.3       4 GLC5        0.0000 
     49 CA         32.4700   43.1550   38.8580 C.3      12 GLL5        0.0000 
     50 N          29.6690   50.7710   35.2565 N.am      2 SEC2        0.0000 
     51 N          30.0030   51.4590   36.7790 N.am     10 SEL2        0.0000 
     52 N          30.6620   54.0060   39.7700 N.am      2 SEC2        0.0000 
     53 N          30.2830   53.0220   38.7730 N.am     10 SEL2        0.0000 
     54 N          31.0410   54.9900   40.7670 N.am      6 SEP2        0.0000 
     55 CA         28.3235   53.0570   40.4930 C.3       4 GLC5        0.0000 
     56 CA         27.8000   51.6350   39.2680 C.3      12 GLL5        0.0000 
     57 CA         28.8470   54.4790   41.7180 C.3       8 GLP5        0.0000 
     58 CA         27.9540   50.5645   41.0330 C.3       4 GLC5        0.0000 
     59 CA         28.1080   49.4940   42.7980 C.3       8 GLP5        0.0000 
     60 CA         26.9355   49.5045   40.7560 C.3       4 GLC5        0.0000 
     61 CA         26.6090   50.7140   39.1500 C.3      12 GLL5        0.0000 
     62 CA         27.2620   48.2950   42.3620 C.3       8 GLP5        0.0000 
     63 CA         26.7795   47.8555   37.4095 C.3       4 GLC5        0.0000 
     64 CA         26.6910   49.7040   38.0110 C.3      12 GLL5        0.0000 
     65 CA         26.8680   46.0070   36.8080 C.3       8 GLP5        0.0000 
     66 N          24.5835   47.9460   38.1605 N.am      2 SEC2        0.0000 
     67 N          25.9700   48.5300   38.3620 N.am     10 SEL2        0.0000 
     68 N          23.1970   47.3620   37.9590 N.am      6 SEP2        0.0000 
     69 N          24.3795   49.5865   35.1685 N.am      2 SEC2        0.0000 
     70 N          25.4530   49.5390   35.9260 N.am     10 SEL2        0.0000 
     71 N          23.3060   49.6340   34.4110 N.am      6 SEP2        0.0000 
     72 CA         24.2725   50.4415   39.4765 C.3       4 GLC5        0.0000 
     73 CA         24.8910   51.1590   37.6260 C.3      12 GLL5        0.0000 
     74 CA         23.6540   49.7240   41.3270 C.3       8 GLP5        0.0000 
     75 N          24.9720   57.8955   35.3235 N.am      2 SEC2        0.0000 
     76 N          25.2330   56.4650   35.0440 N.am     10 SEL2        0.0000 
     77 N          24.7110   59.3260   35.6030 N.am      6 SEP2        0.0000 
     78 CA         23.3325   52.8865   35.2105 C.3       4 GLC5        0.0000 
     79 CA         22.9770   52.6250   37.1060 C.3      12 GLL5        0.0000 
     80 CA         23.6880   53.1480   33.3150 C.3       8 GLP5        0.0000 
     81 NZ         36.6350   44.2390   36.0715 N.4       3 LYC4        0.0000 
     82 NZ         37.2060   45.0440   37.3600 N.4      11 LYL4        0.0000 
     83 NZ         35.7580   42.3590   35.5010 N.4       7 LYP4        0.0000 
     84 N          36.5685   43.7030   37.0895 N.am      2 SEC2        0.0000 
     85 N          37.2060   45.0440   37.3600 N.am     10 SEL2        0.0000 
     86 N          35.9310   42.3620   36.8190 N.am      6 SEP2        0.0000 
     87 N          36.6350   44.2390   36.0715 N.am      2 SEC2        0.0000 
     88 N          36.0640   43.4340   34.7830 N.am      6 SEP2        0.0000 
     89 NZ         35.8725   44.8345   35.3025 N.4       3 LYC4        0.0000 
     90 NZ         35.6810   46.2350   35.8220 N.4      11 LYL4        0.0000 
     91 N          35.8725   44.8345   35.3025 N.am      2 SEC2        0.0000 
     92 N          35.6810   46.2350   35.8220 N.am     10 SEL2        0.0000 
     93 N          35.8130   47.3125   34.9795 N.am      2 SEC2        0.0000 
     94 N          35.9450   48.3900   34.1370 N.am      6 SEP2        0.0000 
     95 N          36.7860   47.7475   38.9625 N.am      2 SEC2        0.0000 
     96 N          36.9100   47.4840   37.5590 N.am     10 SEL2        0.0000 
     97 N          36.6620   48.0110   40.3660 N.am      6 SEP2        0.0000 
     98 N          36.5030   48.6150   37.1835 N.am      2 SEC2        0.0000 
     99 N          36.0960   49.7460   36.8080 N.am      6 SEP2        0.0000 
    100 CA         32.4612   47.5080   40.4565 C.3       4 GLC5        0.0000 
    101 CA         33.3615   49.8482   38.9958 C.3       4 GLC5        0.0000 
    102 CA         34.0320   51.6600   39.6040 C.3       8 GLP5        0.0000 
    103 CA         34.3925   48.5390   37.0988 C.3       4 GLC5        0.0000 
    104 CA         33.6010   47.8180   38.6740 C.3      12 GLL5        0.0000 
    105 CA         30.2572   41.3460   37.4520 C.3       4 GLC5        0.0000 
    106 CA         28.4040   41.1560   36.7840 C.3       8 GLP5        0.0000 
    107 CA         33.9451   41.7888   38.0870 C.3       4 GLC5        0.0000 
    108 CA         32.1320   42.2080   37.9080 C.3      12 GLL5        0.0000 
    109 CA         35.6000   41.2320   37.6850 C.3       8 GLP5        0.0000 
    110 CA         25.1520   49.9665   39.9537 C.3       4 GLC5        0.0000 
    111 CA         27.2047   49.7875   35.7073 C.3       4 GLC5        0.0000 
    112 CA         28.0630   49.5040   33.9750 C.3       8 GLP5        0.0000 
    113 CA         24.0077   49.2108   36.9435 C.3       4 GLC5        0.0000 
    114 CA         26.0020   50.4380   36.8680 C.3      12 GLL5        0.0000 
    115 CA         22.5690   47.6230   36.6400 C.3       8 GLP5        0.0000 
    116 CA         24.2765   53.5050   34.7355 C.3       4 GLC5        0.0000 
    117 CA         25.0860   53.2610   36.3300 C.3      12 GLL5        0.0000 
    118 CA         22.4593   54.6882   34.9790 C.3       4 GLC5        0.0000 
    119 CA         23.3770   54.8110   36.2940 C.3      12 GLL5        0.0000 
    120 CA         21.9780   55.0470   33.4460 C.3       8 GLP5        0.0000 
    121 CA         21.9177   55.1992   38.1265 C.3       4 GLC5        0.0000 
    122 CA         20.8950   56.0690   39.7410 C.3       8 GLP5        0.0000 
    123 CA         21.4733   52.3547   36.1210 C.3       4 GLC5        0.0000 
    124 CA         22.5040   53.8480   36.7300 C.3      12 GLL5        0.0000 
    125 CA         20.2060   51.4730   35.3240 C.3       8 GLP5        0.0000 
@<TRIPOS>BOND
@<TRIPOS>SUBSTRUCTURE
     1 ALC1       23 GROUP        1 X    ALC  0     ROOT ALC X 1
     2 SEC2        4 GROUP        1 X    SEC  0     **** SEC X 2
     3 LYC4        1 GROUP        1 X    LYC  0     **** LYC X 4
     4 GLC5       14 GROUP        1 X    GLC  0     **** GLC X 6
     5 ALP1       25 GROUP        1 Y    ALP  0     ROOT ALP Y 8
     6 SEP2        6 GROUP        1 Y    SEP  0     **** SEP Y 9
     7 LYP4        3 GROUP        1 Y    LYP  0     **** LYP Y 11
     8 GLP5       16 GROUP        1 Y    GLP  0     **** GLP Y 13
     9 ALL1       24 GROUP        1 Z    ALL  0     ROOT ALL Z 15
    10 SEL2        5 GROUP        1 Z    SEL  0     **** SEL Z 16
    11 LYL4        2 GROUP        1 Z    LYL  0     **** LYL Z 18
    12 GLL5       15 GROUP        1 Z    GLL  0     **** GLL Z 20
@<TRIPOS>SET

