#    Name: 1n7g_NDP_2_ligand
#    Modification time : Mon Mar 24 17:48:40 2014

@<TRIPOS>MOLECULE
1n7g_NDP_2_ligand
   74    78     1     0     0
SMALL
NO_CHARGES


@<TRIPOS>ATOM
      1 PA         31.4940   50.9820   36.3550 P.3       1 NDP702      0.0000 
      2 O1A        31.4270   50.2620   35.0640 O.co2     1 NDP702      0.0000 
      3 O2A        32.4010   52.1550   36.4880 O.co2     1 NDP702      0.0000 
      4 O5B        31.9220   49.9680   37.5010 O.3       1 NDP702      0.0000 
      5 C5B        31.4860   48.6080   37.5040 C.3       1 NDP702      0.0000 
      6 C4B        32.0760   47.9020   38.6980 C.3       1 NDP702      0.0000 
      7 O4B        31.6210   46.5120   38.7230 O.3       1 NDP702      0.0000 
      8 C3B        33.6010   47.8180   38.6740 C.3       1 NDP702      0.0000 
      9 O3B        34.0850   47.7960   40.0110 O.3       1 NDP702      0.0000 
     10 C2B        33.8050   46.4540   38.0330 C.3       1 NDP702      0.0000 
     11 O2B        35.0960   45.9090   38.2140 O.3       1 NDP702      0.0000 
     12 C1B        32.7540   45.6640   38.8030 C.3       1 NDP702      0.0000 
     13 N9A        32.4180   44.3670   38.2140 N.pl3     1 NDP702      0.0000 
     14 C8A        32.0650   44.0880   36.9180 C.2       1 NDP702      0.0000 
     15 N7A        31.8840   42.8110   36.6830 N.2       1 NDP702      0.0000 
     16 C5A        32.1320   42.2080   37.9080 C.ar      1 NDP702      0.0000 
     17 C6A        32.0890   40.8640   38.3320 C.ar      1 NDP702      0.0000 
     18 N6A        31.7790   39.8390   37.5300 N.pl3     1 NDP702      0.0000 
     19 N1A        32.3790   40.6060   39.6270 N.ar      1 NDP702      0.0000 
     20 C2A        32.6940   41.6310   40.4290 C.ar      1 NDP702      0.0000 
     21 N3A        32.7690   42.9310   40.1460 N.ar      1 NDP702      0.0000 
     22 C4A        32.4700   43.1550   38.8580 C.ar      1 NDP702      0.0000 
     23 O3         30.0030   51.4590   36.7790 O.3       1 NDP702      0.0000 
     24 PN         29.3850   52.7260   37.5860 P.3       1 NDP702      0.0000 
     25 O1N        29.3420   53.9160   36.6420 O.co2     1 NDP702      0.0000 
     26 O2N        30.2830   53.0220   38.7730 O.co2     1 NDP702      0.0000 
     27 O5D        27.9900   52.3580   38.0560 O.3       1 NDP702      0.0000 
     28 C5D        27.8000   51.6350   39.2680 C.3       1 NDP702      0.0000 
     29 C4D        26.6090   50.7140   39.1500 C.3       1 NDP702      0.0000 
     30 O4D        25.4080   51.4950   38.8970 O.3       1 NDP702      0.0000 
     31 C3D        26.6910   49.7040   38.0110 C.3       1 NDP702      0.0000 
     32 O3D        25.9700   48.5300   38.3620 O.3       1 NDP702      0.0000 
     33 C2D        26.0020   50.4380   36.8680 C.3       1 NDP702      0.0000 
     34 O2D        25.4530   49.5390   35.9260 O.3       1 NDP702      0.0000 
     35 C1D        24.8910   51.1590   37.6260 C.3       1 NDP702      0.0000 
     36 N1N        24.3280   52.3740   37.0240 N.pl3     1 NDP702      0.0000 
     37 C2N        25.0860   53.2610   36.3300 C.2       1 NDP702      0.0000 
     38 C3N        24.6440   54.4630   35.9820 C.2       1 NDP702      0.0000 
     39 C7N        25.5270   55.4260   35.6470 C.2       1 NDP702      0.0000 
     40 O7N        25.2330   56.4650   35.0440 O.2       1 NDP702      0.0000 
     41 N7N        26.7790   55.2090   36.0460 N.am      1 NDP702      0.0000 
     42 C4N        23.3770   54.8110   36.2940 C.3       1 NDP702      0.0000 
     43 C5N        22.5040   53.8480   36.7300 C.2       1 NDP702      0.0000 
     44 C6N        22.9770   52.6250   37.1060 C.2       1 NDP702      0.0000 
     45 P2B        36.2040   46.1780   37.2450 P.3       1 NDP702      0.0000 
     46 O1X        37.2060   45.0440   37.3600 O.co2     1 NDP702      0.0000 
     47 O2X        35.6810   46.2350   35.8220 O.co2     1 NDP702      0.0000 
     48 O3X        36.9100   47.4840   37.5590 O.co2     1 NDP702      0.0000 
     49 H          31.8075   48.0809   36.5988 H         1 NDP702      0.0000 
     50 H          30.3944   48.5360   37.5662 H         1 NDP702      0.0000 
     51 H          31.7775   48.3898   39.6059 H         1 NDP702      0.0000 
     52 H          33.9784   48.5537   38.0654 H         1 NDP702      0.0000 
     53 H          33.4735   46.5140   37.0262 H         1 NDP702      0.0000 
     54 H          33.0768   45.5748   39.8140 H         1 NDP702      0.0000 
     55 H          31.9628   44.8171   36.2360 H         1 NDP702      0.0000 
     56 H          32.2162   38.9653   37.7436 H         1 NDP702      0.0000 
     57 H          31.1379   40.0384   36.7889 H         1 NDP702      0.0000 
     58 H          32.9254   41.3560   41.4795 H         1 NDP702      0.0000 
     59 H          27.6249   52.3117   40.1187 H         1 NDP702      0.0000 
     60 H          28.6812   51.0231   39.5156 H         1 NDP702      0.0000 
     61 H          26.4805   50.1654   40.0765 H         1 NDP702      0.0000 
     62 H          27.6944   49.5500   37.7665 H         1 NDP702      0.0000 
     63 H          26.6585   51.1552   36.4833 H         1 NDP702      0.0000 
     64 H          24.0756   50.4221   37.7771 H         1 NDP702      0.0000 
     65 H          26.0715   52.9688   36.0605 H         1 NDP702      0.0000 
     66 H          26.9296   54.3869   36.5951 H         1 NDP702      0.0000 
     67 H          27.4557   55.8877   35.7606 H         1 NDP702      0.0000 
     68 H          22.8960   55.3705   35.3955 H         1 NDP702      0.0000 
     69 H          23.3925   55.6780   37.0685 H         1 NDP702      0.0000 
     70 H          21.4906   54.0511   36.7726 H         1 NDP702      0.0000 
     71 H          22.3364   51.8953   37.4475 H         1 NDP702      0.0000 
     72 H          35.0778   47.7117   39.9253 H         1 NDP702      0.0000 
     73 H          26.5997   47.7751   38.1785 H         1 NDP702      0.0000 
     74 H          25.2956   48.6936   36.4365 H         1 NDP702      0.0000 
@<TRIPOS>BOND
     1    2    1 ar   
     2    3    1 ar   
     3    4    1 1    
     4   23    1 1    
     5    5    4 1    
     6    6    5 1    
     7   49    5 1    
     8   50    5 1    
     9    7    6 1    
    10    8    6 1    
    11   51    6 1    
    12   12    7 1    
    13    9    8 1    
    14   10    8 1    
    15   52    8 1    
    16   72    9 1    
    17   11   10 1    
    18   12   10 1    
    19   53   10 1    
    20   45   11 1    
    21   13   12 1    
    22   54   12 1    
    23   14   13 1    
    24   22   13 1    
    25   15   14 2    
    26   55   14 1    
    27   16   15 1    
    28   17   16 ar   
    29   22   16 ar   
    30   18   17 1    
    31   19   17 ar   
    32   56   18 1    
    33   57   18 1    
    34   20   19 ar   
    35   21   20 ar   
    36   58   20 1    
    37   22   21 ar   
    38   24   23 1    
    39   25   24 ar   
    40   26   24 ar   
    41   27   24 1    
    42   28   27 1    
    43   29   28 1    
    44   59   28 1    
    45   60   28 1    
    46   30   29 1    
    47   31   29 1    
    48   61   29 1    
    49   35   30 1    
    50   32   31 1    
    51   33   31 1    
    52   62   31 1    
    53   73   32 1    
    54   34   33 1    
    55   35   33 1    
    56   63   33 1    
    57   74   34 1    
    58   36   35 1    
    59   64   35 1    
    60   37   36 1    
    61   44   36 1    
    62   38   37 2    
    63   65   37 1    
    64   39   38 1    
    65   42   38 1    
    66   40   39 2    
    67   41   39 am   
    68   66   41 1    
    69   67   41 1    
    70   43   42 1    
    71   68   42 1    
    72   69   42 1    
    73   44   43 2    
    74   70   43 1    
    75   71   44 1    
    76   46   45 ar   
    77   47   45 ar   
    78   48   45 ar   
@<TRIPOS>SUBSTRUCTURE
     1 NDP702      1 GROUP   
@<TRIPOS>SET

