#    Name: 3sn7_540_2_INTS_M
#    Modification time : Mon Mar 24 17:54:47 2014

@<TRIPOS>MOLECULE
3sn7_540_2_INTS_M
   47     0     6     0     0
SMALL
NO_CHARGES


@<TRIPOS>ATOM
      1 CA         14.7455  -41.9150  -18.4320 C.3       2 GLC5        0.0000 
      2 CA         15.0910  -41.0120  -20.3420 C.3       6 GLL5        0.0000 
      3 CA         14.4000  -42.8180  -16.5220 C.3       4 GLP5        0.0000 
      4 CA         16.7970  -40.6925  -19.5015 C.3       2 GLC5        0.0000 
      5 CA         18.5030  -40.3730  -18.6610 C.3       4 GLP5        0.0000 
      6 CA         16.5340  -40.6275  -21.3295 C.3       2 GLC5        0.0000 
      7 CA         17.9770  -40.2430  -22.3170 C.3       4 GLP5        0.0000 
      8 CA         16.6215  -39.0080  -23.1295 C.3       2 GLC5        0.0000 
      9 CA         15.2660  -37.7730  -23.9420 C.3       6 GLL5        0.0000 
     10 N          18.6175  -35.5370  -18.7555 N.am      1 SEC2        0.0000 
     11 N          17.2080  -36.0950  -18.9920 N.am      5 SEL2        0.0000 
     12 N          20.0270  -34.9790  -18.5190 N.am      3 SEP2        0.0000 
     13 CA         12.6240  -37.0810  -17.4360 C.3       2 GLC5        0.0000 
     14 CA         14.4050  -37.7880  -17.0210 C.3       6 GLL5        0.0000 
     15 CA         10.8430  -36.3740  -17.8510 C.3       4 GLP5        0.0000 
     16 CA         15.9690  -34.9250  -15.3870 C.3       2 GLC5        0.0000 
     17 CA         16.9370  -35.8600  -16.6190 C.3       6 GLL5        0.0000 
     18 CA         15.0010  -33.9900  -14.1550 C.3       4 GLP5        0.0000 
     19 CA         17.2465  -37.6705  -16.1345 C.3       2 GLC5        0.0000 
     20 CA         17.5560  -39.4810  -15.6500 C.3       4 GLP5        0.0000 
     21 CA         15.5780  -34.8850  -17.6535 C.3       2 GLC5        0.0000 
     22 CA         14.2190  -33.9100  -18.6880 C.3       4 GLP5        0.0000 
     23 CA         20.8895  -35.8550  -21.5065 C.3       2 GLC5        0.0000 
     24 CA         19.3410  -34.7610  -22.4750 C.3       6 GLL5        0.0000 
     25 CA         22.4380  -36.9490  -20.5380 C.3       4 GLP5        0.0000 
     26 CA         19.3385  -36.1595  -23.9635 C.3       2 GLC5        0.0000 
     27 CA         19.3360  -37.5580  -25.4520 C.3       4 GLP5        0.0000 
     28 CA         20.9705  -33.2975  -22.3420 C.3       2 GLC5        0.0000 
     29 CA         22.6000  -31.8340  -22.2090 C.3       4 GLP5        0.0000 
     30 CA         18.1370  -33.4160  -21.5435 C.3       2 GLC5        0.0000 
     31 CA         16.9330  -32.0710  -20.6120 C.3       4 GLP5        0.0000 
     32 CA         12.3935  -37.1750  -15.1540 C.3       2 GLC5        0.0000 
     33 CA         14.3250  -37.5870  -15.5370 C.3       6 GLL5        0.0000 
     34 CA         10.4620  -36.7630  -14.7710 C.3       4 GLP5        0.0000 
     35 CA         14.6050  -38.0485  -13.5330 C.3       2 GLC5        0.0000 
     36 CA         14.8850  -38.5100  -11.5290 C.3       4 GLP5        0.0000 
     37 CA         14.6630  -35.7885  -14.8460 C.3       2 GLC5        0.0000 
     38 CA         15.9405  -38.5340  -15.5935 C.3       2 GLC5        0.0000 
     39 CA         10.8910  -37.8653  -21.7183 C.3       2 GLC5        0.0000 
     40 CA         11.5360  -39.1300  -20.1160 C.3       6 GLL5        0.0000 
     41 CA         10.5740  -36.1530  -22.8700 C.3       4 GLP5        0.0000 
     42 CA         11.5422  -37.8240  -18.9213 C.3       2 GLC5        0.0000 
     43 CA         16.2000  -38.5058  -16.5708 C.3       2 GLC5        0.0000 
     44 CA         17.7934  -37.3041  -24.2638 C.3       2 GLC5        0.0000 
     45 CA         15.8030  -37.3480  -22.7960 C.3       6 GLL5        0.0000 
     46 CA         17.0328  -34.1977  -20.7540 C.3       2 GLC5        0.0000 
     47 CA         17.5000  -36.1120  -21.5180 C.3       6 GLL5        0.0000 
@<TRIPOS>BOND
@<TRIPOS>SUBSTRUCTURE
     1 SEC2       10 GROUP        1 X    SEC  0     ROOT SEC X 2
     2 GLC5        1 GROUP        1 X    GLC  0     **** GLC X 6
     3 SEP2       12 GROUP        1 Y    SEP  0     ROOT SEP Y 9
     4 GLP5        3 GROUP        1 Y    GLP  0     **** GLP Y 13
     5 SEL2       11 GROUP        1 Z    SEL  0     ROOT SEL Z 16
     6 GLL5        2 GROUP        1 Z    GLL  0     **** GLL Z 20
@<TRIPOS>SET

