#    Name: 3sn7_540_2_ligand
#    Modification time : Mon Mar 24 17:54:47 2014

@<TRIPOS>MOLECULE
3sn7_540_2_ligand
   42    45     1     0     0
SMALL
NO_CHARGES


@<TRIPOS>ATOM
      1 C1         15.0910  -41.0120  -20.3420 C.3       1 540780      0.0000 
      2 F1         15.2660  -37.7730  -23.9420 F         1 540780      0.0000 
      3 N1         11.5420  -41.1240  -21.6550 N.ar      1 540780      0.0000 
      4 O1         18.6170  -35.3050  -21.3720 O.3       1 540780      0.0000 
      5 C2         13.6510  -40.5870  -20.5160 C.ar      1 540780      0.0000 
      6 N2         13.4880  -38.6000  -17.6830 N.2       1 540780      0.0000 
      7 C3         12.8730  -41.4130  -21.4110 C.ar      1 540780      0.0000 
      8 N3         14.8590  -37.8060  -19.2240 N.pl3     1 540780      0.0000 
      9 C4         10.8800  -40.0250  -21.0170 C.ar      1 540780      0.0000 
     10 N4         17.2080  -36.0950  -18.9920 N.2       1 540780      0.0000 
     11 C5         11.5360  -39.1300  -20.1160 C.ar      1 540780      0.0000 
     12 C6         12.9470  -39.4180  -19.8670 C.ar      1 540780      0.0000 
     13 C7         13.7580  -38.5920  -18.9560 C.2       1 540780      0.0000 
     14 C8         14.4050  -37.7880  -17.0210 C.2       1 540780      0.0000 
     15 C9         15.2830  -37.2730  -17.9620 C.2       1 540780      0.0000 
     16 C10        15.5790  -37.4220  -20.4000 C.ar      1 540780      0.0000 
     17 C11        15.1650  -37.8020  -21.6510 C.ar      1 540780      0.0000 
     18 C12        15.8030  -37.3480  -22.7960 C.ar      1 540780      0.0000 
     19 C13        16.9670  -36.5400  -22.7820 C.ar      1 540780      0.0000 
     20 C14        17.5000  -36.1120  -21.5180 C.ar      1 540780      0.0000 
     21 C15        16.7650  -36.5370  -20.2740 C.ar      1 540780      0.0000 
     22 C16        16.4810  -36.3730  -17.9060 C.2       1 540780      0.0000 
     23 C17        16.9370  -35.8600  -16.6190 C.3       1 540780      0.0000 
     24 C18        19.3410  -34.7610  -22.4750 C.3       1 540780      0.0000 
     25 C19        14.3250  -37.5870  -15.5370 C.3       1 540780      0.0000 
     26 H          13.3350  -42.2122  -21.8548 H         1 540780      0.0000 
     27 H           9.8729  -39.8722  -21.2203 H         1 540780      0.0000 
     28 H          11.0872  -38.3754  -19.6892 H         1 540780      0.0000 
     29 H          14.3519  -38.4474  -21.7511 H         1 540780      0.0000 
     30 H          17.4203  -36.2651  -23.6396 H         1 540780      0.0000 
     31 H          15.5899  -40.9973  -21.2085 H         1 540780      0.0000 
     32 H          15.5819  -40.4113  -19.7110 H         1 540780      0.0000 
     33 H          15.1628  -41.9407  -19.9782 H         1 540780      0.0000 
     34 H          17.8469  -36.2019  -16.3842 H         1 540780      0.0000 
     35 H          16.9890  -34.8614  -16.6146 H         1 540780      0.0000 
     36 H          16.3234  -36.1249  -15.8751 H         1 540780      0.0000 
     37 H          20.1144  -34.2037  -22.1730 H         1 540780      0.0000 
     38 H          19.7096  -35.4777  -23.0670 H         1 540780      0.0000 
     39 H          18.7642  -34.1770  -23.0461 H         1 540780      0.0000 
     40 H          14.4162  -38.4499  -15.0399 H         1 540780      0.0000 
     41 H          15.0469  -36.9798  -15.2050 H         1 540780      0.0000 
     42 H          13.4525  -37.1820  -15.2636 H         1 540780      0.0000 
@<TRIPOS>BOND
     1    5    1 1    
     2   31    1 1    
     3   32    1 1    
     4   33    1 1    
     5   18    2 1    
     6    7    3 ar   
     7    9    3 ar   
     8   20    4 1    
     9   24    4 1    
    10    7    5 ar   
    11   12    5 ar   
    12   13    6 2    
    13   14    6 1    
    14   26    7 1    
    15   13    8 1    
    16   15    8 1    
    17   16    8 1    
    18   11    9 ar   
    19   27    9 1    
    20   21   10 1    
    21   22   10 2    
    22   12   11 ar   
    23   28   11 1    
    24   13   12 1    
    25   15   14 2    
    26   25   14 1    
    27   22   15 1    
    28   17   16 ar   
    29   21   16 ar   
    30   18   17 ar   
    31   29   17 1    
    32   19   18 ar   
    33   20   19 ar   
    34   30   19 1    
    35   21   20 ar   
    36   23   22 1    
    37   34   23 1    
    38   35   23 1    
    39   36   23 1    
    40   37   24 1    
    41   38   24 1    
    42   39   24 1    
    43   40   25 1    
    44   41   25 1    
    45   42   25 1    
@<TRIPOS>SUBSTRUCTURE
     1 540780      1 GROUP   
@<TRIPOS>SET

