#    Name: 1eio_GCH_1_INTS_M
#    Modification time : Mon Mar 24 23:58:11 2014

@<TRIPOS>MOLECULE
1eio_GCH_1_INTS_M
   63     0     9     0     0
SMALL
NO_CHARGES


@<TRIPOS>ATOM
      1 O           0.5650   -2.4205   -7.1170 O.2       1 ALC1        0.0000 
      2 O           0.8560   -3.2690   -6.0460 O.2       7 ALL1        0.0000 
      3 O           0.2740   -1.5720   -8.1880 O.2       4 ALP1        0.0000 
      4 O           1.6055   -2.3205   -6.5435 O.2       1 ALC1        0.0000 
      5 O           2.3550   -1.3720   -7.0410 O.2       4 ALP1        0.0000 
      6 CA          0.1310   -4.2755   -1.9825 C.3       3 GLC5        0.0000 
      7 CA         -1.4850   -3.4230   -3.1250 C.3       9 GLL5        0.0000 
      8 CA          1.7470   -5.1280   -0.8400 C.3       6 GLP5        0.0000 
      9 CA          0.8775   -4.0975   -3.1240 C.3       3 GLC5        0.0000 
     10 CA         -0.8450   -3.8390   -4.4440 C.3       9 GLL5        0.0000 
     11 CA          2.6000   -4.3560   -1.8040 C.3       6 GLP5        0.0000 
     12 CA         -0.3115   -5.8065   -3.9915 C.3       3 GLC5        0.0000 
     13 CA          0.2220   -7.7740   -3.5390 C.3       6 GLP5        0.0000 
     14 CA         -1.8325   -5.1000   -5.9105 C.3       3 GLC5        0.0000 
     15 CA         -2.8200   -6.3610   -7.3770 C.3       6 GLP5        0.0000 
     16 CA         -3.1280   -0.4690   -0.3610 C.3       3 GLC5        0.0000 
     17 CA         -2.4640   -1.6410   -1.6850 C.3       9 GLL5        0.0000 
     18 CA         -3.7920    0.7030    0.9630 C.3       6 GLP5        0.0000 
     19 CA         -7.2885   -3.3040   -3.7295 C.3       3 GLC5        0.0000 
     20 CA         -5.5610   -2.6380   -4.8940 C.3       9 GLL5        0.0000 
     21 CA         -9.0160   -3.9700   -2.5650 C.3       6 GLP5        0.0000 
     22 CA         -6.3465    3.0155   -6.1745 C.3       3 GLC5        0.0000 
     23 CA         -5.5530    1.1100   -5.4100 C.3       9 GLL5        0.0000 
     24 CA         -7.1400    4.9210   -6.9390 C.3       6 GLP5        0.0000 
     25 CA         -7.8370    2.0275   -6.9320 C.3       3 GLC5        0.0000 
     26 CA         -6.8940    0.7780   -6.0660 C.3       9 GLL5        0.0000 
     27 CA         -8.7800    3.2770   -7.7980 C.3       6 GLP5        0.0000 
     28 CA         -8.8305   -3.3565   -4.4660 C.3       3 GLC5        0.0000 
     29 CA         -8.6450   -2.7430   -6.3670 C.3       9 GLL5        0.0000 
     30 CA         -7.1955   -2.3345   -7.9905 C.3       3 GLC5        0.0000 
     31 CA         -5.7460   -1.9260   -9.6140 C.3       6 GLP5        0.0000 
     32 CA         -9.0400    1.4040   -7.5170 C.3       3 GLC5        0.0000 
     33 CA         -9.3000   -0.4690   -7.2360 C.3       9 GLL5        0.0000 
     34 CA         -8.2785   -0.2150   -9.0690 C.3       3 GLC5        0.0000 
     35 CA         -7.2570    0.0390  -10.9020 C.3       6 GLP5        0.0000 
     36 CA        -11.9605   -2.2855   -7.7450 C.3       3 GLC5        0.0000 
     37 CA        -10.7720   -0.8500   -7.3780 C.3       9 GLL5        0.0000 
     38 CA        -13.1490   -3.7210   -8.1120 C.3       6 GLP5        0.0000 
     39 CA        -13.6745   -0.5475   -9.5410 C.3       3 GLC5        0.0000 
     40 CA        -12.5750    1.0400  -10.1480 C.3       9 GLL5        0.0000 
     41 CA        -14.7740   -2.1350   -8.9340 C.3       6 GLP5        0.0000 
     42 N         -12.3525    2.0445   -6.4735 N.am      2 SEC2        0.0000 
     43 N         -11.9930    1.2210   -7.4020 N.am      8 SEL2        0.0000 
     44 N         -12.7120    2.8680   -5.5450 N.am      5 SEP2        0.0000 
     45 CA         -7.8990   -2.4360   -3.0485 C.3       3 GLC5        0.0000 
     46 CA         -6.7820   -0.9020   -3.5320 C.3       9 GLL5        0.0000 
     47 CA         -7.4070    0.0600   -2.0305 C.3       3 GLC5        0.0000 
     48 CA         -8.0320    1.0220   -0.5290 C.3       6 GLP5        0.0000 
     49 CA         -0.1427   -2.3470   -6.8857 C.3       3 GLC5        0.0000 
     50 CA          0.2980   -2.8980   -4.7870 C.3       9 GLL5        0.0000 
     51 CA         -0.3510   -2.5210   -8.9610 C.3       6 GLP5        0.0000 
     52 CA          1.1624   -2.2838   -3.0326 C.3       3 GLC5        0.0000 
     53 CA         -0.1670   -1.4480   -4.8340 C.3       9 GLL5        0.0000 
     54 CA          2.7350   -2.9820   -1.8860 C.3       6 GLP5        0.0000 
     55 CA          0.3045    0.7105   -2.5780 C.3       3 GLC5        0.0000 
     56 CA         -0.8860   -0.9980   -3.5480 C.3       9 GLL5        0.0000 
     57 CA          1.7360    1.6880   -1.5480 C.3       6 GLP5        0.0000 
     58 CA         -2.4426   -3.5596   -1.1354 C.3       3 GLC5        0.0000 
     59 CA         -2.7730   -4.9510    0.1370 C.3       6 GLP5        0.0000 
     60 CA         -7.2238    1.8120   -4.0725 C.3       3 GLC5        0.0000 
     61 CA         -8.2240    2.6800   -2.4070 C.3       6 GLP5        0.0000 
     62 CA         -5.7799   -0.1796   -7.5578 C.3       3 GLC5        0.0000 
     63 CA         -5.4590   -0.5760   -9.4320 C.3       6 GLP5        0.0000 
@<TRIPOS>BOND
@<TRIPOS>SUBSTRUCTURE
     1 ALC1        1 GROUP        1 X    ALC  0     ROOT ALC X 1
     2 SEC2       42 GROUP        1 X    SEC  0     **** SEC X 2
     3 GLC5        6 GROUP        1 X    GLC  0     **** GLC X 6
     4 ALP1        3 GROUP        1 Y    ALP  0     ROOT ALP Y 8
     5 SEP2       44 GROUP        1 Y    SEP  0     **** SEP Y 9
     6 GLP5        8 GROUP        1 Y    GLP  0     **** GLP Y 13
     7 ALL1        2 GROUP        1 Z    ALL  0     ROOT ALL Z 15
     8 SEL2       43 GROUP        1 Z    SEL  0     **** SEL Z 16
     9 GLL5        7 GROUP        1 Z    GLL  0     **** GLL Z 20
@<TRIPOS>SET

