#    Name: 1eio_GCH_1_ligand
#    Modification time : Mon Mar 24 23:58:11 2014

@<TRIPOS>MOLECULE
1eio_GCH_1_ligand
   75    78     1     0     0
SMALL
NO_CHARGES


@<TRIPOS>ATOM
      1 C           0.2980   -2.8980   -4.7870 C.3       1 GCH128      0.0000 
      2 O           0.8560   -3.2690   -6.0460 O.3       1 GCH128      0.0000 
      3 C1         -0.1670   -1.4480   -4.8340 C.3       1 GCH128      0.0000 
      4 C2         -0.8860   -0.9980   -3.5480 C.3       1 GCH128      0.0000 
      5 C3         -2.0360   -1.9680   -3.1360 C.3       1 GCH128      0.0000 
      6 C4         -1.4850   -3.4230   -3.1250 C.3       1 GCH128      0.0000 
      7 C5         -0.8450   -3.8390   -4.4440 C.3       1 GCH128      0.0000 
      8 C6         -2.4640   -1.6410   -1.6850 C.3       1 GCH128      0.0000 
      9 C7         -1.3680    0.4640   -3.6680 C.3       1 GCH128      0.0000 
     10 C8         -2.6130    0.6620   -4.5350 C.3       1 GCH128      0.0000 
     11 O1         -2.2240    0.5670   -5.9080 O.3       1 GCH128      0.0000 
     12 C9         -3.7510   -0.3280   -4.1880 C.3       1 GCH128      0.0000 
     13 C10        -3.2360   -1.7990   -4.1370 C.3       1 GCH128      0.0000 
     14 C11        -4.3950   -2.8030   -3.9000 C.3       1 GCH128      0.0000 
     15 C12        -5.5610   -2.6380   -4.8940 C.3       1 GCH128      0.0000 
     16 C13        -6.1090   -1.1960   -4.8900 C.3       1 GCH128      0.0000 
     17 C14        -4.9110   -0.2510   -5.1880 C.3       1 GCH128      0.0000 
     18 C15        -5.5530    1.1100   -5.4100 C.3       1 GCH128      0.0000 
     19 C16        -6.8940    0.7780   -6.0660 C.3       1 GCH128      0.0000 
     20 C17        -7.0450   -0.7700   -6.0700 C.3       1 GCH128      0.0000 
     21 C18        -8.5310   -1.2350   -6.1230 C.3       1 GCH128      0.0000 
     22 C19        -8.6450   -2.7430   -6.3670 C.3       1 GCH128      0.0000 
     23 C20        -9.3000   -0.4690   -7.2360 C.3       1 GCH128      0.0000 
     24 C21       -10.7720   -0.8500   -7.3780 C.3       1 GCH128      0.0000 
     25 C22       -11.5490    0.2680   -8.0460 C.2       1 GCH128      0.0000 
     26 N         -11.6750    0.1670   -9.4080 N.am      1 GCH128      0.0000 
     27 CA        -12.5750    1.0400  -10.1480 C.3       1 GCH128      0.0000 
     28 O2        -11.9930    1.2210   -7.4020 O.2       1 GCH128      0.0000 
     29 C23        -6.7820   -0.9020   -3.5320 C.3       1 GCH128      0.0000 
     30 O3         -5.0960   -2.9960   -6.2030 O.3       1 GCH128      0.0000 
     31 C24       -12.0250    2.4460  -10.3630 C.2       1 GCH128      0.0000 
     32 O4        -13.0080    3.3550  -10.5400 O.co2     1 GCH128      0.0000 
     33 O5        -10.8470    2.7660  -10.4050 O.co2     1 GCH128      0.0000 
     34 H           1.0474   -2.9829   -4.0012 H         1 GCH128      0.0000 
     35 H          -0.8500   -1.3130   -5.6835 H         1 GCH128      0.0000 
     36 H           0.6997   -0.7938   -4.9987 H         1 GCH128      0.0000 
     37 H          -0.1365   -1.0235   -2.7312 H         1 GCH128      0.0000 
     38 H          -2.3137   -4.1028   -2.8890 H         1 GCH128      0.0000 
     39 H          -0.7466   -3.5051   -2.3171 H         1 GCH128      0.0000 
     40 H          -0.4651   -4.8531   -4.3549 H         1 GCH128      0.0000 
     41 H          -1.5919   -3.8043   -5.2324 H         1 GCH128      0.0000 
     42 H          -0.5426    1.0719   -4.0792 H         1 GCH128      0.0000 
     43 H          -1.5710    0.8499   -2.6533 H         1 GCH128      0.0000 
     44 H          -2.9884    1.6759   -4.3272 H         1 GCH128      0.0000 
     45 H          -4.1349   -0.0853   -3.2018 H         1 GCH128      0.0000 
     46 H          -2.8262   -2.0167   -5.1546 H         1 GCH128      0.0000 
     47 H          -4.7725   -2.6679   -2.8800 H         1 GCH128      0.0000 
     48 H          -3.9981   -3.8214   -3.9799 H         1 GCH128      0.0000 
     49 H          -6.3575   -3.3012   -4.5770 H         1 GCH128      0.0000 
     50 H          -4.5375   -0.5812   -6.1936 H         1 GCH128      0.0000 
     51 H          -4.9620    1.6857   -6.0769 H         1 GCH128      0.0000 
     52 H          -5.7201    1.5888   -4.4782 H         1 GCH128      0.0000 
     53 H          -6.9031    1.1304   -7.0785 H         1 GCH128      0.0000 
     54 H          -7.6957    1.2036   -5.4954 H         1 GCH128      0.0000 
     55 H          -6.5270   -1.0914   -7.0016 H         1 GCH128      0.0000 
     56 H          -8.9956   -0.9976   -5.1765 H         1 GCH128      0.0000 
     57 H          -8.7840   -0.6461   -8.1954 H         1 GCH128      0.0000 
     58 H          -9.2223    0.6118   -7.0268 H         1 GCH128      0.0000 
     59 H         -11.1875   -1.0428   -6.3902 H         1 GCH128      0.0000 
     60 H         -10.8499   -1.7561   -7.9768 H         1 GCH128      0.0000 
     61 H         -11.1400   -0.5260   -9.9496 H         1 GCH128      0.0000 
     62 H         -13.5482    1.1322   -9.6230 H         1 GCH128      0.0000 
     63 H         -12.8051    0.6089  -11.1442 H         1 GCH128      0.0000 
     64 H          -1.7069   -1.7504   -1.0409 H         1 GCH128      0.0000 
     65 H          -2.7899   -0.6997   -1.5971 H         1 GCH128      0.0000 
     66 H          -3.2033   -2.2375   -1.3725 H         1 GCH128      0.0000 
     67 H          -8.2206   -3.0125   -7.2315 H         1 GCH128      0.0000 
     68 H          -8.1988   -3.2709   -5.6443 H         1 GCH128      0.0000 
     69 H          -9.5985   -3.0424   -6.4027 H         1 GCH128      0.0000 
     70 H          -6.1387   -0.9915   -2.7716 H         1 GCH128      0.0000 
     71 H          -7.1529    0.0259   -3.4945 H         1 GCH128      0.0000 
     72 H          -7.5401   -1.5282   -3.3499 H         1 GCH128      0.0000 
     73 H           0.9362   -2.4125   -6.5559 H         1 GCH128      0.0000 
     74 H          -3.0623    0.3290   -6.3985 H         1 GCH128      0.0000 
     75 H          -5.0121   -2.1288   -6.6939 H         1 GCH128      0.0000 
@<TRIPOS>BOND
     1    2    1 1    
     2    3    1 1    
     3    7    1 1    
     4   34    1 1    
     5   73    2 1    
     6    4    3 1    
     7   35    3 1    
     8   36    3 1    
     9    5    4 1    
    10    9    4 1    
    11   37    4 1    
    12    6    5 1    
    13    8    5 1    
    14   13    5 1    
    15    7    6 1    
    16   38    6 1    
    17   39    6 1    
    18   40    7 1    
    19   41    7 1    
    20   64    8 1    
    21   65    8 1    
    22   66    8 1    
    23   10    9 1    
    24   42    9 1    
    25   43    9 1    
    26   11   10 1    
    27   12   10 1    
    28   44   10 1    
    29   74   11 1    
    30   13   12 1    
    31   17   12 1    
    32   45   12 1    
    33   14   13 1    
    34   46   13 1    
    35   15   14 1    
    36   47   14 1    
    37   48   14 1    
    38   16   15 1    
    39   30   15 1    
    40   49   15 1    
    41   17   16 1    
    42   20   16 1    
    43   29   16 1    
    44   18   17 1    
    45   50   17 1    
    46   19   18 1    
    47   51   18 1    
    48   52   18 1    
    49   20   19 1    
    50   53   19 1    
    51   54   19 1    
    52   21   20 1    
    53   55   20 1    
    54   22   21 1    
    55   23   21 1    
    56   56   21 1    
    57   67   22 1    
    58   68   22 1    
    59   69   22 1    
    60   24   23 1    
    61   57   23 1    
    62   58   23 1    
    63   25   24 1    
    64   59   24 1    
    65   60   24 1    
    66   26   25 am   
    67   28   25 2    
    68   27   26 1    
    69   61   26 1    
    70   31   27 1    
    71   62   27 1    
    72   63   27 1    
    73   70   29 1    
    74   71   29 1    
    75   72   29 1    
    76   75   30 1    
    77   32   31 ar   
    78   33   31 ar   
@<TRIPOS>SUBSTRUCTURE
     1 GCH128      1 GROUP   
@<TRIPOS>SET

