#    Name: 4iwv_1J9_1_INTS_M
#    Modification time : Tue Mar 25 04:48:11 2014

@<TRIPOS>MOLECULE
4iwv_1J9_1_INTS_M
   76     0     9     0     0
SMALL
NO_CHARGES


@<TRIPOS>ATOM
      1 CA         49.3570   30.4865  -18.7865 C.3       3 GLC5        0.0000 
      2 CA         51.0130   29.2870  -19.3460 C.3       9 GLL5        0.0000 
      3 CA         47.7010   31.6860  -18.2270 C.3       6 GLP5        0.0000 
      4 CA         53.8085   27.3645  -22.4505 C.3       3 GLC5        0.0000 
      5 CA         53.3580   28.6580  -20.7130 C.3       9 GLL5        0.0000 
      6 CA         54.2590   26.0710  -24.1880 C.3       6 GLP5        0.0000 
      7 CA         51.7450   27.5685  -21.7225 C.3       3 GLC5        0.0000 
      8 CA         50.1320   26.4790  -22.7320 C.3       6 GLP5        0.0000 
      9 CA         53.1880   21.9815  -20.6200 C.3       3 GLC5        0.0000 
     10 CA         53.3250   23.7900  -20.3080 C.3       9 GLL5        0.0000 
     11 CA         53.0510   20.1730  -20.9320 C.3       6 GLP5        0.0000 
     12 CA         53.3255   24.3615  -22.1125 C.3       3 GLC5        0.0000 
     13 CA         53.3260   24.9330  -23.9170 C.3       6 GLP5        0.0000 
     14 CA         51.9215   23.8455  -18.9635 C.3       3 GLC5        0.0000 
     15 CA         50.5180   23.9010  -17.6190 C.3       6 GLP5        0.0000 
     16 N          52.3035   25.5470  -21.6115 N.am      2 SEC2        0.0000 
     17 N          53.1580   25.1090  -20.3830 N.am      8 SEL2        0.0000 
     18 N          51.4490   25.9850  -22.8400 N.am      5 SEP2        0.0000 
     19 CA         54.1325   20.8940  -19.3375 C.3       3 GLC5        0.0000 
     20 CA         55.2140   21.6150  -17.7430 C.3       9 GLL5        0.0000 
     21 O          54.6060   19.0110  -17.8135 O.2       1 ALC1        0.0000 
     22 O          53.7980   19.8220  -17.0930 O.2       7 ALL1        0.0000 
     23 O          55.4140   18.2000  -18.5340 O.2       4 ALP1        0.0000 
     24 CA         53.8015   18.0865  -15.2190 C.3       3 GLC5        0.0000 
     25 CA         52.6500   19.2190  -16.5200 C.3       9 GLL5        0.0000 
     26 CA         54.9530   16.9540  -13.9180 C.3       6 GLP5        0.0000 
     27 CA         53.2250   17.1270  -15.0515 C.3       3 GLC5        0.0000 
     28 CA         51.4970   17.3000  -16.1850 C.3       9 GLL5        0.0000 
     29 CA         53.1665   16.2085  -17.1990 C.3       3 GLC5        0.0000 
     30 CA         54.8360   15.1170  -18.2130 C.3       6 GLP5        0.0000 
     31 N          53.8745   17.2550  -16.4970 N.am      2 SEC2        0.0000 
     32 N          52.5710   17.9050  -16.6910 N.am      8 SEL2        0.0000 
     33 N          55.1780   16.6050  -16.3030 N.am      5 SEP2        0.0000 
     34 CA         49.4010   17.1125  -13.2105 C.3       3 GLC5        0.0000 
     35 CA         49.1740   16.8800  -14.9900 C.3       9 GLL5        0.0000 
     36 CA         49.6280   17.3450  -11.4310 C.3       6 GLP5        0.0000 
     37 CA         47.8550   18.3370  -14.4765 C.3       3 GLC5        0.0000 
     38 CA         46.5360   19.7940  -13.9630 C.3       6 GLP5        0.0000 
     39 CA         49.7130   27.0515  -18.1635 C.3       3 GLC5        0.0000 
     40 CA         51.4680   27.4540  -17.4140 C.3       9 GLL5        0.0000 
     41 CA         47.9580   26.6490  -18.9130 C.3       6 GLP5        0.0000 
     42 CA         51.7540   27.6750  -15.6955 C.3       3 GLC5        0.0000 
     43 CA         52.0400   27.8960  -13.9770 C.3       6 GLP5        0.0000 
     44 CA         50.9930   25.6775  -17.5165 C.3       3 GLC5        0.0000 
     45 CA         51.5020   31.6943  -21.5748 C.3       3 GLC5        0.0000 
     46 CA         52.5230   29.6460  -21.1840 C.3       9 GLL5        0.0000 
     47 CA         51.0620   33.5910  -22.3030 C.3       6 GLP5        0.0000 
     48 CA         50.8047   28.0106  -21.4141 C.3       3 GLC5        0.0000 
     49 CA         51.3610   29.9490  -20.5090 C.3       9 GLL5        0.0000 
     50 CA         49.6942   27.7223  -19.0095 C.3       3 GLC5        0.0000 
     51 CA         51.4102   29.4342  -17.0430 C.3       3 GLC5        0.0000 
     52 CA         51.3900   30.0730  -14.9800 C.3       6 GLP5        0.0000 
     53 CA         52.4401   24.2114  -18.1304 C.3       3 GLC5        0.0000 
     54 CA         53.7780   25.6840  -19.3530 C.3       9 GLL5        0.0000 
     55 CA         55.9567   20.2865  -15.7460 C.3       3 GLC5        0.0000 
     56 CA         56.0540   19.2600  -14.0180 C.3       6 GLP5        0.0000 
     57 CA         59.6950   21.5117  -15.7363 C.3       3 GLC5        0.0000 
     58 CA         58.7860   21.2980  -17.2830 C.3       9 GLL5        0.0000 
     59 CA         60.0370   21.5320  -13.7320 C.3       6 GLP5        0.0000 
     60 CA         59.8225   23.1608  -18.5663 C.3       3 GLC5        0.0000 
     61 CA         60.2920   24.8300  -19.3920 C.3       6 GLP5        0.0000 
     62 CA         60.1625   20.0812  -16.7923 C.3       3 GLC5        0.0000 
     63 CA         59.9200   21.6850  -18.1980 C.3       9 GLL5        0.0000 
     64 CA         60.9720   18.6710  -15.8440 C.3       6 GLP5        0.0000 
     65 CA         51.3555   20.3675  -14.0407 C.3       3 GLC5        0.0000 
     66 CA         51.6740   19.9360  -15.8430 C.3       9 GLL5        0.0000 
     67 CA         51.5980   21.1300  -12.4940 C.3       6 GLP5        0.0000 
     68 CA         50.0690   17.9688  -13.4285 C.3       3 GLC5        0.0000 
     69 CA         50.5520   19.2740  -15.3320 C.3       9 GLL5        0.0000 
     70 CA         50.7335   20.5019  -17.0439 C.3       3 GLC5        0.0000 
     71 CA         50.1100   21.5780  -18.3310 C.3       6 GLP5        0.0000 
     72 CA         48.5095   19.3178  -15.4355 C.3       3 GLC5        0.0000 
     73 CA         46.5090   20.0430  -15.4450 C.3       6 GLP5        0.0000 
     74 CA         48.9555   17.7998  -17.1255 C.3       3 GLC5        0.0000 
     75 CA         50.4680   17.9110  -15.5200 C.3       9 GLL5        0.0000 
     76 CA         48.0900   18.2040  -18.9960 C.3       6 GLP5        0.0000 
@<TRIPOS>BOND
@<TRIPOS>SUBSTRUCTURE
     1 ALC1       21 GROUP        1 X    ALC  0     ROOT ALC X 1
     2 SEC2       16 GROUP        1 X    SEC  0     **** SEC X 2
     3 GLC5        1 GROUP        1 X    GLC  0     **** GLC X 6
     4 ALP1       23 GROUP        1 Y    ALP  0     ROOT ALP Y 8
     5 SEP2       18 GROUP        1 Y    SEP  0     **** SEP Y 9
     6 GLP5        3 GROUP        1 Y    GLP  0     **** GLP Y 13
     7 ALL1       22 GROUP        1 Z    ALL  0     ROOT ALL Z 15
     8 SEL2       17 GROUP        1 Z    SEL  0     **** SEL Z 16
     9 GLL5        2 GROUP        1 Z    GLL  0     **** GLL Z 20
@<TRIPOS>SET

