#    Name: 4iwv_1J9_1_ligand
#    Modification time : Tue Mar 25 04:48:11 2014

@<TRIPOS>MOLECULE
4iwv_1J9_1_ligand
   51    54     1     0     0
SMALL
NO_CHARGES


@<TRIPOS>ATOM
      1 C1         52.5230   29.6460  -21.1840 C.ar      1 1J9503      0.0000 
      2 C2         51.3610   29.9490  -20.5090 C.ar      1 1J9503      0.0000 
      3 C3         51.0130   29.2870  -19.3460 C.ar      1 1J9503      0.0000 
      4 C4         51.8480   28.3040  -18.8660 C.ar      1 1J9503      0.0000 
      5 C5         53.0030   28.0090  -19.5530 C.ar      1 1J9503      0.0000 
      6 C6         53.3580   28.6580  -20.7130 C.ar      1 1J9503      0.0000 
      7 N1         53.8580   27.0190  -19.0560 N.pl3     1 1J9503      0.0000 
      8 C7         53.7780   25.6840  -19.3530 C.ar      1 1J9503      0.0000 
      9 C8         54.4950   25.0450  -18.3680 C.ar      1 1J9503      0.0000 
     10 C9         54.9740   26.0750  -17.5190 C.2       1 1J9503      0.0000 
     11 N2         54.5770   27.2750  -17.9510 N.2       1 1J9503      0.0000 
     12 C10        54.5880   23.6790  -18.4230 C.ar      1 1J9503      0.0000 
     13 N3         53.9810   23.0360  -19.4140 N.ar      1 1J9503      0.0000 
     14 C11        53.3250   23.7900  -20.3080 C.ar      1 1J9503      0.0000 
     15 N4         53.1580   25.1090  -20.3830 N.ar      1 1J9503      0.0000 
     16 O1         55.2950   22.9970  -17.4530 O.3       1 1J9503      0.0000 
     17 C12        55.2140   21.6150  -17.7430 C.3       1 1J9503      0.0000 
     18 C13        56.5050   21.0110  -17.2050 C.3       1 1J9503      0.0000 
     19 O2         57.5690   21.5990  -17.9370 O.3       1 1J9503      0.0000 
     20 C14        58.7860   21.2980  -17.2830 C.3       1 1J9503      0.0000 
     21 C15        59.9200   21.6850  -18.1980 C.3       1 1J9503      0.0000 
     22 O3         60.1200   20.7060  -19.2030 O.3       1 1J9503      0.0000 
     23 C16        54.0380   21.1510  -16.9380 C.2       1 1J9503      0.0000 
     24 O4         53.4010   21.8900  -16.1920 O.2       1 1J9503      0.0000 
     25 N5         53.7980   19.8220  -17.0930 N.am      1 1J9503      0.0000 
     26 C17        52.6500   19.2190  -16.5200 C.ar      1 1J9503      0.0000 
     27 C18        51.6740   19.9360  -15.8430 C.ar      1 1J9503      0.0000 
     28 C19        50.5520   19.2740  -15.3320 C.ar      1 1J9503      0.0000 
     29 C20        50.4680   17.9110  -15.5200 C.ar      1 1J9503      0.0000 
     30 C21        51.4970   17.3000  -16.1850 C.ar      1 1J9503      0.0000 
     31 N6         52.5710   17.9050  -16.6910 N.ar      1 1J9503      0.0000 
     32 CL1        49.1740   16.8800  -14.9900 Cl        1 1J9503      0.0000 
     33 CL2        51.4680   27.4540  -17.4140 Cl        1 1J9503      0.0000 
     34 H          52.7681   30.1616  -22.0456 H         1 1J9503      0.0000 
     35 H          50.7314   30.6901  -20.8797 H         1 1J9503      0.0000 
     36 H          50.1482   29.5263  -18.8525 H         1 1J9503      0.0000 
     37 H          54.2146   28.4146  -21.2097 H         1 1J9503      0.0000 
     38 H          55.5177   25.8859  -16.7350 H         1 1J9503      0.0000 
     39 H          52.8342   23.2073  -21.1321 H         1 1J9503      0.0000 
     40 H          55.0946   21.4154  -18.7441 H         1 1J9503      0.0000 
     41 H          56.4554   19.9353  -17.3442 H         1 1J9503      0.0000 
     42 H          56.5631   21.2345  -16.1440 H         1 1J9503      0.0000 
     43 H          58.8773   20.2315  -17.0590 H         1 1J9503      0.0000 
     44 H          58.8969   21.8547  -16.3483 H         1 1J9503      0.0000 
     45 H          60.8249   21.8220  -17.5789 H         1 1J9503      0.0000 
     46 H          59.6832   22.6721  -18.6343 H         1 1J9503      0.0000 
     47 H          54.4462   19.2208  -17.6316 H         1 1J9503      0.0000 
     48 H          51.7697   20.9497  -15.7145 H         1 1J9503      0.0000 
     49 H          49.8298   19.7889  -14.8410 H         1 1J9503      0.0000 
     50 H          51.4175   16.2264  -16.3033 H         1 1J9503      0.0000 
     51 H          59.3117   20.7674  -19.7885 H         1 1J9503      0.0000 
@<TRIPOS>BOND
     1    2    1 ar   
     2    6    1 ar   
     3   34    1 1    
     4    3    2 ar   
     5   35    2 1    
     6    4    3 ar   
     7   36    3 1    
     8    5    4 ar   
     9   33    4 1    
    10    6    5 ar   
    11    7    5 1    
    12   37    6 1    
    13    8    7 1    
    14   11    7 1    
    15    9    8 ar   
    16   15    8 ar   
    17   10    9 1    
    18   12    9 ar   
    19   11   10 2    
    20   38   10 1    
    21   13   12 ar   
    22   16   12 1    
    23   14   13 ar   
    24   15   14 ar   
    25   39   14 1    
    26   17   16 1    
    27   18   17 1    
    28   23   17 1    
    29   40   17 1    
    30   19   18 1    
    31   41   18 1    
    32   42   18 1    
    33   20   19 1    
    34   21   20 1    
    35   43   20 1    
    36   44   20 1    
    37   22   21 1    
    38   45   21 1    
    39   46   21 1    
    40   51   22 1    
    41   24   23 2    
    42   25   23 am   
    43   26   25 1    
    44   47   25 1    
    45   27   26 ar   
    46   31   26 ar   
    47   28   27 ar   
    48   48   27 1    
    49   29   28 ar   
    50   49   28 1    
    51   30   29 ar   
    52   32   29 1    
    53   31   30 ar   
    54   50   30 1    
@<TRIPOS>SUBSTRUCTURE
     1 1J9503      1 GROUP   
@<TRIPOS>SET

