#    Name: 4ji9_1M3_1_INTS_M
#    Modification time : Tue Mar 25 05:52:10 2014

@<TRIPOS>MOLECULE
4ji9_1M3_1_INTS_M
   75     0     9     0     0
SMALL
NO_CHARGES


@<TRIPOS>ATOM
      1 CA         53.9220    3.0315    0.3240 C.3       3 GLC5        0.0000 
      2 CA         54.8510    4.5300   -0.1210 C.3       9 GLL5        0.0000 
      3 CA         52.9930    1.5330    0.7690 C.3       6 GLP5        0.0000 
      4 CA         55.9055    4.7955    3.9740 C.3       3 GLC5        0.0000 
      5 CA         56.0730    4.7700    2.0510 C.3       9 GLL5        0.0000 
      6 CA         55.7380    4.8210    5.8970 C.3       6 GLP5        0.0000 
      7 CA         55.3130    3.2005    3.1395 C.3       3 GLC5        0.0000 
      8 CA         54.5530    1.6310    4.2280 C.3       6 GLP5        0.0000 
      9 CA         58.8745    3.8490   -1.1285 C.3       3 GLC5        0.0000 
     10 CA         57.2960    4.1130   -0.0210 C.3       9 GLL5        0.0000 
     11 CA         60.4530    3.5850   -2.2360 C.3       6 GLP5        0.0000 
     12 CA         58.7760    6.7720    4.2420 C.3       3 GLC5        0.0000 
     13 CA         57.1340    8.1920    4.6770 C.3       9 GLL5        0.0000 
     14 CA         60.4180    5.3520    3.8070 C.3       6 GLP5        0.0000 
     15 CA         59.0840    7.0415    2.1660 C.3       3 GLC5        0.0000 
     16 CA         57.8800    8.7710    2.0470 C.3       9 GLL5        0.0000 
     17 CA         60.2880    5.3120    2.2850 C.3       6 GLP5        0.0000 
     18 CA         58.2085   11.1490    3.1600 C.3       3 GLC5        0.0000 
     19 CA         58.7200    9.1300    3.0900 C.3       9 GLL5        0.0000 
     20 CA         57.6970   13.1680    3.2300 C.3       6 GLP5        0.0000 
     21 O          60.2230    9.0020    1.3210 O.2       1 ALC1        0.0000 
     22 O          59.8730    9.7840    2.7810 O.2       7 ALL1        0.0000 
     23 O          60.5730    8.2200   -0.1390 O.2       4 ALP1        0.0000 
     24 CA         61.2875    9.8500    6.6155 C.3       3 GLC5        0.0000 
     25 CA         61.3020   11.3860    5.5880 C.3       9 GLL5        0.0000 
     26 CA         61.2730    8.3140    7.6430 C.3       6 GLP5        0.0000 
     27 CA         63.0570   10.1100    5.1715 C.3       3 GLC5        0.0000 
     28 CA         64.8120    8.8340    4.7550 C.3       6 GLP5        0.0000 
     29 CA         61.8845   13.5475    5.4025 C.3       3 GLC5        0.0000 
     30 CA         62.4670   15.7090    5.2170 C.3       6 GLP5        0.0000 
     31 CA         60.6400   12.2120    3.9045 C.3       3 GLC5        0.0000 
     32 CA         59.9780   13.0380    2.2210 C.3       6 GLP5        0.0000 
     33 N          63.2765   12.8920    5.7500 N.am      2 SEC2        0.0000 
     34 N          62.5500   11.6660    5.1900 N.am      8 SEL2        0.0000 
     35 N          64.0030   14.1180    6.3100 N.am      5 SEP2        0.0000 
     36 CA         63.6555   12.3370    2.1190 C.3       3 GLC5        0.0000 
     37 CA         62.9370   11.3230    3.9580 C.3       9 GLL5        0.0000 
     38 CA         64.3740   13.3510    0.2800 C.3       6 GLP5        0.0000 
     39 CA         64.4000   11.9395    5.2365 C.3       3 GLC5        0.0000 
     40 CA         65.8630   12.5560    6.5150 C.3       6 GLP5        0.0000 
     41 CA         63.6830    9.5700    3.2260 C.3       3 GLC5        0.0000 
     42 CA         62.5540   10.3060    1.6970 C.3       9 GLL5        0.0000 
     43 CA         63.4640   11.8285    0.9885 C.3       3 GLC5        0.0000 
     44 CA         63.6545    9.5445    0.4065 C.3       3 GLC5        0.0000 
     45 CA         64.7550    8.7830   -0.8840 C.3       6 GLP5        0.0000 
     46 CA         61.2660   11.6720    1.9590 C.3       3 GLC5        0.0000 
     47 CA         58.1765   12.0975    5.0965 C.3       3 GLC5        0.0000 
     48 CA         58.6560   11.0270    6.9630 C.3       9 GLL5        0.0000 
     49 CA         56.4990   13.2035    9.3180 C.3       3 GLC5        0.0000 
     50 CA         55.7330   11.8260   10.9010 C.3       9 GLL5        0.0000 
     51 CA         57.2650   14.5810    7.7350 C.3       6 GLP5        0.0000 
     52 CA         58.4965    4.8995    1.4614 C.3       3 GLC5        0.0000 
     53 CA         56.2255    6.4170    5.0232 C.3       3 GLC5        0.0000 
     54 CA         56.2920    7.8340    3.6220 C.3       9 GLL5        0.0000 
     55 CA         58.4147    7.8050    6.1720 C.3       3 GLC5        0.0000 
     56 CA         59.0920    7.0910    7.8030 C.3       6 GLP5        0.0000 
     57 CA         59.9952    7.6835    3.9808 C.3       3 GLC5        0.0000 
     58 CA         58.3410    8.8460    4.4050 C.3       9 GLL5        0.0000 
     59 CA         61.4600    6.3790    4.2140 C.3       6 GLP5        0.0000 
     60 CA         61.4505    8.4595    3.7640 C.3       3 GLC5        0.0000 
     61 CA         60.8000   10.4070    3.5450 C.3       9 GLL5        0.0000 
     62 CA         63.5005    9.8827    4.1955 C.3       3 GLC5        0.0000 
     63 CA         61.0835   11.9848    2.9285 C.3       3 GLC5        0.0000 
     64 CA         60.2415    9.8205    7.4507 C.3       3 GLC5        0.0000 
     65 CA         58.2375   12.9540    7.4968 C.3       3 GLC5        0.0000 
     66 CA         59.7640   11.6270    7.5540 C.3       9 GLL5        0.0000 
     67 CA         58.6987    9.7645    9.0512 C.3       3 GLC5        0.0000 
     68 CA         57.4750   10.8830    7.6680 C.3       9 GLL5        0.0000 
     69 CA         59.9710    8.4130    9.7800 C.3       6 GLP5        0.0000 
     70 CA         57.3458   12.8485    8.0288 C.3       3 GLC5        0.0000 
     71 CA         57.3780   11.3490    8.9770 C.3       9 GLL5        0.0000 
     72 CA         59.5245   10.2150    9.5050 C.3       3 GLC5        0.0000 
     73 CA         58.4850   11.9480    9.5890 C.3       9 GLL5        0.0000 
     74 CA         58.1715   13.2990    8.4825 C.3       3 GLC5        0.0000 
     75 CA         59.6710   12.0860    8.8710 C.3       9 GLL5        0.0000 
@<TRIPOS>BOND
@<TRIPOS>SUBSTRUCTURE
     1 ALC1       21 GROUP        1 X    ALC  0     ROOT ALC X 1
     2 SEC2       33 GROUP        1 X    SEC  0     **** SEC X 2
     3 GLC5        1 GROUP        1 X    GLC  0     **** GLC X 6
     4 ALP1       23 GROUP        1 Y    ALP  0     ROOT ALP Y 8
     5 SEP2       35 GROUP        1 Y    SEP  0     **** SEP Y 9
     6 GLP5        3 GROUP        1 Y    GLP  0     **** GLP Y 13
     7 ALL1       22 GROUP        1 Z    ALL  0     ROOT ALL Z 15
     8 SEL2       34 GROUP        1 Z    SEL  0     **** SEL Z 16
     9 GLL5        2 GROUP        1 Z    GLL  0     **** GLL Z 20
@<TRIPOS>SET

