#    Name: 4ji9_1M3_1_ligand
#    Modification time : Tue Mar 25 05:52:10 2014

@<TRIPOS>MOLECULE
4ji9_1M3_1_ligand
   72    75     1     0     0
SMALL
NO_CHARGES


@<TRIPOS>ATOM
      1 O2         55.8460    8.8090   -0.0260 O.2       1 1M31201     0.0000 
      2 S1         55.6570    7.7490    0.9120 S.o2      1 1M31201     0.0000 
      3 O1         54.3220    7.5730    1.4090 O.2       1 1M31201     0.0000 
      4 N7         56.4150    6.3340    0.1970 N.pl3     1 1M31201     0.0000 
      5 C23        56.1550    4.9520    0.5420 C.3       1 1M31201     0.0000 
      6 C26        54.8510    4.5300   -0.1210 C.3       1 1M31201     0.0000 
      7 C25        56.0730    4.7700    2.0510 C.3       1 1M31201     0.0000 
      8 C24        57.2960    4.1130   -0.0210 C.3       1 1M31201     0.0000 
      9 C21        56.6830    8.1270    2.3130 C.ar      1 1M31201     0.0000 
     10 C20        56.2920    7.8340    3.6220 C.ar      1 1M31201     0.0000 
     11 C19        57.1340    8.1920    4.6770 C.ar      1 1M31201     0.0000 
     12 C18        58.3410    8.8460    4.4050 C.ar      1 1M31201     0.0000 
     13 C22        57.8800    8.7710    2.0470 C.ar      1 1M31201     0.0000 
     14 C17        58.7200    9.1300    3.0900 C.ar      1 1M31201     0.0000 
     15 N1         59.8730    9.7840    2.7810 N.pl3     1 1M31201     0.0000 
     16 C1         60.8000   10.4070    3.5450 C.ar      1 1M31201     0.0000 
     17 N3         60.4330   10.7670    4.7860 N.ar      1 1M31201     0.0000 
     18 C4         61.3020   11.3860    5.5880 C.ar      1 1M31201     0.0000 
     19 N2         62.5500   11.6660    5.1900 N.ar      1 1M31201     0.0000 
     20 C3         62.9370   11.3230    3.9580 C.ar      1 1M31201     0.0000 
     21 C2         62.0820   10.6730    3.0830 C.ar      1 1M31201     0.0000 
     22 C5         62.5540   10.3060    1.6970 C.3       1 1M31201     0.0000 
     23 N4         60.9240   11.7500    6.8480 N.pl3     1 1M31201     0.0000 
     24 C6         59.7640   11.6270    7.5540 C.ar      1 1M31201     0.0000 
     25 C11        58.6560   11.0270    6.9630 C.ar      1 1M31201     0.0000 
     26 C10        57.4750   10.8830    7.6680 C.ar      1 1M31201     0.0000 
     27 C9         57.3780   11.3490    8.9770 C.ar      1 1M31201     0.0000 
     28 C8         58.4850   11.9480    9.5890 C.ar      1 1M31201     0.0000 
     29 C7         59.6710   12.0860    8.8710 C.ar      1 1M31201     0.0000 
     30 N5         56.1590   11.1520    9.6490 N.3       1 1M31201     0.0000 
     31 C15        55.2760   10.0250    9.2650 C.3       1 1M31201     0.0000 
     32 C14        54.8780    9.1000   10.4020 C.3       1 1M31201     0.0000 
     33 N6         54.2630    9.9070   11.4600 N.4       1 1M31201     0.0000 
     34 C16        53.8050    9.0070   12.5310 C.3       1 1M31201     0.0000 
     35 C13        55.2690   10.8490   11.9850 C.3       1 1M31201     0.0000 
     36 C12        55.7330   11.8260   10.9010 C.3       1 1M31201     0.0000 
     37 H          57.0810    6.6323   -0.5137 H         1 1M31201     0.0000 
     38 H          55.4050    7.3657    3.8039 H         1 1M31201     0.0000 
     39 H          56.8717    7.9784    5.6420 H         1 1M31201     0.0000 
     40 H          58.9574    9.1213    5.1844 H         1 1M31201     0.0000 
     41 H          58.1465    8.9834    1.0754 H         1 1M31201     0.0000 
     42 H          60.0960    9.8103    1.6775 H         1 1M31201     0.0000 
     43 H          63.9079   11.5419    3.6249 H         1 1M31201     0.0000 
     44 H          61.7497   12.2633    7.4306 H         1 1M31201     0.0000 
     45 H          58.7202   10.6876    5.9892 H         1 1M31201     0.0000 
     46 H          56.6609   10.4297    7.2270 H         1 1M31201     0.0000 
     47 H          58.4211   12.2800   10.5533 H         1 1M31201     0.0000 
     48 H          60.4892   12.5308    9.3137 H         1 1M31201     0.0000 
     49 H          55.7697    9.4142    8.4754 H         1 1M31201     0.0000 
     50 H          54.3465   10.4201    8.7956 H         1 1M31201     0.0000 
     51 H          55.7675    8.5948   10.7683 H         1 1M31201     0.0000 
     52 H          54.1774    8.3615   10.0219 H         1 1M31201     0.0000 
     53 H          53.4288   10.4515   11.0604 H         1 1M31201     0.0000 
     54 H          56.1460   10.3070   12.3576 H         1 1M31201     0.0000 
     55 H          54.8546   11.4301   12.8170 H         1 1M31201     0.0000 
     56 H          54.9066   12.5269   10.6917 H         1 1M31201     0.0000 
     57 H          56.5642   12.4259   11.3101 H         1 1M31201     0.0000 
     58 H          54.8961    4.6145   -1.1164 H         1 1M31201     0.0000 
     59 H          54.6221    3.5780    0.0823 H         1 1M31201     0.0000 
     60 H          54.0805    5.0887    0.1860 H         1 1M31201     0.0000 
     61 H          56.9242    5.0354    2.5039 H         1 1M31201     0.0000 
     62 H          55.3427    5.3226    2.4526 H         1 1M31201     0.0000 
     63 H          55.8921    3.8188    2.3011 H         1 1M31201     0.0000 
     64 H          58.1797    4.3843    0.3603 H         1 1M31201     0.0000 
     65 H          57.1762    3.1407    0.1797 H         1 1M31201     0.0000 
     66 H          57.3662    4.2006   -1.0147 H         1 1M31201     0.0000 
     67 H          63.5042   10.5775    1.5442 H         1 1M31201     0.0000 
     68 H          62.5011    9.3205    1.5355 H         1 1M31201     0.0000 
     69 H          62.0050   10.7491    0.9883 H         1 1M31201     0.0000 
     70 H          54.5605    8.4827   12.9239 H         1 1M31201     0.0000 
     71 H          53.3763    9.5104   13.2812 H         1 1M31201     0.0000 
     72 H          53.1316    8.3467   12.1986 H         1 1M31201     0.0000 
@<TRIPOS>BOND
     1    2    1 2    
     2    3    2 2    
     3    4    2 1    
     4    9    2 1    
     5    5    4 1    
     6   37    4 1    
     7    6    5 1    
     8    7    5 1    
     9    8    5 1    
    10   58    6 1    
    11   59    6 1    
    12   60    6 1    
    13   61    7 1    
    14   62    7 1    
    15   63    7 1    
    16   64    8 1    
    17   65    8 1    
    18   66    8 1    
    19   10    9 ar   
    20   13    9 ar   
    21   11   10 ar   
    22   38   10 1    
    23   12   11 ar   
    24   39   11 1    
    25   14   12 ar   
    26   40   12 1    
    27   14   13 ar   
    28   41   13 1    
    29   15   14 1    
    30   16   15 1    
    31   42   15 1    
    32   17   16 ar   
    33   21   16 ar   
    34   18   17 ar   
    35   19   18 ar   
    36   23   18 1    
    37   20   19 ar   
    38   21   20 ar   
    39   43   20 1    
    40   22   21 1    
    41   67   22 1    
    42   68   22 1    
    43   69   22 1    
    44   24   23 1    
    45   44   23 1    
    46   25   24 ar   
    47   29   24 ar   
    48   26   25 ar   
    49   45   25 1    
    50   27   26 ar   
    51   46   26 1    
    52   28   27 ar   
    53   30   27 1    
    54   29   28 ar   
    55   47   28 1    
    56   48   29 1    
    57   31   30 1    
    58   36   30 1    
    59   32   31 1    
    60   49   31 1    
    61   50   31 1    
    62   33   32 1    
    63   51   32 1    
    64   52   32 1    
    65   34   33 1    
    66   35   33 1    
    67   53   33 1    
    68   70   34 1    
    69   71   34 1    
    70   72   34 1    
    71   36   35 1    
    72   54   35 1    
    73   55   35 1    
    74   56   36 1    
    75   57   36 1    
@<TRIPOS>SUBSTRUCTURE
     1 1M31201     1 GROUP   
@<TRIPOS>SET

