#    Name: 3pd3_A3T_1_INTS_M
#    Modification time : Tue Mar 25 06:17:22 2014

@<TRIPOS>MOLECULE
3pd3_A3T_1_INTS_M
   86     0    12     0     0
SMALL
NO_CHARGES


@<TRIPOS>ATOM
      1 OD1         8.1205    2.3445  -11.5465 O.co2     3 ASC3        0.0000 
      2 OD1         7.9690    2.1420  -13.0520 O.co2    11 ASL3        0.0000 
      3 OD1         8.2720    2.5470  -10.0410 O.co2     7 ASP3        0.0000 
      4 OD1         7.7325    1.3615  -11.2415 O.co2     3 ASC3        0.0000 
      5 OD1         7.4960    0.5810   -9.4310 O.co2     7 ASP3        0.0000 
      6 O           9.3090    1.8905  -14.0445 O.2       1 ALC1        0.0000 
      7 O           7.9690    2.1420  -13.0520 O.2       9 ALL1        0.0000 
      8 O          10.6490    1.6390  -15.0370 O.2       5 ALP1        0.0000 
      9 O           8.1205    2.3445  -11.5465 O.2       1 ALC1        0.0000 
     10 O           8.2720    2.5470  -10.0410 O.2       5 ALP1        0.0000 
     11 O           7.4175    1.0120  -12.4630 O.2       1 ALC1        0.0000 
     12 O           6.8660   -0.1180  -11.8740 O.2       5 ALP1        0.0000 
     13 N          10.5525    4.9945  -13.5765 N.am      2 SEC2        0.0000 
     14 N           9.1750    4.5880  -13.6710 N.am     10 SEL2        0.0000 
     15 N          11.9300    5.4010  -13.4820 N.am      6 SEP2        0.0000 
     16 N          15.5170    7.1810  -16.5190 N.am      2 SEC2        0.0000 
     17 N          14.0130    7.1450  -16.8330 N.am     10 SEL2        0.0000 
     18 N          17.0210    7.2170  -16.2050 N.am      6 SEP2        0.0000 
     19 CA         14.9255    5.9490  -15.5645 C.3       4 GLC5        0.0000 
     20 CA         13.3490    6.0040  -16.8930 C.3      12 GLL5        0.0000 
     21 CA         16.5020    5.8940  -14.2360 C.3       8 GLP5        0.0000 
     22 CA         15.2635    6.2985  -17.9450 C.3       4 GLC5        0.0000 
     23 CA         17.1780    6.5930  -18.9970 C.3       8 GLP5        0.0000 
     24 CA         12.3325    4.1135  -17.3990 C.3       4 GLC5        0.0000 
     25 CA         11.3160    2.2230  -17.9050 C.3       8 GLP5        0.0000 
     26 CA         12.8180    6.4060  -15.1295 C.3       4 GLC5        0.0000 
     27 CA         12.2870    6.8080  -13.3660 C.3       8 GLP5        0.0000 
     28 CA         13.7005    4.8275  -18.6250 C.3       4 GLC5        0.0000 
     29 CA         14.0520    3.6510  -20.3570 C.3       8 GLP5        0.0000 
     30 CA         15.3830    8.1650  -17.8160 C.3       4 GLC5        0.0000 
     31 CA         13.4110    8.3070  -17.1240 C.3      12 GLL5        0.0000 
     32 CA         17.3550    8.0230  -18.5080 C.3       8 GLP5        0.0000 
     33 CA         13.7680    9.4020  -15.2355 C.3       4 GLC5        0.0000 
     34 CA         14.1250   10.4970  -13.3470 C.3       8 GLP5        0.0000 
     35 O          15.4315    9.7405  -16.7240 O.2       1 ALC1        0.0000 
     36 O          14.0880    9.4520  -17.0860 O.2       9 ALL1        0.0000 
     37 O          16.7750   10.0290  -16.3620 O.2       5 ALP1        0.0000 
     38 O          13.9935   11.0260  -17.8360 O.2       1 ALC1        0.0000 
     39 O          13.8990   12.6000  -18.5860 O.2       5 ALP1        0.0000 
     40 O           6.1450    4.1440  -15.6065 O.2       1 ALC1        0.0000 
     41 O           7.4910    4.8310  -15.3360 O.2       9 ALL1        0.0000 
     42 O           4.7990    3.4570  -15.8770 O.2       5 ALP1        0.0000 
     43 CA          7.0100    1.5735  -14.8535 C.3       4 GLC5        0.0000 
     44 CA          7.1040    3.2320  -13.5260 C.3      12 GLL5        0.0000 
     45 CA          6.9160   -0.0850  -16.1810 C.3       8 GLP5        0.0000 
     46 CA          4.4495    3.5455  -13.2770 C.3       4 GLC5        0.0000 
     47 CA          6.3590    3.8440  -12.3380 C.3      12 GLL5        0.0000 
     48 CA          2.5400    3.2470  -14.2160 C.3       8 GLP5        0.0000 
     49 N           4.3840    1.9795  -12.7170 N.am      2 SEC2        0.0000 
     50 N           5.3880    2.9000  -11.8760 N.am     10 SEL2        0.0000 
     51 N           3.3800    1.0590  -13.5580 N.am      6 SEP2        0.0000 
     52 O           6.1270    1.3910  -11.8750 O.2       1 ALC1        0.0000 
     53 O           5.3880    2.9000  -11.8760 O.2       9 ALL1        0.0000 
     54 CA         10.2095    6.1790  -19.5005 C.3       4 GLC5        0.0000 
     55 CA          9.1040    6.3420  -18.2440 C.3      12 GLL5        0.0000 
     56 CA         11.3150    6.0160  -20.7570 C.3       8 GLP5        0.0000 
     57 CA         10.1690    3.7045  -17.5750 C.3       4 GLC5        0.0000 
     58 CA          9.0220    5.1860  -17.2450 C.3      12 GLL5        0.0000 
     59 CA          9.9095    4.9725  -19.1605 C.3       4 GLC5        0.0000 
     60 CA         10.7970    4.7590  -21.0760 C.3       8 GLP5        0.0000 
     61 N           7.5495    4.3290  -19.0370 N.am      2 SEC2        0.0000 
     62 N           8.2680    4.1160  -17.8220 N.am     10 SEL2        0.0000 
     63 N           6.8310    4.5420  -20.2520 N.am      6 SEP2        0.0000 
     64 N           7.5250    2.7360  -17.1735 N.am      2 SEC2        0.0000 
     65 N           6.7820    1.3560  -16.5250 N.am      6 SEP2        0.0000 
     66 CA          9.7050    6.7530  -15.0675 C.3       4 GLC5        0.0000 
     67 CA          8.2120    5.8380  -16.1280 C.3      12 GLL5        0.0000 
     68 CA         11.1980    7.6680  -14.0070 C.3       8 GLP5        0.0000 
     69 CA          6.3930    8.0700  -18.4265 C.3       4 GLC5        0.0000 
     70 CA          7.2070    6.6810  -16.9140 C.3      12 GLL5        0.0000 
     71 CA          5.5790    9.4590  -19.9390 C.3       8 GLP5        0.0000 
     72 CA          6.5145    6.1325  -18.5260 C.3       4 GLC5        0.0000 
     73 CA          5.8220    5.5840  -20.1380 C.3       8 GLP5        0.0000 
     74 CA          6.4455    9.2770  -17.5810 C.3       4 GLC5        0.0000 
     75 CA          6.8910    7.9530  -16.1240 C.3      12 GLL5        0.0000 
     76 CA          6.0000   10.6010  -19.0380 C.3       8 GLP5        0.0000 
     77 CA          4.0120    5.4290  -12.4650 C.3       4 GLC5        0.0000 
     78 CA          5.7070    5.1790  -12.7060 C.3      12 GLL5        0.0000 
     79 CA          2.3170    5.6790  -12.2240 C.3       8 GLP5        0.0000 
     80 CA         11.8866    7.8324  -15.6642 C.3       4 GLC5        0.0000 
     81 CA         13.3701    8.2354  -18.9612 C.3       4 GLC5        0.0000 
     82 CA         11.4080    7.0770  -17.5480 C.3      12 GLL5        0.0000 
     83 CA         14.1650    8.4740  -20.6010 C.3       8 GLP5        0.0000 
     84 CA          7.4425    5.6740  -18.9413 C.3       4 GLC5        0.0000 
     85 CA          5.2365    7.2930  -16.3680 C.3       4 GLC5        0.0000 
     86 CA          3.4240    7.2690  -16.2170 C.3       8 GLP5        0.0000 
@<TRIPOS>BOND
@<TRIPOS>SUBSTRUCTURE
     1 ALC1        6 GROUP        1 X    ALC  0     ROOT ALC X 1
     2 SEC2       13 GROUP        1 X    SEC  0     **** SEC X 2
     3 ASC3        1 GROUP        1 X    ASC  0     **** ASC X 3
     4 GLC5       19 GROUP        1 X    GLC  0     **** GLC X 6
     5 ALP1        8 GROUP        1 Y    ALP  0     ROOT ALP Y 8
     6 SEP2       15 GROUP        1 Y    SEP  0     **** SEP Y 9
     7 ASP3        3 GROUP        1 Y    ASP  0     **** ASP Y 10
     8 GLP5       21 GROUP        1 Y    GLP  0     **** GLP Y 13
     9 ALL1        7 GROUP        1 Z    ALL  0     ROOT ALL Z 15
    10 SEL2       14 GROUP        1 Z    SEL  0     **** SEL Z 16
    11 ASL3        2 GROUP        1 Z    ASL  0     **** ASL Z 17
    12 GLL5       20 GROUP        1 Z    GLL  0     **** GLL Z 20
@<TRIPOS>SET

