#    Name: 3pd3_A3T_1_ligand
#    Modification time : Tue Mar 25 06:17:22 2014

@<TRIPOS>MOLECULE
3pd3_A3T_1_ligand
   48    50     1     0     0
SMALL
NO_CHARGES


@<TRIPOS>ATOM
      1 C           7.9710    4.2830  -14.2220 C.2       1 A3T148      0.0000 
      2 N           7.9690    2.1420  -13.0520 N.4       1 A3T148      0.0000 
      3 O           9.1750    4.5880  -13.6710 O.2       1 A3T148      0.0000 
      4 N1         14.0130    7.1450  -16.8330 N.ar      1 A3T148      0.0000 
      5 C2         13.3490    6.0040  -16.8930 C.ar      1 A3T148      0.0000 
      6 N3         12.0760    5.9550  -17.2430 N.ar      1 A3T148      0.0000 
      7 C4         11.4080    7.0770  -17.5480 C.ar      1 A3T148      0.0000 
      8 C5         12.0710    8.2960  -17.4900 C.ar      1 A3T148      0.0000 
      9 C6         13.4110    8.3070  -17.1240 C.ar      1 A3T148      0.0000 
     10 N6         14.0880    9.4520  -17.0860 N.pl3     1 A3T148      0.0000 
     11 N7         11.1990    9.2420  -17.8240 N.2       1 A3T148      0.0000 
     12 C8         10.0370    8.6480  -18.0850 C.2       1 A3T148      0.0000 
     13 N8          7.4910    4.8310  -15.3360 N.am      1 A3T148      0.0000 
     14 N9         10.1590    7.3320  -17.9270 N.pl3     1 A3T148      0.0000 
     15 CA          7.1040    3.2320  -13.5260 C.3       1 A3T148      0.0000 
     16 CB          6.3590    3.8440  -12.3380 C.3       1 A3T148      0.0000 
     17 OG          5.3880    2.9000  -11.8760 O.3       1 A3T148      0.0000 
     18 C1'         9.1040    6.3420  -18.2440 C.3       1 A3T148      0.0000 
     19 C2'         9.0220    5.1860  -17.2450 C.3       1 A3T148      0.0000 
     20 O2'         8.2680    4.1160  -17.8220 O.3       1 A3T148      0.0000 
     21 C3'         8.2120    5.8380  -16.1280 C.3       1 A3T148      0.0000 
     22 C4'         7.2070    6.6810  -16.9140 C.3       1 A3T148      0.0000 
     23 O4'         7.8270    6.9990  -18.1730 O.3       1 A3T148      0.0000 
     24 C5'         6.8910    7.9530  -16.1240 C.3       1 A3T148      0.0000 
     25 O5'         8.1040    8.6350  -15.7950 O.3       1 A3T148      0.0000 
     26 CG2         5.7070    5.1790  -12.7060 C.3       1 A3T148      0.0000 
     27 H          13.8542    5.0990  -16.6525 H         1 A3T148      0.0000 
     28 H          15.0455    9.3879  -16.8048 H         1 A3T148      0.0000 
     29 H          13.5782   10.2733  -17.3421 H         1 A3T148      0.0000 
     30 H           9.2142    9.1104  -18.3535 H         1 A3T148      0.0000 
     31 H           6.5458    4.5657  -15.7186 H         1 A3T148      0.0000 
     32 H           6.3863    2.8572  -14.2298 H         1 A3T148      0.0000 
     33 H           7.0986    4.0355  -11.5573 H         1 A3T148      0.0000 
     34 H           9.2485    5.9319  -19.2237 H         1 A3T148      0.0000 
     35 H           9.9598    4.9512  -16.9076 H         1 A3T148      0.0000 
     36 H           8.8212    6.4634  -15.5681 H         1 A3T148      0.0000 
     37 H           6.3184    6.1123  -17.0420 H         1 A3T148      0.0000 
     38 H           6.3341    7.6587  -15.2268 H         1 A3T148      0.0000 
     39 H           6.2306    8.5734  -16.7410 H         1 A3T148      0.0000 
     40 H           7.4876    1.2656  -13.0370 H         1 A3T148      0.0000 
     41 H           8.7726    2.0251  -13.6355 H         1 A3T148      0.0000 
     42 H           8.3023    2.3092  -12.1242 H         1 A3T148      0.0000 
     43 H           6.3829    5.8522  -13.0061 H         1 A3T148      0.0000 
     44 H           5.0453    5.0769  -13.4487 H         1 A3T148      0.0000 
     45 H           5.2183    5.5797  -11.9310 H         1 A3T148      0.0000 
     46 H           5.8751    2.0278  -11.8331 H         1 A3T148      0.0000 
     47 H           8.9226    3.6133  -18.3866 H         1 A3T148      0.0000 
     48 H           7.8234    9.5683  -15.5709 H         1 A3T148      0.0000 
@<TRIPOS>BOND
     1    3    1 2    
     2   13    1 am   
     3   15    1 1    
     4   15    2 1    
     5   40    2 1    
     6   41    2 1    
     7   42    2 1    
     8    5    4 ar   
     9    9    4 ar   
    10    6    5 ar   
    11   27    5 1    
    12    7    6 ar   
    13    8    7 ar   
    14   14    7 1    
    15    9    8 ar   
    16   11    8 1    
    17   10    9 1    
    18   28   10 1    
    19   29   10 1    
    20   12   11 2    
    21   14   12 1    
    22   30   12 1    
    23   21   13 1    
    24   31   13 1    
    25   18   14 1    
    26   16   15 1    
    27   32   15 1    
    28   17   16 1    
    29   26   16 1    
    30   33   16 1    
    31   46   17 1    
    32   19   18 1    
    33   23   18 1    
    34   34   18 1    
    35   20   19 1    
    36   21   19 1    
    37   35   19 1    
    38   47   20 1    
    39   22   21 1    
    40   36   21 1    
    41   23   22 1    
    42   24   22 1    
    43   37   22 1    
    44   25   24 1    
    45   38   24 1    
    46   39   24 1    
    47   48   25 1    
    48   43   26 1    
    49   44   26 1    
    50   45   26 1    
@<TRIPOS>SUBSTRUCTURE
     1 A3T148      1 GROUP   
@<TRIPOS>SET

