#    Name: 3CAV_1_CAVITY_N1_6.mol2
#    Modification time : Tue Mar 11 13:08:26 2014

@<TRIPOS>MOLECULE
3CAV_1_CAVITY_N1_6.mol2
   88     0     6     0     0
SMALL
NO_CHARGES


@<TRIPOS>ATOM
      1 CZ          5.8407   35.2098  -27.7159 C.ar      4 PHE5        0.0000 
      2 CA          7.0297   35.7721  -29.3802 C.3       5 GLY6        0.0000 
      3 DU          5.7630   36.2834  -28.7606 H         6 CUB7        0.0000 
      4 CA          4.4963   36.7947  -28.1409 C.3       5 GLY6        0.0000 
      5 OG          8.2187   36.3344  -31.0446 O.2       1 SER1        0.0000 
      6 DU          6.9520   36.8457  -30.4249 H         6 CUB7        0.0000 
      7 DU          5.6853   37.3570  -29.8053 H         6 CUB7        0.0000 
      8 CA          4.4186   37.8683  -29.1856 C.3       5 GLY6        0.0000 
      9 OG          8.1410   37.4079  -32.0893 O.2       1 SER1        0.0000 
     10 OG          6.8743   37.9193  -31.4696 O.2       1 SER1        0.0000 
     11 OG          5.6076   38.4306  -30.8500 O.2       1 SER1        0.0000 
     12 CZ          4.3409   38.9419  -30.2303 C.ar      4 PHE5        0.0000 
     13 CZ          5.0411   34.2955  -28.5960 C.ar      4 PHE5        0.0000 
     14 CA          3.7744   34.8068  -27.9763 C.3       5 GLY6        0.0000 
     15 CZ          7.4968   34.3465  -30.8801 C.ar      4 PHE5        0.0000 
     16 CZ          6.2301   34.8578  -30.2604 C.ar      4 PHE5        0.0000 
     17 CZ          4.9634   35.3691  -29.6407 C.ar      4 PHE5        0.0000 
     18 CA          3.6967   35.8804  -29.0210 C.3       5 GLY6        0.0000 
     19 OG          7.4191   35.4201  -31.9247 O.2       1 SER1        0.0000 
     20 DU          6.1524   35.9314  -31.3051 H         6 CUB7        0.0000 
     21 DU          4.8857   36.4427  -30.6854 H         6 CUB7        0.0000 
     22 CZ          3.6190   36.9540  -30.0657 C.ar      4 PHE5        0.0000 
     23 CZ          2.3523   37.4653  -29.4460 C.ar      4 PHE5        0.0000 
     24 OG          6.0747   37.0050  -32.3498 O.2       1 SER1        0.0000 
     25 OG          4.8080   37.5163  -31.7301 O.2       1 SER1        0.0000 
     26 CZ          3.5413   38.0276  -31.1104 C.ar      4 PHE5        0.0000 
     27 CZ          5.0979   31.6035  -33.5204 C.ar      4 PHE5        0.0000 
     28 CZ          1.2978   33.1375  -31.6614 C.ar      4 PHE5        0.0000 
     29 N           0.0311   33.6488  -31.0417 N.2       2 ALA2        0.0000 
     30 CZ          3.7535   33.1884  -33.9455 C.ar      4 PHE5        0.0000 
     31 CZ          2.4868   33.6998  -33.3258 C.ar      4 PHE5        0.0000 
     32 N           1.2201   34.2111  -32.7061 N.2       2 ALA2        0.0000 
     33 N          -0.0466   34.7224  -32.0864 N.2       2 ALA2        0.0000 
     34 CA         -1.3133   35.2337  -31.4668 C.3       5 GLY6        0.0000 
     35 CZ          3.6758   34.2620  -34.9901 C.ar      4 PHE5        0.0000 
     36 CZ          2.4091   34.7734  -34.3705 C.ar      4 PHE5        0.0000 
     37 N           1.1424   35.2847  -33.7508 N.2       2 ALA2        0.0000 
     38 N          -0.1243   35.7960  -33.1311 N.2       2 ALA2        0.0000 
     39 CA         -1.3910   36.3073  -32.5114 C.3       5 GLY6        0.0000 
     40 CZ          2.3314   35.8469  -35.4152 C.ar      4 PHE5        0.0000 
     41 NZ          1.0647   36.3583  -34.7955 N.2       3 LYS4        0.0000 
     42 CZ         -0.2020   36.8696  -34.1758 C.ar      4 PHE5        0.0000 
     43 DU          7.2069   40.2592  -29.0897 H         6 CUB7        0.0000 
     44 CZ          4.2415   33.3812  -29.4761 C.ar      4 PHE5        0.0000 
     45 CZ          6.6972   33.4322  -31.7602 C.ar      4 PHE5        0.0000 
     46 CZ          5.4305   33.9435  -31.1405 C.ar      4 PHE5        0.0000 
     47 CZ          4.1638   34.4548  -30.5208 C.ar      4 PHE5        0.0000 
     48 CA          2.8971   34.9661  -29.9012 C.3       5 GLY6        0.0000 
     49 CZ          6.6195   34.5057  -32.8049 C.ar      4 PHE5        0.0000 
     50 DU          5.3528   35.0171  -32.1852 H         6 CUB7        0.0000 
     51 DU          4.0861   35.5284  -31.5655 H         6 CUB7        0.0000 
     52 CA          2.8194   36.0397  -30.9458 C.3       5 GLY6        0.0000 
     53 CA          1.5526   36.5510  -30.3262 C.3       5 GLY6        0.0000 
     54 CZ          5.2751   36.0906  -33.2299 C.ar      4 PHE5        0.0000 
     55 OG          4.0084   36.6020  -32.6102 O.2       1 SER1        0.0000 
     56 DU          2.7417   37.1133  -31.9905 H         6 CUB7        0.0000 
     57 CZ          1.4749   37.6246  -31.3709 C.ar      4 PHE5        0.0000 
     58 OG          5.1974   37.1642  -34.2746 O.2       1 SER1        0.0000 
     59 OG          3.9307   37.6756  -33.6549 O.2       1 SER1        0.0000 
     60 OG          2.6640   38.1869  -33.0352 O.2       1 SER1        0.0000 
     61 CA          3.4418   32.4669  -30.3563 C.3       5 GLY6        0.0000 
     62 CZ          5.8976   32.5178  -32.6403 C.ar      4 PHE5        0.0000 
     63 CZ          4.6308   33.0292  -32.0206 C.ar      4 PHE5        0.0000 
     64 CZ          3.3641   33.5405  -31.4010 C.ar      4 PHE5        0.0000 
     65 CA          2.0974   34.0518  -30.7813 C.3       5 GLY6        0.0000 
     66 CA          0.8307   34.5631  -30.1616 C.3       5 GLY6        0.0000 
     67 CZ          5.8199   33.5914  -33.6850 C.ar      4 PHE5        0.0000 
     68 DU          4.5531   34.1028  -33.0653 H         6 CUB7        0.0000 
     69 DU          3.2864   34.6141  -32.4456 H         6 CUB7        0.0000 
     70 DU          2.0197   35.1254  -31.8260 H         6 CUB7        0.0000 
     71 CA          0.7530   35.6367  -31.2063 C.3       5 GLY6        0.0000 
     72 CZ         -0.5137   36.1480  -30.5866 C.ar      4 PHE5        0.0000 
     73 CZ          4.4754   35.1763  -34.1100 C.ar      4 PHE5        0.0000 
     74 DU          3.2087   35.6877  -33.4903 H         6 CUB7        0.0000 
     75 DU          1.9420   36.1990  -32.8707 H         6 CUB7        0.0000 
     76 CZ          0.6753   36.7103  -32.2510 C.ar      4 PHE5        0.0000 
     77 CZ         -0.5914   37.2216  -31.6313 C.ar      4 PHE5        0.0000 
     78 CZ          4.3978   36.2499  -35.1547 C.ar      4 PHE5        0.0000 
     79 CA          3.1310   36.7612  -34.5350 C.3       5 GLY6        0.0000 
     80 CA          1.8643   37.2726  -33.9154 C.3       5 GLY6        0.0000 
     81 CA          6.6404   36.1241  -26.8358 C.3       5 GLY6        0.0000 
     82 CA          7.8294   36.6864  -28.5001 C.3       5 GLY6        0.0000 
     83 CA          6.5627   37.1977  -27.8804 C.3       5 GLY6        0.0000 
     84 DU          7.7517   37.7600  -29.5448 H         6 CUB7        0.0000 
     85 DU          6.4850   38.2713  -28.9251 H         6 CUB7        0.0000 
     86 CA          5.2182   38.7826  -28.3055 C.3       5 GLY6        0.0000 
     87 CZ          6.4073   39.3449  -29.9698 C.ar      4 PHE5        0.0000 
     88 CZ          7.5963   39.9072  -31.6342 C.ar      4 PHE5        0.0000 
@<TRIPOS>BOND
@<TRIPOS>SUBSTRUCTURE
     1 SER1        5 GROUP   
     2 ALA2       29 GROUP   
     3 LYS4       41 GROUP   
     4 PHE5        1 GROUP   
     5 GLY6        2 GROUP   
     6 CUB7        3 GROUP   
@<TRIPOS>SET

