#    Name: 3cav_CI2_1_INTS_M
#    Modification time : Mon Mar 24 20:36:08 2014

@<TRIPOS>MOLECULE
3cav_CI2_1_INTS_M
   58     0     6     0     0
SMALL
NO_CHARGES


@<TRIPOS>ATOM
      1 CA          4.8340   41.9975  -26.7580 C.3       2 GLC5        0.0000 
      2 CA          5.6810   40.3220  -26.8330 C.3       6 GLL5        0.0000 
      3 CA          3.9870   43.6730  -26.6830 C.3       4 GLP5        0.0000 
      4 CA          4.3025   39.0775  -26.4305 C.3       2 GLC5        0.0000 
      5 CA          2.9240   37.8330  -26.0280 C.3       4 GLP5        0.0000 
      6 CA          8.3435   35.4120  -29.0390 C.3       2 GLC5        0.0000 
      7 CA          7.7520   37.1850  -30.0770 C.3       6 GLL5        0.0000 
      8 CA          8.9350   33.6390  -28.0010 C.3       4 GLP5        0.0000 
      9 CA          6.7985   34.2585  -29.6905 C.3       2 GLC5        0.0000 
     10 CA          5.6440   35.7620  -30.8180 C.3       6 GLL5        0.0000 
     11 CA          7.9530   32.7550  -28.5630 C.3       4 GLP5        0.0000 
     12 CA          7.2820   35.0955  -33.5785 C.3       2 GLC5        0.0000 
     13 CA          6.3220   35.1060  -32.0450 C.3       6 GLL5        0.0000 
     14 CA          8.2420   35.0850  -35.1120 C.3       4 GLP5        0.0000 
     15 CA          7.3955   33.6935  -30.9180 C.3       2 GLC5        0.0000 
     16 CA          8.4690   32.2810  -29.7910 C.3       4 GLP5        0.0000 
     17 CA          7.0630   33.7435  -33.6565 C.3       2 GLC5        0.0000 
     18 CA          5.6310   33.7480  -32.3970 C.3       6 GLL5        0.0000 
     19 CA          8.4950   33.7390  -34.9160 C.3       4 GLP5        0.0000 
     20 CA          6.6970   32.5675  -31.5025 C.3       2 GLC5        0.0000 
     21 CA          7.7630   31.3870  -30.6080 C.3       4 GLP5        0.0000 
     22 CA          3.2590   32.1815  -33.3040 C.3       2 GLC5        0.0000 
     23 CA          4.1190   33.9860  -32.7130 C.3       6 GLL5        0.0000 
     24 CA          2.3990   30.3770  -33.8950 C.3       4 GLP5        0.0000 
     25 CA          5.6930   35.2010  -35.0485 C.3       2 GLC5        0.0000 
     26 CA          4.0000   34.9030  -33.9710 C.3       6 GLL5        0.0000 
     27 CA          7.3860   35.4990  -36.1260 C.3       4 GLP5        0.0000 
     28 CA          3.6040   35.0075  -36.1200 C.3       2 GLC5        0.0000 
     29 CA          3.2080   35.1120  -38.2690 C.3       4 GLP5        0.0000 
     30 N           1.9110   34.0010  -36.7820 N.am      1 SEC2        0.0000 
     31 N           1.9990   34.8510  -35.2860 N.am      5 SEL2        0.0000 
     32 N           1.8230   33.1510  -38.2780 N.am      3 SEP2        0.0000 
     33 CA          0.2925   37.4900  -33.2855 C.3       2 GLC5        0.0000 
     34 CA          1.6620   35.7480  -33.1060 C.3       6 GLL5        0.0000 
     35 CA         -1.0770   39.2320  -33.4650 C.3       4 GLP5        0.0000 
     36 CA          1.5365   33.0185  -32.7950 C.3       2 GLC5        0.0000 
     37 CA          1.8580   34.8790  -31.8330 C.3       6 GLL5        0.0000 
     38 CA          1.2150   31.1580  -33.7570 C.3       4 GLP5        0.0000 
     39 CA          4.7115   32.5790  -29.5860 C.3       2 GLC5        0.0000 
     40 CA          3.4360   33.7330  -30.2110 C.3       6 GLL5        0.0000 
     41 CA          5.9870   31.4250  -28.9610 C.3       4 GLP5        0.0000 
     42 CA          2.5735   32.4085  -29.3020 C.3       2 GLC5        0.0000 
     43 CA          1.7110   31.0840  -28.3930 C.3       4 GLP5        0.0000 
     44 CA          2.2545   35.8305  -28.8010 C.3       2 GLC5        0.0000 
     45 CA          3.4210   36.7530  -29.9150 C.3       6 GLL5        0.0000 
     46 CA          1.0880   34.9080  -27.6870 C.3       4 GLP5        0.0000 
     47 CA          4.1090   39.7505  -30.6440 C.3       2 GLC5        0.0000 
     48 CA          4.1780   38.1030  -29.6190 C.3       6 GLL5        0.0000 
     49 CA          4.0400   41.3980  -31.6690 C.3       4 GLP5        0.0000 
     50 CA          7.2450   35.5530  -27.3440 C.3       2 GLC5        0.0000 
     51 CA          5.6430   36.7350  -28.0070 C.3       6 GLL5        0.0000 
     52 CA          8.8470   34.3710  -26.6810 C.3       4 GLP5        0.0000 
     53 CA          2.0591   34.5791  -29.3117 C.3       2 GLC5        0.0000 
     54 CA          3.3617   37.6305  -27.8975 C.3       2 GLC5        0.0000 
     55 CA          2.4467   38.5405  -29.3695 C.3       2 GLC5        0.0000 
     56 CA          1.0940   39.6530  -28.9720 C.3       4 GLP5        0.0000 
     57 CA          4.2815   37.5417  -27.3180 C.3       2 GLC5        0.0000 
     58 CA          5.6350   37.7660  -29.2090 C.3       6 GLL5        0.0000 
@<TRIPOS>BOND
@<TRIPOS>SUBSTRUCTURE
     1 SEC2       30 GROUP        1 X    SEC  0     ROOT SEC X 2
     2 GLC5        1 GROUP        1 X    GLC  0     **** GLC X 6
     3 SEP2       32 GROUP        1 Y    SEP  0     ROOT SEP Y 9
     4 GLP5        3 GROUP        1 Y    GLP  0     **** GLP Y 13
     5 SEL2       31 GROUP        1 Z    SEL  0     ROOT SEL Z 16
     6 GLL5        2 GROUP        1 Z    GLL  0     **** GLL Z 20
@<TRIPOS>SET

