#    Name: 3cav_CI2_1_ligand
#    Modification time : Mon Mar 24 20:36:08 2014

@<TRIPOS>MOLECULE
3cav_CI2_1_ligand
   55    58     1     0     0
SMALL
NO_CHARGES


@<TRIPOS>ATOM
      1 C1          5.6810   40.3220  -26.8330 C.3       1 CI2328      0.0000 
      2 C2          6.7070   39.3710  -27.4500 C.2       1 CI2328      0.0000 
      3 O3          7.7120   38.9700  -26.5210 O.2       1 CI2328      0.0000 
      4 C4          6.6480   38.9130  -28.9250 C.3       1 CI2328      0.0000 
      5 C5          8.0360   38.3830  -29.5180 C.3       1 CI2328      0.0000 
      6 C6          7.7520   37.1850  -30.0770 C.3       1 CI2328      0.0000 
      7 C7          6.2870   37.1340  -30.4530 C.3       1 CI2328      0.0000 
      8 C8          5.6440   35.7620  -30.8180 C.3       1 CI2328      0.0000 
      9 C9          6.3220   35.1060  -32.0450 C.3       1 CI2328      0.0000 
     10 C10         5.6310   33.7480  -32.3970 C.3       1 CI2328      0.0000 
     11 C11         4.1190   33.9860  -32.7130 C.3       1 CI2328      0.0000 
     12 C12         4.0000   34.9030  -33.9710 C.3       1 CI2328      0.0000 
     13 C13         2.4960   35.1420  -34.2360 C.2       1 CI2328      0.0000 
     14 O14         1.9990   34.8510  -35.2860 O.2       1 CI2328      0.0000 
     15 C15         1.6620   35.7480  -33.1060 C.3       1 CI2328      0.0000 
     16 C16         1.8580   34.8790  -31.8330 C.3       1 CI2328      0.0000 
     17 C17         3.3910   34.6560  -31.4910 C.3       1 CI2328      0.0000 
     18 C18         3.4360   33.7330  -30.2110 C.3       1 CI2328      0.0000 
     19 C19         4.1130   36.0330  -31.1300 C.3       1 CI2328      0.0000 
     20 C20         3.4210   36.7530  -29.9150 C.3       1 CI2328      0.0000 
     21 C21         4.1780   38.1030  -29.6190 C.3       1 CI2328      0.0000 
     22 C22         5.6350   37.7660  -29.2090 C.3       1 CI2328      0.0000 
     23 C23         5.6430   36.7350  -28.0070 C.3       1 CI2328      0.0000 
     24 H           6.3586   39.7527  -29.5655 H         1 CI2328      0.0000 
     25 H           8.7103   38.3486  -28.6707 H         1 CI2328      0.0000 
     26 H           8.3585   39.1508  -30.2111 H         1 CI2328      0.0000 
     27 H           7.9400   36.3287  -29.4007 H         1 CI2328      0.0000 
     28 H           8.3280   36.9834  -31.0010 H         1 CI2328      0.0000 
     29 H           6.1203   37.8476  -31.2633 H         1 CI2328      0.0000 
     30 H           5.6938   35.1169  -29.9774 H         1 CI2328      0.0000 
     31 H           7.3638   34.9181  -31.8216 H         1 CI2328      0.0000 
     32 H           6.2407   35.7682  -32.8967 H         1 CI2328      0.0000 
     33 H           5.7139   33.0827  -31.5540 H         1 CI2328      0.0000 
     34 H           6.1095   33.3247  -33.2642 H         1 CI2328      0.0000 
     35 H           3.6561   33.0514  -32.9233 H         1 CI2328      0.0000 
     36 H           4.4376   34.4029  -34.8094 H         1 CI2328      0.0000 
     37 H           4.4821   35.8364  -33.7686 H         1 CI2328      0.0000 
     38 H           0.6210   35.7403  -33.3757 H         1 CI2328      0.0000 
     39 H           1.9984   36.7483  -32.8997 H         1 CI2328      0.0000 
     40 H           1.4006   33.9066  -31.9853 H         1 CI2328      0.0000 
     41 H           1.3902   35.3693  -30.9852 H         1 CI2328      0.0000 
     42 H           4.0591   36.6708  -31.9911 H         1 CI2328      0.0000 
     43 H           3.4838   36.1221  -29.0519 H         1 CI2328      0.0000 
     44 H           2.4045   36.9727  -30.1706 H         1 CI2328      0.0000 
     45 H           3.6831   38.6038  -28.8125 H         1 CI2328      0.0000 
     46 H           4.1822   38.6962  -30.5102 H         1 CI2328      0.0000 
     47 H           6.1079   41.1614  -26.4966 H         1 CI2328      0.0000 
     48 H           4.9816   40.5935  -27.4942 H         1 CI2328      0.0000 
     49 H           5.2059   39.9041  -26.0587 H         1 CI2328      0.0000 
     50 H           4.3746   33.5383  -29.9263 H         1 CI2328      0.0000 
     51 H           2.9752   34.1567  -29.4312 H         1 CI2328      0.0000 
     52 H           2.9900   32.8526  -30.3721 H         1 CI2328      0.0000 
     53 H           6.5466   36.3281  -27.8727 H         1 CI2328      0.0000 
     54 H           5.3858   37.1691  -27.1436 H         1 CI2328      0.0000 
     55 H           5.0023   35.9824  -28.1590 H         1 CI2328      0.0000 
@<TRIPOS>BOND
     1    2    1 1    
     2   47    1 1    
     3   48    1 1    
     4   49    1 1    
     5    3    2 2    
     6    4    2 1    
     7    5    4 1    
     8   22    4 1    
     9   24    4 1    
    10    6    5 1    
    11   25    5 1    
    12   26    5 1    
    13    7    6 1    
    14   27    6 1    
    15   28    6 1    
    16    8    7 1    
    17   22    7 1    
    18   29    7 1    
    19    9    8 1    
    20   19    8 1    
    21   30    8 1    
    22   10    9 1    
    23   31    9 1    
    24   32    9 1    
    25   11   10 1    
    26   33   10 1    
    27   34   10 1    
    28   12   11 1    
    29   17   11 1    
    30   35   11 1    
    31   13   12 1    
    32   36   12 1    
    33   37   12 1    
    34   14   13 2    
    35   15   13 1    
    36   16   15 1    
    37   38   15 1    
    38   39   15 1    
    39   17   16 1    
    40   40   16 1    
    41   41   16 1    
    42   18   17 1    
    43   19   17 1    
    44   50   18 1    
    45   51   18 1    
    46   52   18 1    
    47   20   19 1    
    48   42   19 1    
    49   21   20 1    
    50   43   20 1    
    51   44   20 1    
    52   22   21 1    
    53   45   21 1    
    54   46   21 1    
    55   23   22 1    
    56   53   23 1    
    57   54   23 1    
    58   55   23 1    
@<TRIPOS>SUBSTRUCTURE
     1 CI2328      1 GROUP   
@<TRIPOS>SET

