#    Name: 1z2a_GDP_1_INTS_M
#    Modification time : Tue Mar 25 11:25:55 2014

@<TRIPOS>MOLECULE
1z2a_GDP_1_INTS_M
   78     0    15     0     0
SMALL
NO_CHARGES


@<TRIPOS>ATOM
      1 NZ         11.7605    2.4235   13.0905 N.4       3 LYC4        0.0000 
      2 NZ         13.0050    3.2140   11.7830 N.4      13 LYL4        0.0000 
      3 NZ         10.5160    1.6330   14.3980 N.4       8 LYP4        0.0000 
      4 N          12.0475    2.8050   10.8555 N.am      2 SEC2        0.0000 
      5 N          13.0050    3.2140   11.7830 N.am     12 SEL2        0.0000 
      6 N          11.0900    2.3960    9.9280 N.am      7 SEP2        0.0000 
      7 NZ         10.7555    2.7735   13.7015 N.4       3 LYC4        0.0000 
      8 NZ         10.9950    3.9140   13.0050 N.4      13 LYL4        0.0000 
      9 N          10.1785    5.1550   12.4895 N.am      2 SEC2        0.0000 
     10 N          10.9950    3.9140   13.0050 N.am     12 SEL2        0.0000 
     11 N           9.3620    6.3960   11.9740 N.am      7 SEP2        0.0000 
     12 N          10.6595    5.1270   13.8085 N.am      2 SEC2        0.0000 
     13 N          10.3240    6.3400   14.6120 N.am      7 SEP2        0.0000 
     14 N          10.7555    2.7735   13.7015 N.am      2 SEC2        0.0000 
     15 N          10.5160    1.6330   14.3980 N.am      7 SEP2        0.0000 
     16 Zn         14.0995    4.0775   14.2025 Zn        4 ZIC7        0.0000 
     17 Zn         13.2440    4.5580   13.8590 Zn       14 ZIL7        0.0000 
     18 Zn         14.9550    3.5970   14.5460 Zn        9 ZIP7        0.0000 
     19 N          13.0635    5.5710   14.9445 N.am      2 SEC2        0.0000 
     20 N          13.2440    4.5580   13.8590 N.am     12 SEL2        0.0000 
     21 N          12.8830    6.5840   16.0300 N.am      7 SEP2        0.0000 
     22 N          10.8275    6.0230   11.8575 N.am      2 SEC2        0.0000 
     23 N          12.2930    5.6500   11.7410 N.am     12 SEL2        0.0000 
     24 N          16.2015    6.6795   11.1445 N.am      2 SEC2        0.0000 
     25 N          14.7810    6.2040   11.2940 N.am     12 SEL2        0.0000 
     26 N          17.6220    7.1550   10.9950 N.am      7 SEP2        0.0000 
     27 N          13.4570    8.4140   14.0035 N.am      2 SEC2        0.0000 
     28 N          13.4650    7.6650   12.8150 N.am     12 SEL2        0.0000 
     29 N          13.4490    9.1630   15.1920 N.am      7 SEP2        0.0000 
     30 N          13.4495    9.1300   12.6655 N.am      2 SEC2        0.0000 
     31 N          13.4340   10.5950   12.5160 N.am      7 SEP2        0.0000 
     32 CA         11.8640    5.3385    9.0910 C.3       5 GLC5        0.0000 
     33 CA         12.7530    7.0370    9.0380 C.3      15 GLL5        0.0000 
     34 CA         10.9750    3.6400    9.1440 C.3      10 GLP5        0.0000 
     35 N          10.0260    8.2255    7.5550 N.am      2 SEC2        0.0000 
     36 N          11.3880    8.8010    8.1000 N.am     12 SEL2        0.0000 
     37 N           8.6640    7.6500    7.0100 N.am      7 SEP2        0.0000 
     38 CA         15.3325    8.7465    6.7605 C.3       5 GLC5        0.0000 
     39 CA         13.7180    9.1840    8.0970 C.3      15 GLL5        0.0000 
     40 CA         16.9470    8.3090    5.4240 C.3      10 GLP5        0.0000 
     41 O          15.3190   10.0350    6.9505 O.2       1 ALC1        0.0000 
     42 O          14.0880    9.5920    6.7780 O.2      11 ALL1        0.0000 
     43 O          16.5500   10.4780    7.1230 O.2       6 ALP1        0.0000 
     44 CA         12.5125   12.4550    9.2300 C.3       5 GLC5        0.0000 
     45 CA         13.0150   10.3170    8.8320 C.3      15 GLL5        0.0000 
     46 CA         12.0100   14.5930    9.6280 C.3      10 GLP5        0.0000 
     47 N          14.4680   12.0320    9.6720 N.am      2 SEC2        0.0000 
     48 N          13.5840   11.5970    8.5800 N.am     12 SEL2        0.0000 
     49 N          15.3520   12.4670   10.7640 N.am      7 SEP2        0.0000 
     50 O          15.0670   11.0375    7.8515 O.2       1 ALC1        0.0000 
     51 O          13.5840   11.5970    8.5800 O.2      11 ALL1        0.0000 
     52 CA          9.7185    9.2460    8.1800 C.3       5 GLC5        0.0000 
     53 CA         11.6080   10.2050    8.2790 C.3      15 GLL5        0.0000 
     54 CA          7.8290    8.2870    8.0810 C.3      10 GLP5        0.0000 
     55 N           8.1515   10.6765   11.7055 N.am      2 SEC2        0.0000 
     56 N           9.3830   11.3540   10.9680 N.am     12 SEL2        0.0000 
     57 N           6.9200    9.9990   12.4430 N.am      7 SEP2        0.0000 
     58 CA          7.4140   10.9635    9.2680 C.3       5 GLC5        0.0000 
     59 CA          8.8210   11.9980    9.9200 C.3      15 GLL5        0.0000 
     60 CA          6.0070    9.9290    8.6160 C.3      10 GLP5        0.0000 
     61 CA          8.7745   12.6435   11.9885 C.3       5 GLC5        0.0000 
     62 CA          8.7280   13.2890   14.0570 C.3      10 GLP5        0.0000 
     63 CA          8.8040   14.2020    9.7315 C.3       5 GLC5        0.0000 
     64 CA          8.7870   16.4060    9.5430 C.3      10 GLP5        0.0000 
     65 N           7.7225   14.4950   11.2680 N.am      2 SEC2        0.0000 
     66 N           6.9230   13.2990   10.6370 N.am     12 SEL2        0.0000 
     67 N           8.5220   15.6910   11.8990 N.am      7 SEP2        0.0000 
     68 O           6.2365   14.1060    8.3085 O.2       1 ALC1        0.0000 
     69 O           7.4480   13.3550    8.4450 O.2      11 ALL1        0.0000 
     70 O           5.0250   14.8570    8.1720 O.2       6 ALP1        0.0000 
     71 O           6.6850   14.5260    7.3980 O.2       1 ALC1        0.0000 
     72 O           5.9220   15.6970    6.3510 O.2       6 ALP1        0.0000 
     73 O           6.9280   14.5765    6.2585 O.2       1 ALC1        0.0000 
     74 O           7.9340   13.4560    6.1660 O.2      11 ALL1        0.0000 
     75 CA          8.7250    9.9580    8.4105 C.3       5 GLC5        0.0000 
     76 CA          9.6210   11.6290    8.7400 C.3      15 GLL5        0.0000 
     77 CA         14.8513   10.6007    9.3888 C.3       5 GLC5        0.0000 
     78 CA         16.3360   11.4510   10.3130 C.3      10 GLP5        0.0000 
@<TRIPOS>BOND
@<TRIPOS>SUBSTRUCTURE
     1 ALC1       41 GROUP        1 X    ALC  0     ROOT ALC X 1
     2 SEC2        4 GROUP        1 X    SEC  0     **** SEC X 2
     3 LYC4        1 GROUP        1 X    LYC  0     **** LYC X 4
     4 ZIC7       16 GROUP        1 X    ZIC  0     **** ZIC X 5
     5 GLC5       32 GROUP        1 X    GLC  0     **** GLC X 6
     6 ALP1       43 GROUP        1 Y    ALP  0     ROOT ALP Y 8
     7 SEP2        6 GROUP        1 Y    SEP  0     **** SEP Y 9
     8 LYP4        3 GROUP        1 Y    LYP  0     **** LYP Y 11
     9 ZIP7       18 GROUP        1 Y    ZIP  0     **** ZIP Y 12
    10 GLP5       34 GROUP        1 Y    GLP  0     **** GLP Y 13
    11 ALL1       42 GROUP        1 Z    ALL  0     ROOT ALL Z 15
    12 SEL2        5 GROUP        1 Z    SEL  0     **** SEL Z 16
    13 LYL4        2 GROUP        1 Z    LYL  0     **** LYL Z 18
    14 ZIL7       17 GROUP        1 Z    ZIL  0     **** ZIL Z 19
    15 GLL5       33 GROUP        1 Z    GLL  0     **** GLL Z 20
@<TRIPOS>SET

