#    Name: 1z2a_GDP_1_ligand
#    Modification time : Tue Mar 25 11:25:55 2014

@<TRIPOS>MOLECULE
1z2a_GDP_1_ligand
   40    42     1     0     0
SMALL
NO_CHARGES


@<TRIPOS>ATOM
      1 PB         12.3930    4.3120   12.6270 P.3       1 GDP201      0.0000 
      2 O1B        13.0050    3.2140   11.7830 O.co2     1 GDP201      0.0000 
      3 O2B        10.9950    3.9140   13.0050 O.co2     1 GDP201      0.0000 
      4 O3B        13.2440    4.5580   13.8590 O.co2     1 GDP201      0.0000 
      5 O3A        12.2930    5.6500   11.7410 O.3       1 GDP201      0.0000 
      6 PA         13.4200    6.7800   11.5840 P.3       1 GDP201      0.0000 
      7 O1A        14.7810    6.2040   11.2940 O.co2     1 GDP201      0.0000 
      8 O2A        13.4650    7.6650   12.8150 O.co2     1 GDP201      0.0000 
      9 O5'        12.8840    7.6370   10.3310 O.3       1 GDP201      0.0000 
     10 C5'        12.7530    7.0370    9.0380 C.3       1 GDP201      0.0000 
     11 C4'        12.6390    8.1260    7.9700 C.3       1 GDP201      0.0000 
     12 O4'        11.3880    8.8010    8.1000 O.3       1 GDP201      0.0000 
     13 C3'        13.7180    9.1840    8.0970 C.3       1 GDP201      0.0000 
     14 O3'        14.0880    9.5920    6.7780 O.3       1 GDP201      0.0000 
     15 C2'        13.0150   10.3170    8.8320 C.3       1 GDP201      0.0000 
     16 O2'        13.5840   11.5970    8.5800 O.3       1 GDP201      0.0000 
     17 C1'        11.6080   10.2050    8.2790 C.3       1 GDP201      0.0000 
     18 N9         10.5800   10.8070    9.1670 N.pl3     1 GDP201      0.0000 
     19 C8         10.4390   10.6380   10.5010 C.2       1 GDP201      0.0000 
     20 N7          9.3830   11.3540   10.9680 N.2       1 GDP201      0.0000 
     21 C5          8.8210   11.9980    9.9200 C.2       1 GDP201      0.0000 
     22 C6          7.6720   12.9240    9.6980 C.2       1 GDP201      0.0000 
     23 O6          6.9230   13.2990   10.6370 O.2       1 GDP201      0.0000 
     24 N1          7.4480   13.3550    8.4450 N.am      1 GDP201      0.0000 
     25 C2          8.2230   12.9830    7.3990 C.2       1 GDP201      0.0000 
     26 N2          7.9340   13.4560    6.1660 N.pl3     1 GDP201      0.0000 
     27 N3          9.2810   12.1460    7.5320 N.2       1 GDP201      0.0000 
     28 C4          9.6210   11.6290    8.7400 C.2       1 GDP201      0.0000 
     29 H          11.8578    6.4085    8.9715 H         1 GDP201      0.0000 
     30 H          13.6204    6.4150    8.7899 H         1 GDP201      0.0000 
     31 H          12.7219    7.6697    6.9969 H         1 GDP201      0.0000 
     32 H          14.4980    8.8157    8.6737 H         1 GDP201      0.0000 
     33 H          12.9736   10.0543    9.8677 H         1 GDP201      0.0000 
     34 H          11.5992   10.6992    7.3119 H         1 GDP201      0.0000 
     35 H          11.0166   10.0775   11.0573 H         1 GDP201      0.0000 
     36 H           6.6359   14.0103    8.2645 H         1 GDP201      0.0000 
     37 H           8.5225   13.1368    5.4232 H         1 GDP201      0.0000 
     38 H           7.1574   14.0831    6.1062 H         1 GDP201      0.0000 
     39 H          15.0772    9.4524    6.7320 H         1 GDP201      0.0000 
     40 H          14.2502   11.4447    7.8499 H         1 GDP201      0.0000 
@<TRIPOS>BOND
     1    2    1 ar   
     2    3    1 ar   
     3    4    1 ar   
     4    5    1 1    
     5    6    5 1    
     6    7    6 ar   
     7    8    6 ar   
     8    9    6 1    
     9   10    9 1    
    10   11   10 1    
    11   29   10 1    
    12   30   10 1    
    13   12   11 1    
    14   13   11 1    
    15   31   11 1    
    16   17   12 1    
    17   14   13 1    
    18   15   13 1    
    19   32   13 1    
    20   39   14 1    
    21   16   15 1    
    22   17   15 1    
    23   33   15 1    
    24   40   16 1    
    25   18   17 1    
    26   34   17 1    
    27   19   18 1    
    28   28   18 1    
    29   20   19 2    
    30   35   19 1    
    31   21   20 1    
    32   22   21 1    
    33   28   21 2    
    34   23   22 2    
    35   24   22 am   
    36   25   24 1    
    37   36   24 1    
    38   26   25 1    
    39   27   25 2    
    40   37   26 1    
    41   38   26 1    
    42   28   27 1    
@<TRIPOS>SUBSTRUCTURE
     1 GDP201      1 GROUP   
@<TRIPOS>SET

