#    Name: 4BZ6_2_CAVITY_N1_6.mol2
#    Modification time : Tue Mar 11 20:39:20 2014

@<TRIPOS>MOLECULE
4BZ6_2_CAVITY_N1_6.mol2
   63     0     7     0     0
SMALL
NO_CHARGES


@<TRIPOS>ATOM
      1 CA         79.0478   31.5174   75.2841 C.3       6 GLY6        0.0000 
      2 CA         78.4464   32.5184   74.3426 C.3       6 GLY6        0.0000 
      3 CZ         77.8450   33.5194   73.4012 C.ar      5 PHE5        0.0000 
      4 NZ         77.5486   31.4542   73.7847 N.2       4 LYS4        0.0000 
      5 CA         76.9471   32.4551   72.8432 C.3       6 GLY6        0.0000 
      6 CA         76.3457   33.4561   71.9018 C.3       6 GLY6        0.0000 
      7 NZ         76.6508   30.3899   73.2267 N.2       4 LYS4        0.0000 
      8 NZ         76.0493   31.3909   72.2853 N.2       4 LYS4        0.0000 
      9 NZ         75.4479   32.3919   71.3438 N.2       4 LYS4        0.0000 
     10 NZ         75.7529   29.3257   72.6687 N.2       4 LYS4        0.0000 
     11 NZ         74.8551   28.2615   72.1108 N.2       4 LYS4        0.0000 
     12 CZ         80.8119   29.0308   69.1233 C.ar      5 PHE5        0.0000 
     13 N          80.2105   30.0318   68.1819 N.2       2 ALA2        0.0000 
     14 DU         79.9141   27.9666   68.5654 H         7 CUB7        0.0000 
     15 O          78.4665   32.2602   78.8352 O.2       2 ALA2        0.0000 
     16 NZ         77.5687   31.1960   78.2772 N.2       4 LYS4        0.0000 
     17 CZ         76.9673   32.1970   77.3358 C.ar      5 PHE5        0.0000 
     18 NZ         76.0694   31.1328   76.7778 N.2       4 LYS4        0.0000 
     19 CZ         75.4680   32.1337   75.8364 C.ar      5 PHE5        0.0000 
     20 NZ         74.5702   31.0695   75.2784 N.2       4 LYS4        0.0000 
     21 CA         73.9688   32.0705   74.3369 C.3       6 GLY6        0.0000 
     22 N          74.4277   32.4735   76.8622 N.2       2 ALA2        0.0000 
     23 CZ         80.6694   30.4348   70.7071 C.ar      5 PHE5        0.0000 
     24 N          80.0680   31.4358   69.7657 N.2       2 ALA2        0.0000 
     25 OD1        79.7716   29.3706   70.1492 O.3       3 ASP3        0.0000 
     26 N          79.1702   30.3716   69.2077 N.2       2 ALA2        0.0000 
     27 NZ         78.2724   29.3073   68.6498 N.2       4 LYS4        0.0000 
     28 CA         80.3845   33.2428   73.8747 C.3       6 GLY6        0.0000 
     29 CZ         79.7831   34.2438   72.9333 C.ar      5 PHE5        0.0000 
     30 CA         80.0881   31.1776   74.2582 C.3       6 GLY6        0.0000 
     31 CA         79.4867   32.1786   73.3168 C.3       6 GLY6        0.0000 
     32 CZ         78.8853   33.1796   72.3753 C.ar      5 PHE5        0.0000 
     33 N          78.2838   34.1806   71.4339 N.2       2 ALA2        0.0000 
     34 OD1        79.1903   30.1134   73.7003 O.3       3 ASP3        0.0000 
     35 DU         78.5889   31.1144   72.7588 H         7 CUB7        0.0000 
     36 DU         77.9874   32.1154   71.8174 H         7 CUB7        0.0000 
     37 N          77.3860   33.1163   70.8759 N.2       2 ALA2        0.0000 
     38 NZ         78.2925   29.0492   73.1423 N.2       4 LYS4        0.0000 
     39 NZ         77.6910   30.0501   72.2009 N.2       4 LYS4        0.0000 
     40 NZ         77.0896   31.0511   71.2594 N.2       4 LYS4        0.0000 
     41 NZ         76.4882   32.0521   70.3180 N.2       4 LYS4        0.0000 
     42 NZ         77.3947   27.9849   72.5843 N.2       4 LYS4        0.0000 
     43 NZ         76.7932   28.9859   71.6429 N.2       4 LYS4        0.0000 
     44 CA         78.6090   30.8562   77.2514 C.3       6 GLY6        0.0000 
     45 CZ         78.0076   31.8572   76.3099 C.ar      5 PHE5        0.0000 
     46 CZ         76.5083   31.7939   74.8105 C.ar      5 PHE5        0.0000 
     47 CA         75.9069   32.7949   73.8691 C.3       6 GLY6        0.0000 
     48 NZ         75.6105   30.7297   74.2525 N.2       4 LYS4        0.0000 
     49 CA         75.0090   31.7307   73.3111 C.3       6 GLY6        0.0000 
     50 N          74.7127   29.6655   73.6946 N.2       2 ALA2        0.0000 
     51 N          74.1112   30.6665   72.7531 N.2       2 ALA2        0.0000 
     52 N          73.8148   28.6012   73.1366 N.2       2 ALA2        0.0000 
     53 N          81.4248   32.9031   72.8489 N.2       2 ALA2        0.0000 
     54 OG         80.8234   33.9040   71.9075 O.2       1 SER1        0.0000 
     55 OD1        81.1284   30.8379   73.2324 O.3       3 ASP3        0.0000 
     56 OG         80.5270   31.8388   72.2909 O.2       1 SER1        0.0000 
     57 OG         79.9255   32.8398   71.3495 O.2       1 SER1        0.0000 
     58 CA         79.3241   33.8408   70.4080 C.3       6 GLY6        0.0000 
     59 OD1        79.6292   30.7746   71.7330 O.3       3 ASP3        0.0000 
     60 N          79.0277   31.7756   70.7915 N.2       2 ALA2        0.0000 
     61 OD1        78.7313   29.7104   71.1750 O.3       3 ASP3        0.0000 
     62 NZ         78.1299   30.7113   70.2336 N.2       4 LYS4        0.0000 
     63 NZ         77.8335   28.6461   70.6171 N.2       4 LYS4        0.0000 
@<TRIPOS>BOND
@<TRIPOS>SUBSTRUCTURE
     1 SER1       54 GROUP   
     2 ALA2       13 GROUP   
     3 ASP3       25 GROUP   
     4 LYS4        4 GROUP   
     5 PHE5        3 GROUP   
     6 GLY6        1 GROUP   
     7 CUB7       14 GROUP   
@<TRIPOS>SET

