#    Name: 4bz6_SHH_2_INTS_M
#    Modification time : Tue Mar 25 08:31:46 2014

@<TRIPOS>MOLECULE
4bz6_SHH_2_INTS_M
   56     0    12     0     0
SMALL
NO_CHARGES


@<TRIPOS>ATOM
      1 Zn         82.1820   37.4135   70.5560 Zn        3 ZIC7        0.0000 
      2 Zn         82.5720   37.4670   71.5690 Zn       11 ZIL7        0.0000 
      3 Zn         81.7920   37.3600   69.5430 Zn        7 ZIP7        0.0000 
      4 O          82.9680   38.3910   72.3810 O.2       1 ALC1        0.0000 
      5 O          82.5720   37.4670   71.5690 O.2       9 ALL1        0.0000 
      6 O          83.3640   39.3150   73.1930 O.2       5 ALP1        0.0000 
      7 Zn         81.8735   36.2285   70.0250 Zn        3 ZIC7        0.0000 
      8 Zn         81.9550   35.0970   70.5070 Zn       11 ZIL7        0.0000 
      9 N          82.5340   34.0415   70.3875 N.am      2 SEC2        0.0000 
     10 N          81.9550   35.0970   70.5070 N.am     10 SEL2        0.0000 
     11 N          83.1130   32.9860   70.2680 N.am      6 SEP2        0.0000 
     12 O          81.5600   37.1605   73.3665 O.2       1 ALC1        0.0000 
     13 O          81.9400   36.5700   72.2590 O.2       9 ALL1        0.0000 
     14 O          81.1800   37.7510   74.4740 O.2       5 ALP1        0.0000 
     15 CA         81.4035   35.6545   73.9845 C.3       4 GLC5        0.0000 
     16 CA         80.9720   34.2530   72.5140 C.3      12 GLL5        0.0000 
     17 CA         81.8350   37.0560   75.4550 C.3       8 GLP5        0.0000 
     18 CA         80.9865   33.5555   74.5730 C.3       4 GLC5        0.0000 
     19 CA         81.0010   32.8580   76.6320 C.3       8 GLP5        0.0000 
     20 CA         79.7105   35.1475   73.9865 C.3       4 GLC5        0.0000 
     21 CA         78.4490   36.0420   75.4590 C.3       8 GLP5        0.0000 
     22 CA         82.0205   33.3040   70.7800 C.3       4 GLC5        0.0000 
     23 CA         83.0690   32.3550   69.0460 C.3       8 GLP5        0.0000 
     24 CA         78.6335   35.5795   71.3515 C.3       4 GLC5        0.0000 
     25 CA         79.6050   33.9010   72.0070 C.3      12 GLL5        0.0000 
     26 CA         77.6620   37.2580   70.6960 C.3       8 GLP5        0.0000 
     27 CA         81.8575   29.4270   71.5245 C.3       4 GLC5        0.0000 
     28 CA         80.3160   30.6320   70.9100 C.3      12 GLL5        0.0000 
     29 CA         83.3990   28.2220   72.1390 C.3       8 GLP5        0.0000 
     30 CA         81.8935   30.8325   69.9340 C.3       4 GLC5        0.0000 
     31 CA         83.4710   31.0330   68.9580 C.3       8 GLP5        0.0000 
     32 N          80.6120   28.0335   71.5255 N.am      2 SEC2        0.0000 
     33 N          80.0920   28.4470   70.0960 N.am     10 SEL2        0.0000 
     34 N          81.1320   27.6200   72.9550 N.am      6 SEP2        0.0000 
     35 O          79.2600   31.5175   68.0370 O.2       1 ALC1        0.0000 
     36 O          79.6970   30.1210   68.5220 O.2       9 ALL1        0.0000 
     37 O          78.8230   32.9140   67.5520 O.2       5 ALP1        0.0000 
     38 CA         76.1660   30.1575   67.0215 C.3       4 GLC5        0.0000 
     39 CA         78.2030   29.3910   66.6890 C.3      12 GLL5        0.0000 
     40 CA         74.1290   30.9240   67.3540 C.3       8 GLP5        0.0000 
     41 CA         78.5510   28.8545   63.8460 C.3       4 GLC5        0.0000 
     42 CA         77.9470   28.5450   65.6070 C.3      12 GLL5        0.0000 
     43 CA         79.1550   29.1640   62.0850 C.3       8 GLP5        0.0000 
     44 CA         78.3390   34.7082   73.4753 C.3       4 GLC5        0.0000 
     45 CA         77.4400   35.9930   74.4920 C.3       8 GLP5        0.0000 
     46 CA         80.0998   32.5662   74.8017 C.3       4 GLC5        0.0000 
     47 CA         78.8710   32.9460   72.9100 C.3      12 GLL5        0.0000 
     48 CA         78.8773   31.2882   66.6270 C.3       4 GLC5        0.0000 
     49 CA         79.4080   29.2720   67.3950 C.3      12 GLL5        0.0000 
     50 CA         78.9490   33.2450   66.2120 C.3       8 GLP5        0.0000 
     51 CA         81.4884   29.2267   65.8974 C.3       4 GLC5        0.0000 
     52 CA         80.0990   27.4750   65.9130 C.3      12 GLL5        0.0000 
     53 CA         82.9850   30.3160   65.2420 C.3       8 GLP5        0.0000 
     54 CA         80.1789   28.7626   64.5319 C.3       4 GLC5        0.0000 
     55 CA         80.3610   28.3280   66.9900 C.3      12 GLL5        0.0000 
     56 CA         80.4300   29.5980   62.7820 C.3       8 GLP5        0.0000 
@<TRIPOS>BOND
@<TRIPOS>SUBSTRUCTURE
     1 ALC1        4 GROUP        1 X    ALC  0     ROOT ALC X 1
     2 SEC2        9 GROUP        1 X    SEC  0     **** SEC X 2
     3 ZIC7        1 GROUP        1 X    ZIC  0     **** ZIC X 5
     4 GLC5       15 GROUP        1 X    GLC  0     **** GLC X 6
     5 ALP1        6 GROUP        1 Y    ALP  0     ROOT ALP Y 8
     6 SEP2       11 GROUP        1 Y    SEP  0     **** SEP Y 9
     7 ZIP7        3 GROUP        1 Y    ZIP  0     **** ZIP Y 12
     8 GLP5       17 GROUP        1 Y    GLP  0     **** GLP Y 13
     9 ALL1        5 GROUP        1 Z    ALL  0     ROOT ALL Z 15
    10 SEL2       10 GROUP        1 Z    SEL  0     **** SEL Z 16
    11 ZIL7        2 GROUP        1 Z    ZIL  0     **** ZIL Z 19
    12 GLL5       16 GROUP        1 Z    GLL  0     **** GLL Z 20
@<TRIPOS>SET

