#    Name: 4bz6_SHH_2_ligand
#    Modification time : Tue Mar 25 08:31:46 2014

@<TRIPOS>MOLECULE
4bz6_SHH_2_ligand
   39    39     1     0     0
SMALL
NO_CHARGES


@<TRIPOS>ATOM
      1 O1         82.5720   37.4670   71.5690 O.3       1 SHH700      0.0000 
      2 O2         81.9550   35.0970   70.5070 O.2       1 SHH700      0.0000 
      3 N1         81.9400   36.5700   72.2590 N.am      1 SHH700      0.0000 
      4 C1         81.6380   35.3040   71.6800 C.2       1 SHH700      0.0000 
      5 C2         80.9720   34.2530   72.5140 C.3       1 SHH700      0.0000 
      6 C3         79.6050   33.9010   72.0070 C.3       1 SHH700      0.0000 
      7 C4         78.8710   32.9460   72.9100 C.3       1 SHH700      0.0000 
      8 C5         79.5260   31.6030   73.0330 C.3       1 SHH700      0.0000 
      9 C6         79.1760   30.7100   71.8780 C.3       1 SHH700      0.0000 
     10 C7         80.3160   30.6320   70.9100 C.3       1 SHH700      0.0000 
     11 C8         80.0240   29.6400   69.8350 C.2       1 SHH700      0.0000 
     12 O3         80.0920   28.4470   70.0960 O.2       1 SHH700      0.0000 
     13 N2         79.6970   30.1210   68.5220 N.am      1 SHH700      0.0000 
     14 C9         79.4080   29.2720   67.3950 C.ar      1 SHH700      0.0000 
     15 C10        78.2030   29.3910   66.6890 C.ar      1 SHH700      0.0000 
     16 C11        77.9470   28.5450   65.6070 C.ar      1 SHH700      0.0000 
     17 C12        78.8900   27.5780   65.2340 C.ar      1 SHH700      0.0000 
     18 C13        80.0990   27.4750   65.9130 C.ar      1 SHH700      0.0000 
     19 C14        80.3610   28.3280   66.9900 C.ar      1 SHH700      0.0000 
     20 H          81.6283   36.7188   73.2409 H         1 SHH700      0.0000 
     21 H          80.8937   34.6078   73.5544 H         1 SHH700      0.0000 
     22 H          81.5990   33.3468   72.5284 H         1 SHH700      0.0000 
     23 H          79.6923   33.4531   71.0022 H         1 SHH700      0.0000 
     24 H          79.0086   34.8227   71.8948 H         1 SHH700      0.0000 
     25 H          77.8382   32.8149   72.5325 H         1 SHH700      0.0000 
     26 H          78.7784   33.4001   73.9158 H         1 SHH700      0.0000 
     27 H          79.2095   31.1266   73.9703 H         1 SHH700      0.0000 
     28 H          80.6157   31.7306   73.0771 H         1 SHH700      0.0000 
     29 H          78.2899   31.1018   71.3703 H         1 SHH700      0.0000 
     30 H          78.9416   29.7085   72.2501 H         1 SHH700      0.0000 
     31 H          81.2271   30.3405   71.4429 H         1 SHH700      0.0000 
     32 H          80.4845   31.6184   70.4654 H         1 SHH700      0.0000 
     33 H          79.6663   31.1538   68.3728 H         1 SHH700      0.0000 
     34 H          77.5145   30.0957   66.9667 H         1 SHH700      0.0000 
     35 H          77.0687   28.6303   65.0841 H         1 SHH700      0.0000 
     36 H          78.6819   26.9420   64.4517 H         1 SHH700      0.0000 
     37 H          80.7957   26.7802   65.6292 H         1 SHH700      0.0000 
     38 H          81.2578   28.2629   67.4882 H         1 SHH700      0.0000 
     39 H          82.5548   38.2898   72.1370 H         1 SHH700      0.0000 
@<TRIPOS>BOND
     1    3    1 1    
     2   39    1 1    
     3    4    2 2    
     4    4    3 am   
     5   20    3 1    
     6    5    4 1    
     7    6    5 1    
     8   21    5 1    
     9   22    5 1    
    10    7    6 1    
    11   23    6 1    
    12   24    6 1    
    13    8    7 1    
    14   25    7 1    
    15   26    7 1    
    16    9    8 1    
    17   27    8 1    
    18   28    8 1    
    19   10    9 1    
    20   29    9 1    
    21   30    9 1    
    22   11   10 1    
    23   31   10 1    
    24   32   10 1    
    25   12   11 2    
    26   13   11 am   
    27   14   13 1    
    28   33   13 1    
    29   15   14 ar   
    30   19   14 ar   
    31   16   15 ar   
    32   34   15 1    
    33   17   16 ar   
    34   35   16 1    
    35   18   17 ar   
    36   36   17 1    
    37   19   18 ar   
    38   37   18 1    
    39   38   19 1    
@<TRIPOS>SUBSTRUCTURE
     1 SHH700      1 GROUP   
@<TRIPOS>SET

