#    Name: 3ocg_OCG_1_INTS_M
#    Modification time : Tue Mar 25 03:38:51 2014

@<TRIPOS>MOLECULE
3ocg_OCG_1_INTS_M
   65     0     9     0     0
SMALL
NO_CHARGES


@<TRIPOS>ATOM
      1 N          36.1290   -7.1630   19.4995 N.am      2 SEC2        0.0000 
      2 N          36.1210   -5.6690   19.7740 N.am      8 SEL2        0.0000 
      3 N          36.1370   -8.6570   19.2250 N.am      5 SEP2        0.0000 
      4 CA         38.0960   -4.2260   20.5730 C.3       3 GLC5        0.0000 
      5 CA         36.2250   -3.6120   20.5010 C.3       9 GLL5        0.0000 
      6 CA         39.9670   -4.8400   20.6450 C.3       6 GLP5        0.0000 
      7 O          37.9645   -3.8810   23.2335 O.2       1 ALC1        0.0000 
      8 O          37.1970   -2.7530   22.5700 O.2       7 ALL1        0.0000 
      9 O          38.7320   -5.0090   23.8970 O.2       4 ALP1        0.0000 
     10 CA         40.5175   -0.0320   26.0360 C.3       3 GLC5        0.0000 
     11 CA         38.8390   -0.3770   24.9790 C.3       9 GLL5        0.0000 
     12 CA         42.1960    0.3130   27.0930 C.3       6 GLP5        0.0000 
     13 CA         37.9210    0.1695   27.5635 C.3       3 GLC5        0.0000 
     14 CA         37.6860    0.0940   25.6470 C.3       9 GLL5        0.0000 
     15 CA         38.1560    0.2450   29.4800 C.3       6 GLP5        0.0000 
     16 CA         39.2470    1.1910   26.6820 C.3       3 GLC5        0.0000 
     17 CA         40.8080    2.2880   27.7170 C.3       6 GLP5        0.0000 
     18 O          36.5020    2.2350   26.8085 O.2       1 ALC1        0.0000 
     19 O          35.5470    1.2030   26.8130 O.2       7 ALL1        0.0000 
     20 O          37.4570    3.2670   26.8040 O.2       4 ALP1        0.0000 
     21 CA         33.1745    3.6855   31.0315 C.3       3 GLC5        0.0000 
     22 CA         33.5180    2.9740   29.1820 C.3       9 GLL5        0.0000 
     23 CA         32.8310    4.3970   32.8810 C.3       6 GLP5        0.0000 
     24 CA         39.9435   -3.3420   21.9350 C.3       3 GLC5        0.0000 
     25 CA         39.9200   -1.8440   23.2250 C.3       9 GLL5        0.0000 
     26 CA         41.9280   -2.0860   22.3030 C.3       3 GLC5        0.0000 
     27 CA         43.9360   -2.3280   21.3810 C.3       6 GLP5        0.0000 
     28 CA         30.7860   -4.7195   16.1460 C.3       3 GLC5        0.0000 
     29 CA         32.7860   -5.2110   16.1830 C.3       9 GLL5        0.0000 
     30 CA         28.7860   -4.2280   16.1090 C.3       6 GLP5        0.0000 
     31 CA         34.3910   -3.1475   20.7450 C.3       3 GLC5        0.0000 
     32 CA         35.5530   -3.5020   19.2790 C.3       9 GLL5        0.0000 
     33 CA         32.8930   -2.7380   21.6000 C.3       6 GLP5        0.0000 
     34 CA         40.2960   -0.0990   23.1602 C.3       3 GLC5        0.0000 
     35 CA         38.6800   -1.3320   23.9460 C.3       9 GLL5        0.0000 
     36 CA         41.2920    1.3900   22.7350 C.3       6 GLP5        0.0000 
     37 CA         39.0033    1.4293   24.5705 C.3       3 GLC5        0.0000 
     38 CA         39.7440    3.0000   23.8280 C.3       6 GLP5        0.0000 
     39 CA         38.5542   -2.0697   25.7220 C.3       3 GLC5        0.0000 
     40 CA         38.8460   -3.9980   26.1310 C.3       6 GLP5        0.0000 
     41 CA         35.0708   -2.1183   26.0093 C.3       3 GLC5        0.0000 
     42 CA         36.3860   -0.3610   25.3100 C.3       9 GLL5        0.0000 
     43 CA         33.8230   -3.3980   27.2260 C.3       6 GLP5        0.0000 
     44 CA         37.5823   -2.4183   25.4618 C.3       3 GLC5        0.0000 
     45 CA         36.2510   -1.3160   24.2750 C.3       9 GLL5        0.0000 
     46 CA         35.6968    3.4975   28.8567 C.3       3 GLC5        0.0000 
     47 CA         34.5030    2.9340   28.1830 C.3       9 GLL5        0.0000 
     48 CA         37.3830    4.0410   29.0310 C.3       6 GLP5        0.0000 
     49 CA         32.5448    2.3775   27.2488 C.3       3 GLC5        0.0000 
     50 CA         31.0790    1.8010   25.8150 C.3       6 GLP5        0.0000 
     51 CA         38.9116   -2.8529   24.8131 C.3       3 GLC5        0.0000 
     52 CA         37.3890   -1.8110   23.5850 C.3       9 GLL5        0.0000 
     53 CA         37.1137   -6.0393   17.2037 C.3       3 GLC5        0.0000 
     54 CA         34.8510   -5.0630   17.5670 C.3       9 GLL5        0.0000 
     55 CA         39.0050   -6.7570   17.3980 C.3       6 GLP5        0.0000 
     56 CA         33.9130   -6.7163   18.4785 C.3       3 GLC5        0.0000 
     57 CA         33.6870   -8.4580   19.4740 C.3       6 GLP5        0.0000 
     58 CA         31.9188   -5.7032   18.3700 C.3       3 GLC5        0.0000 
     59 CA         33.4270   -4.8860   17.3990 C.3       9 GLL5        0.0000 
     60 CA         30.7310   -6.3580   19.9490 C.3       6 GLP5        0.0000 
     61 CA         32.0000   -6.9108   15.1898 C.3       3 GLC5        0.0000 
     62 CA         30.8430   -8.3570   14.7400 C.3       6 GLP5        0.0000 
     63 CA         36.2895   -4.1325   15.1325 C.3       3 GLC5        0.0000 
     64 CA         34.9260   -5.8980   15.2420 C.3       9 GLL5        0.0000 
     65 CA         37.3190   -2.5260   14.4180 C.3       6 GLP5        0.0000 
@<TRIPOS>BOND
@<TRIPOS>SUBSTRUCTURE
     1 ALC1        7 GROUP        1 X    ALC  0     ROOT ALC X 1
     2 SEC2        1 GROUP        1 X    SEC  0     **** SEC X 2
     3 GLC5        4 GROUP        1 X    GLC  0     **** GLC X 6
     4 ALP1        9 GROUP        1 Y    ALP  0     ROOT ALP Y 8
     5 SEP2        3 GROUP        1 Y    SEP  0     **** SEP Y 9
     6 GLP5        6 GROUP        1 Y    GLP  0     **** GLP Y 13
     7 ALL1        8 GROUP        1 Z    ALL  0     ROOT ALL Z 15
     8 SEL2        2 GROUP        1 Z    SEL  0     **** SEL Z 16
     9 GLL5        5 GROUP        1 Z    GLL  0     **** GLL Z 20
@<TRIPOS>SET

