#    Name: 3ocg_OCG_1_ligand
#    Modification time : Tue Mar 25 03:38:51 2014

@<TRIPOS>MOLECULE
3ocg_OCG_1_ligand
   47    50     1     0     0
SMALL
NO_CHARGES


@<TRIPOS>ATOM
      1 N1         35.4480   -4.7380   18.7640 N.pl3     1 OCG361      0.0000 
      2 N2         36.1210   -5.6690   19.7740 N.2       1 OCG361      0.0000 
      3 C3         36.5370   -4.9600   20.7330 C.2       1 OCG361      0.0000 
      4 C4         36.2250   -3.6120   20.5010 C.2       1 OCG361      0.0000 
      5 C5         35.5530   -3.5020   19.2790 C.2       1 OCG361      0.0000 
      6 N6         35.1210   -2.3390   18.7790 N.pl3     1 OCG361      0.0000 
      7 C7         36.5400   -2.5380   21.3690 C.2       1 OCG361      0.0000 
      8 O8         36.2700   -1.3560   21.1490 O.2       1 OCG361      0.0000 
      9 N9         37.1970   -2.7530   22.5700 N.am      1 OCG361      0.0000 
     10 C10        37.3890   -1.8110   23.5850 C.ar      1 OCG361      0.0000 
     11 C11        38.6800   -1.3320   23.9460 C.ar      1 OCG361      0.0000 
     12 C12        38.8390   -0.3770   24.9790 C.ar      1 OCG361      0.0000 
     13 C13        37.6860    0.0940   25.6470 C.ar      1 OCG361      0.0000 
     14 C14        36.3860   -0.3610   25.3100 C.ar      1 OCG361      0.0000 
     15 C15        36.2510   -1.3160   24.2750 C.ar      1 OCG361      0.0000 
     16 C16        35.3680    0.1490   26.0040 C.2       1 OCG361      0.0000 
     17 O17        34.2660   -0.3800   25.8770 O.2       1 OCG361      0.0000 
     18 N18        35.5470    1.2030   26.8130 N.am      1 OCG361      0.0000 
     19 C19        34.6850    1.6120   27.7560 C.2       1 OCG361      0.0000 
     20 N20        33.8340    0.9080   28.4810 N.2       1 OCG361      0.0000 
     21 O21        33.0700    1.8300   29.4210 O.3       1 OCG361      0.0000 
     22 C22        33.5180    2.9740   29.1820 C.2       1 OCG361      0.0000 
     23 C23        34.5030    2.9340   28.1830 C.2       1 OCG361      0.0000 
     24 C24        39.9200   -1.8440   23.2250 C.3       1 OCG361      0.0000 
     25 C25        34.8510   -5.0630   17.5670 C.ar      1 OCG361      0.0000 
     26 C26        33.4270   -4.8860   17.3990 C.ar      1 OCG361      0.0000 
     27 C27        32.7860   -5.2110   16.1830 C.ar      1 OCG361      0.0000 
     28 C28        33.5280   -5.7180   15.0960 C.ar      1 OCG361      0.0000 
     29 C29        34.9260   -5.8980   15.2420 C.ar      1 OCG361      0.0000 
     30 C30        35.5940   -5.5800   16.4520 C.ar      1 OCG361      0.0000 
     31 H          37.0131   -5.2332   21.5494 H         1 OCG361      0.0000 
     32 H          37.5973   -3.7321   22.7414 H         1 OCG361      0.0000 
     33 H          39.7570   -0.0403   25.2323 H         1 OCG361      0.0000 
     34 H          37.7914    0.7904   26.4035 H         1 OCG361      0.0000 
     35 H          35.3181   -1.6573   24.0175 H         1 OCG361      0.0000 
     36 H          36.4603    1.7697   26.6961 H         1 OCG361      0.0000 
     37 H          33.2672    3.8427   29.5955 H         1 OCG361      0.0000 
     38 H          34.9748    3.6906   27.8475 H         1 OCG361      0.0000 
     39 H          32.8836   -4.5166   18.1856 H         1 OCG361      0.0000 
     40 H          31.7741   -5.0771   16.0908 H         1 OCG361      0.0000 
     41 H          33.0708   -5.9511   14.2218 H         1 OCG361      0.0000 
     42 H          35.4711   -6.2691   14.4498 H         1 OCG361      0.0000 
     43 H          36.5971   -5.7150   16.5378 H         1 OCG361      0.0000 
     44 H          40.7554   -1.4224   23.5778 H         1 OCG361      0.0000 
     45 H          40.0260   -2.8333   23.3253 H         1 OCG361      0.0000 
     46 H          39.8858   -1.6509   22.2444 H         1 OCG361      0.0000 
     47 H          35.3935   -1.6511   19.4517 H         1 OCG361      0.0000 
@<TRIPOS>BOND
     1    2    1 1    
     2    5    1 1    
     3   25    1 1    
     4    3    2 2    
     5    4    3 1    
     6   31    3 1    
     7    5    4 2    
     8    7    4 1    
     9    6    5 1    
    10   47    6 1    
    11    8    7 2    
    12    9    7 am   
    13   10    9 1    
    14   32    9 1    
    15   11   10 ar   
    16   15   10 ar   
    17   12   11 ar   
    18   24   11 1    
    19   13   12 ar   
    20   33   12 1    
    21   14   13 ar   
    22   34   13 1    
    23   15   14 ar   
    24   16   14 1    
    25   35   15 1    
    26   17   16 2    
    27   18   16 am   
    28   19   18 1    
    29   36   18 1    
    30   20   19 2    
    31   23   19 1    
    32   21   20 1    
    33   22   21 1    
    34   23   22 2    
    35   37   22 1    
    36   38   23 1    
    37   44   24 1    
    38   45   24 1    
    39   46   24 1    
    40   26   25 ar   
    41   30   25 ar   
    42   27   26 ar   
    43   39   26 1    
    44   28   27 ar   
    45   40   27 1    
    46   29   28 ar   
    47   41   28 1    
    48   30   29 ar   
    49   42   29 1    
    50   43   30 1    
@<TRIPOS>SUBSTRUCTURE
     1 OCG361      1 GROUP   
@<TRIPOS>SET

