#    Name: 3BIU_1_CAVITY_N1_6.mol2
#    Modification time : Tue Mar 11 11:44:55 2014

@<TRIPOS>MOLECULE
3BIU_1_CAVITY_N1_6.mol2
  106     0     7     0     0
SMALL
NO_CHARGES


@<TRIPOS>ATOM
      1 OG         20.5262  -16.3598   21.5285 O.2       1 SER1        0.0000 
      2 OG         20.6834  -14.3728   23.1950 O.2       1 SER1        0.0000 
      3 DU         19.4333  -14.8219   22.4982 H         7 CUB7        0.0000 
      4 OG         20.1918  -14.9329   21.2089 O.2       1 SER1        0.0000 
      5 DU         18.1831  -15.2709   21.8014 H         7 CUB7        0.0000 
      6 CZ         18.9417  -15.3819   20.5121 C.ar      5 PHE5        0.0000 
      7 N          16.1745  -15.6089   22.3938 N.2       2 ALA2        0.0000 
      8 DU         16.9330  -15.7199   21.1045 H         7 CUB7        0.0000 
      9 CZ         17.6916  -15.8309   19.8152 C.ar      5 PHE5        0.0000 
     10 N          14.9243  -16.0579   21.6970 N.2       2 ALA2        0.0000 
     11 DU         15.6829  -16.1689   20.4077 H         7 CUB7        0.0000 
     12 O          12.9157  -16.3959   22.2894 O.2       2 ALA2        0.0000 
     13 DU         13.6742  -16.5069   21.0001 H         7 CUB7        0.0000 
     14 DU         14.4328  -16.6179   19.7108 H         7 CUB7        0.0000 
     15 CA         11.6656  -16.8449   21.5926 C.3       6 GLY6        0.0000 
     16 DU         12.4241  -16.9559   20.3033 H         7 CUB7        0.0000 
     17 CA         10.4154  -17.2939   20.8957 C.3       6 GLY6        0.0000 
     18 CA         20.3490  -12.9459   22.8754 C.3       6 GLY6        0.0000 
     19 OG         21.1076  -13.0570   21.5861 O.2       1 SER1        0.0000 
     20 CA         18.3403  -13.2839   23.4679 C.3       6 GLY6        0.0000 
     21 CA         19.0989  -13.3950   22.1786 C.3       6 GLY6        0.0000 
     22 OG         19.8574  -13.5060   20.8893 O.2       1 SER1        0.0000 
     23 CZ         20.6160  -13.6170   19.6000 C.ar      5 PHE5        0.0000 
     24 N          17.0902  -13.7329   22.7711 N.2       2 ALA2        0.0000 
     25 DU         17.8488  -13.8440   21.4818 H         7 CUB7        0.0000 
     26 CZ         18.6073  -13.9550   20.1925 C.ar      5 PHE5        0.0000 
     27 N          15.8401  -14.1820   22.0742 N.2       2 ALA2        0.0000 
     28 DU         16.5987  -14.2930   20.7849 H         7 CUB7        0.0000 
     29 CZ         17.3572  -14.4040   19.4956 C.ar      5 PHE5        0.0000 
     30 N          14.5900  -14.6310   21.3774 N.2       2 ALA2        0.0000 
     31 DU         15.3485  -14.7420   20.0881 H         7 CUB7        0.0000 
     32 CZ         16.1071  -14.8530   18.7988 C.ar      5 PHE5        0.0000 
     33 N          12.5813  -14.9690   21.9698 N.2       2 ALA2        0.0000 
     34 DU         13.3399  -15.0800   20.6805 H         7 CUB7        0.0000 
     35 DU         14.0984  -15.1910   19.3912 H         7 CUB7        0.0000 
     36 CZ         14.8570  -15.3021   18.1020 C.ar      5 PHE5        0.0000 
     37 CA         11.3312  -15.4180   21.2730 C.3       6 GLY6        0.0000 
     38 CA         12.0897  -15.5290   19.9837 C.3       6 GLY6        0.0000 
     39 CA         12.8483  -15.6401   18.6944 C.3       6 GLY6        0.0000 
     40 CA         13.6069  -15.7511   17.4051 C.3       6 GLY6        0.0000 
     41 CA         10.8396  -15.9780   19.2869 C.3       6 GLY6        0.0000 
     42 CA         18.7645  -11.9680   21.8590 C.3       6 GLY6        0.0000 
     43 CA         19.5231  -12.0791   20.5697 C.3       6 GLY6        0.0000 
     44 CZ         20.2816  -12.1901   19.2804 C.ar      5 PHE5        0.0000 
     45 CA         16.7559  -12.3060   22.4514 C.3       6 GLY6        0.0000 
     46 CA         17.5144  -12.4171   21.1622 C.3       6 GLY6        0.0000 
     47 CZ         18.2730  -12.5281   19.8729 C.ar      5 PHE5        0.0000 
     48 CZ         19.0315  -12.6391   18.5836 C.ar      5 PHE5        0.0000 
     49 O          15.5057  -12.7551   21.7546 O.2       2 ALA2        0.0000 
     50 DU         16.2643  -12.8661   20.4653 H         7 CUB7        0.0000 
     51 CZ         17.0228  -12.9771   19.1760 C.ar      5 PHE5        0.0000 
     52 N          13.4971  -13.0930   22.3471 N.2       2 ALA2        0.0000 
     53 N          14.2556  -13.2041   21.0578 N.2       2 ALA2        0.0000 
     54 DU         15.0142  -13.3151   19.7685 H         7 CUB7        0.0000 
     55 CZ         15.7727  -13.4261   18.4792 C.ar      5 PHE5        0.0000 
     56 CZ         16.5313  -13.5372   17.1899 C.ar      5 PHE5        0.0000 
     57 N          12.2469  -13.5421   21.6502 N.2       2 ALA2        0.0000 
     58 O          13.0055  -13.6531   20.3609 O.2       2 ALA2        0.0000 
     59 CA         13.7641  -13.7641   19.0716 C.3       6 GLY6        0.0000 
     60 CA         14.5226  -13.8752   17.7823 C.3       6 GLY6        0.0000 
     61 NZ         15.2812  -13.9862   16.4931 N.2       4 LYS4        0.0000 
     62 O          11.7554  -14.1021   19.6641 O.2       2 ALA2        0.0000 
     63 N          17.1800  -10.9902   20.8425 N.2       2 ALA2        0.0000 
     64 N          17.9386  -11.1012   19.5533 N.2       2 ALA2        0.0000 
     65 CA         18.6971  -11.2122   18.2640 C.3       6 GLY6        0.0000 
     66 CA         15.1714  -11.3282   21.4350 C.3       6 GLY6        0.0000 
     67 N          15.9299  -11.4392   20.1457 N.2       2 ALA2        0.0000 
     68 OG         16.6885  -11.5502   18.8564 O.2       1 SER1        0.0000 
     69 CZ         17.4470  -11.6612   17.5671 C.ar      5 PHE5        0.0000 
     70 CZ         18.2056  -11.7723   16.2778 C.ar      5 PHE5        0.0000 
     71 O          12.4041  -11.5551   23.3167 O.2       2 ALA2        0.0000 
     72 O          13.1627  -11.6661   22.0275 O.2       2 ALA2        0.0000 
     73 DU         13.9213  -11.7772   20.7382 H         7 CUB7        0.0000 
     74 OG         14.6798  -11.8882   19.4489 O.2       1 SER1        0.0000 
     75 OG         15.4384  -11.9992   18.1596 O.2       1 SER1        0.0000 
     76 CZ         16.1969  -12.1103   16.8703 C.ar      5 PHE5        0.0000 
     77 CZ         16.9555  -12.2213   15.5810 C.ar      5 PHE5        0.0000 
     78 OD1        17.7140  -12.3323   14.2917 O.3       3 ASP3        0.0000 
     79 N          11.1540  -12.0041   22.6199 N.2       2 ALA2        0.0000 
     80 CA         11.9126  -12.1152   21.3306 C.3       6 GLY6        0.0000 
     81 O          12.6711  -12.2262   20.0413 O.2       2 ALA2        0.0000 
     82 CA         13.4297  -12.3372   18.7520 C.3       6 GLY6        0.0000 
     83 CA         14.1882  -12.4483   17.4627 C.3       6 GLY6        0.0000 
     84 NZ         14.9468  -12.5593   16.1735 N.2       4 LYS4        0.0000 
     85 CA         14.0784   -9.7902   22.4047 C.3       6 GLY6        0.0000 
     86 N          14.8370   -9.9013   21.1154 N.2       2 ALA2        0.0000 
     87 N          17.1127  -10.2343   17.2475 N.2       2 ALA2        0.0000 
     88 OD1        17.8712  -10.3454   15.9582 O.3       3 ASP3        0.0000 
     89 N          12.0698  -10.1282   22.9971 N.2       2 ALA2        0.0000 
     90 CA         12.8283  -10.2392   21.7078 C.3       6 GLY6        0.0000 
     91 OG         13.5869  -10.3503   20.4186 O.2       1 SER1        0.0000 
     92 OG         15.8625  -10.6834   16.5507 O.2       1 SER1        0.0000 
     93 OD1        16.6211  -10.7944   15.2614 O.3       3 ASP3        0.0000 
     94 N          10.8197  -10.5772   22.3003 N.2       2 ALA2        0.0000 
     95 CA         11.5782  -10.6883   21.0110 C.3       6 GLY6        0.0000 
     96 O          12.3368  -10.7993   19.7217 O.2       2 ALA2        0.0000 
     97 CA         14.6124  -11.1324   15.8538 C.3       6 GLY6        0.0000 
     98 NZ         15.3710  -11.2434   14.5646 N.2       4 LYS4        0.0000 
     99 CA         13.7441   -8.3633   22.0851 C.3       6 GLY6        0.0000 
    100 CA         11.7354   -8.7013   22.6775 C.3       6 GLY6        0.0000 
    101 CA         12.4940   -8.8123   21.3882 C.3       6 GLY6        0.0000 
    102 OG         13.2525   -8.9234   20.0989 O.2       1 SER1        0.0000 
    103 OG         16.2867   -9.3675   14.9418 O.2       1 SER1        0.0000 
    104 N          11.2438   -9.2614   20.6914 N.2       2 ALA2        0.0000 
    105 O          14.2781   -9.7055   15.5342 O.2       2 ALA2        0.0000 
    106 N          15.0366   -9.8165   14.2450 N.2       2 ALA2        0.0000 
@<TRIPOS>BOND
@<TRIPOS>SUBSTRUCTURE
     1 SER1        1 GROUP   
     2 ALA2        7 GROUP   
     3 ASP3       78 GROUP   
     4 LYS4       61 GROUP   
     5 PHE5        6 GROUP   
     6 GLY6       15 GROUP   
     7 CUB7        3 GROUP   
@<TRIPOS>SET

