#    Name: 3biu_10U_1_INTS_M
#    Modification time : Mon Mar 24 19:39:12 2014

@<TRIPOS>MOLECULE
3biu_10U_1_INTS_M
   59     0     9     0     0
SMALL
NO_CHARGES


@<TRIPOS>ATOM
      1 CA         21.2750  -14.5580   28.0190 C.3       3 GLC5        0.0000 
      2 CA         21.1260  -13.1580   26.4660 C.3       9 GLL5        0.0000 
      3 CA         21.4240  -15.9580   29.5720 C.3       6 GLP5        0.0000 
      4 CA         19.4035  -12.1495   26.7990 C.3       3 GLC5        0.0000 
      5 CA         17.6810  -11.1410   27.1320 C.3       6 GLP5        0.0000 
      6 CA         19.9710  -14.6115   28.0995 C.3       3 GLC5        0.0000 
      7 CA         19.8060  -13.9030   26.1290 C.3       9 GLL5        0.0000 
      8 CA         20.1360  -15.3200   30.0700 C.3       6 GLP5        0.0000 
      9 CA         17.9395  -11.1960   22.7295 C.3       3 GLC5        0.0000 
     10 CA         18.6150  -11.8260   20.8780 C.3       9 GLL5        0.0000 
     11 CA         17.2640  -10.5660   24.5810 C.3       6 GLP5        0.0000 
     12 CA         19.6230  -13.8500   18.4890 C.3       3 GLC5        0.0000 
     13 CA         20.6340  -12.4200   19.5840 C.3       9 GLL5        0.0000 
     14 CA         18.6120  -15.2800   17.3940 C.3       6 GLP5        0.0000 
     15 O          16.7320   -9.8075   21.3795 O.2       1 ALC1        0.0000 
     16 O          16.3320  -10.9540   20.4820 O.2       7 ALL1        0.0000 
     17 O          17.1320   -8.6610   22.2770 O.2       4 ALP1        0.0000 
     18 CA         10.6305  -13.0400   21.7930 C.3       3 GLC5        0.0000 
     19 CA         12.4790  -12.0520   22.4010 C.3       9 GLL5        0.0000 
     20 CA          8.7820  -14.0280   21.1850 C.3       6 GLP5        0.0000 
     21 OD1         9.2155  -10.4160   25.1440 O.co2     2 ASC3        0.0000 
     22 OD1        10.9010  -10.7760   23.8600 O.co2     8 ASL3        0.0000 
     23 OD1         8.1300   -9.2030   25.5000 O.co2     5 ASP3        0.0000 
     24 OD1         7.9690  -11.3730   25.8440 O.co2     5 ASP3        0.0000 
     25 O           9.2425  -11.6120   25.4215 O.2       1 ALC1        0.0000 
     26 O          10.5160  -11.8510   24.9990 O.2       7 ALL1        0.0000 
     27 O           7.9690  -11.3730   25.8440 O.2       4 ALP1        0.0000 
     28 O           9.2960   -9.3310   24.9720 O.2       1 ALC1        0.0000 
     29 O          10.4620   -9.4590   24.4440 O.2       7 ALL1        0.0000 
     30 O           8.1300   -9.2030   25.5000 O.2       4 ALP1        0.0000 
     31 O           9.2155  -10.4160   25.1440 O.2       1 ALC1        0.0000 
     32 CA         10.7125   -8.3605   22.1665 C.3       3 GLC5        0.0000 
     33 CA         12.5350   -9.6530   22.3420 C.3       9 GLL5        0.0000 
     34 CA          8.8900   -7.0680   21.9910 C.3       6 GLP5        0.0000 
     35 CA         18.4802  -13.1948   26.3720 C.3       3 GLC5        0.0000 
     36 CA         19.8130  -14.0620   24.5770 C.3       9 GLL5        0.0000 
     37 CA         17.1510  -12.4070   27.3910 C.3       6 GLP5        0.0000 
     38 CA         22.9160  -12.2253   26.7957 C.3       3 GLC5        0.0000 
     39 CA         24.3260  -11.3750   27.7930 C.3       6 GLP5        0.0000 
     40 CA         19.5139  -10.3114   18.9534 C.3       3 GLC5        0.0000 
     41 CA         19.1680   -8.6220   17.9540 C.3       6 GLP5        0.0000 
     42 CA         22.0880  -13.3770   20.0143 C.3       3 GLC5        0.0000 
     43 CA         23.5530  -13.9840   19.7520 C.3       6 GLP5        0.0000 
     44 CA         14.8092  -10.7455   22.6693 C.3       3 GLC5        0.0000 
     45 CA         13.9650  -10.9200   20.8970 C.3       9 GLL5        0.0000 
     46 CA         15.9110   -9.9860   24.1810 C.3       6 GLP5        0.0000 
     47 CA         14.0777  -10.7133   23.4098 C.3       3 GLC5        0.0000 
     48 CA         12.0100  -10.8290   22.8760 C.3       9 GLL5        0.0000 
     49 CA         13.0012  -11.9597   24.3513 C.3       3 GLC5        0.0000 
     50 CA         13.7580  -12.4790   26.0640 C.3       6 GLP5        0.0000 
     51 CA         10.6994  -10.7284   21.1686 C.3       3 GLC5        0.0000 
     52 CA          9.0090  -10.9100   19.8470 C.3       6 GLP5        0.0000 
     53 CA         12.7435   -7.8603   21.6575 C.3       3 GLC5        0.0000 
     54 CA         12.4690   -6.0410   21.4610 C.3       6 GLP5        0.0000 
     55 CA         14.4645   -9.8328   23.0175 C.3       3 GLC5        0.0000 
     56 CA         21.0079  -11.9896   24.2067 C.3       3 GLC5        0.0000 
     57 CA         20.9790  -10.3960   23.3100 C.3       6 GLP5        0.0000 
     58 CA         20.4166  -11.2859   21.8045 C.3       3 GLC5        0.0000 
     59 CA         20.6120  -13.1200   20.9690 C.3       9 GLL5        0.0000 
@<TRIPOS>BOND
@<TRIPOS>SUBSTRUCTURE
     1 ALC1       15 GROUP        1 X    ALC  0     ROOT ALC X 1
     2 ASC3       21 GROUP        1 X    ASC  0     **** ASC X 3
     3 GLC5        1 GROUP        1 X    GLC  0     **** GLC X 6
     4 ALP1       17 GROUP        1 Y    ALP  0     ROOT ALP Y 8
     5 ASP3       23 GROUP        1 Y    ASP  0     **** ASP Y 10
     6 GLP5        3 GROUP        1 Y    GLP  0     **** GLP Y 13
     7 ALL1       16 GROUP        1 Z    ALL  0     ROOT ALL Z 15
     8 ASL3       22 GROUP        1 Z    ASL  0     **** ASL Z 17
     9 GLL5        2 GROUP        1 Z    GLL  0     **** GLL Z 20
@<TRIPOS>SET

