#    Name: 3biu_10U_1_ligand
#    Modification time : Mon Mar 24 19:39:12 2014

@<TRIPOS>MOLECULE
3biu_10U_1_ligand
   55    57     1     0     0
SMALL
NO_CHARGES


@<TRIPOS>ATOM
      1 C14        18.5760  -13.9820   22.1580 C.2       1 10U999      0.0000 
      2 O32        17.6140  -13.5260   22.7700 O.2       1 10U999      0.0000 
      3 C15        19.4370  -15.0990   22.7050 C.3       1 10U999      0.0000 
      4 N16        19.0730  -15.2460   24.1000 N.4       1 10U999      0.0000 
      5 C17        19.8130  -14.0620   24.5770 C.3       1 10U999      0.0000 
      6 C21        21.3220  -14.1200   24.2400 C.3       1 10U999      0.0000 
      7 C20        21.8860  -12.9930   25.1310 C.3       1 10U999      0.0000 
      8 C19        21.1260  -13.1580   26.4660 C.3       1 10U999      0.0000 
      9 C18        19.8060  -13.9030   26.1290 C.3       1 10U999      0.0000 
     10 N1         19.1740  -13.1100   21.3090 N.am      1 10U999      0.0000 
     11 C2         18.6150  -11.8260   20.8780 C.3       1 10U999      0.0000 
     12 C7         17.1980  -11.9890   20.3490 C.2       1 10U999      0.0000 
     13 O22        16.7870  -13.1260   20.1550 O.2       1 10U999      0.0000 
     14 C3         19.5560  -11.3370   19.7650 C.3       1 10U999      0.0000 
     15 C4         20.6340  -12.4200   19.5840 C.3       1 10U999      0.0000 
     16 C5         20.6120  -13.1200   20.9690 C.3       1 10U999      0.0000 
     17 N23        16.3320  -10.9540   20.4820 N.am      1 10U999      0.0000 
     18 C24        15.0280  -10.9560   19.8190 C.3       1 10U999      0.0000 
     19 C25        13.9650  -10.9200   20.8970 C.ar      1 10U999      0.0000 
     20 C30        13.4500  -12.0900   21.4180 C.ar      1 10U999      0.0000 
     21 C29        12.4790  -12.0520   22.4010 C.ar      1 10U999      0.0000 
     22 C28        12.0100  -10.8290   22.8760 C.ar      1 10U999      0.0000 
     23 C31        10.9010  -10.7760   23.8600 C.cat     1 10U999      0.0000 
     24 N49        10.5160  -11.8510   24.9990 N.pl3     1 10U999      0.0000 
     25 N48        10.4620   -9.4590   24.4440 N.pl3     1 10U999      0.0000 
     26 C27        12.5350   -9.6530   22.3420 C.ar      1 10U999      0.0000 
     27 C26        13.5010   -9.7060   21.3660 C.ar      1 10U999      0.0000 
     28 H          20.4763  -14.8228   22.5959 H         1 10U999      0.0000 
     29 H          19.2320  -16.0018   22.1470 H         1 10U999      0.0000 
     30 H          19.4325  -13.1444   24.1667 H         1 10U999      0.0000 
     31 H          21.4670  -13.8803   23.2296 H         1 10U999      0.0000 
     32 H          21.7157  -15.0433   24.5433 H         1 10U999      0.0000 
     33 H          21.6550  -12.0534   24.7051 H         1 10U999      0.0000 
     34 H          22.9196  -13.1484   25.2897 H         1 10U999      0.0000 
     35 H          20.8959  -12.1980   26.8675 H         1 10U999      0.0000 
     36 H          21.7044  -13.7519   27.1357 H         1 10U999      0.0000 
     37 H          19.8142  -14.8616   26.5791 H         1 10U999      0.0000 
     38 H          18.9787  -13.3075   26.4162 H         1 10U999      0.0000 
     39 H          18.6392  -11.1194   21.6693 H         1 10U999      0.0000 
     40 H          20.0184  -10.4196   20.0645 H         1 10U999      0.0000 
     41 H          19.0056  -11.2255   18.8542 H         1 10U999      0.0000 
     42 H          21.5701  -11.9725   19.4338 H         1 10U999      0.0000 
     43 H          20.3376  -13.1008   18.8440 H         1 10U999      0.0000 
     44 H          20.9770  -14.1069   20.8522 H         1 10U999      0.0000 
     45 H          21.1763  -12.5368   21.6489 H         1 10U999      0.0000 
     46 H          16.5559  -10.1228   21.0555 H         1 10U999      0.0000 
     47 H          14.8958  -11.8547   19.2265 H         1 10U999      0.0000 
     48 H          14.9140  -10.0833   19.1853 H         1 10U999      0.0000 
     49 H          13.7928  -13.0024   21.0707 H         1 10U999      0.0000 
     50 H          12.0976  -12.9282   22.7870 H         1 10U999      0.0000 
     51 H           9.7277   -9.5010   25.1215 H         1 10U999      0.0000 
     52 H          10.9398   -8.6474   24.1077 H         1 10U999      0.0000 
     53 H          12.1908   -8.7430   22.6871 H         1 10U999      0.0000 
     54 H          13.8883   -8.8264   20.9749 H         1 10U999      0.0000 
     55 H           9.5949  -11.5969   25.2938 H         1 10U999      0.0000 
@<TRIPOS>BOND
     1    2    1 2    
     2    3    1 1    
     3   10    1 am   
     4    4    3 1    
     5   28    3 1    
     6   29    3 1    
     7    5    4 1    
     8    6    5 1    
     9    9    5 1    
    10   30    5 1    
    11    7    6 1    
    12   31    6 1    
    13   32    6 1    
    14    8    7 1    
    15   33    7 1    
    16   34    7 1    
    17    9    8 1    
    18   35    8 1    
    19   36    8 1    
    20   37    9 1    
    21   38    9 1    
    22   11   10 1    
    23   16   10 1    
    24   12   11 1    
    25   14   11 1    
    26   39   11 1    
    27   13   12 2    
    28   17   12 am   
    29   15   14 1    
    30   40   14 1    
    31   41   14 1    
    32   16   15 1    
    33   42   15 1    
    34   43   15 1    
    35   44   16 1    
    36   45   16 1    
    37   18   17 1    
    38   46   17 1    
    39   19   18 1    
    40   47   18 1    
    41   48   18 1    
    42   20   19 ar   
    43   27   19 ar   
    44   21   20 ar   
    45   49   20 1    
    46   22   21 ar   
    47   50   21 1    
    48   23   22 ar   
    49   26   22 ar   
    50   24   23 ar   
    51   25   23 ar   
    52   55   24 1    
    53   51   25 1    
    54   52   25 1    
    55   27   26 ar   
    56   53   26 1    
    57   54   27 1    
@<TRIPOS>SUBSTRUCTURE
     1 10U999      1 GROUP   
@<TRIPOS>SET

