#    Name: 3vva_CHW_3_INTS_M
#    Modification time : Tue Mar 25 01:38:49 2014

@<TRIPOS>MOLECULE
3vva_CHW_3_INTS_M
   77     0     9     0     0
SMALL
NO_CHARGES


@<TRIPOS>ATOM
      1 N         -65.3555   45.3775   18.0715 N.am      2 SEC2        0.0000 
      2 N         -63.8240   45.1550   18.5270 N.am      8 SEL2        0.0000 
      3 N         -66.8870   45.6000   17.6160 N.am      5 SEP2        0.0000 
      4 N         -64.9590   44.6600   18.8770 N.am      2 SEC2        0.0000 
      5 N         -66.0940   44.1650   19.2270 N.am      5 SEP2        0.0000 
      6 O         -63.4910   44.3895   17.6090 O.2       1 ALC1        0.0000 
      7 O         -63.8240   45.1550   18.5270 O.2       7 ALL1        0.0000 
      8 O         -63.1580   43.6240   16.6910 O.2       4 ALP1        0.0000 
      9 CA        -64.1935   43.6455   24.7200 C.3       3 GLC5        0.0000 
     10 CA        -63.4770   45.3960   24.4900 C.3       9 GLL5        0.0000 
     11 CA        -64.9100   41.8950   24.9500 C.3       6 GLP5        0.0000 
     12 CA        -66.0610   45.9640   24.9795 C.3       3 GLC5        0.0000 
     13 CA        -64.1130   46.5360   24.9880 C.3       9 GLL5        0.0000 
     14 CA        -68.0090   45.3920   24.9710 C.3       6 GLP5        0.0000 
     15 CA        -61.2130   47.0325   25.3045 C.3       3 GLC5        0.0000 
     16 CA        -63.3200   47.3930   25.7560 C.3       9 GLL5        0.0000 
     17 CA        -59.1060   46.6720   24.8530 C.3       6 GLP5        0.0000 
     18 CA        -67.0500   48.3830   25.3910 C.3       3 GLC5        0.0000 
     19 CA        -65.1920   49.0770   26.3390 C.3       9 GLL5        0.0000 
     20 CA        -68.9080   47.6890   24.4430 C.3       6 GLP5        0.0000 
     21 N         -65.6230   46.6485   17.3090 N.am      2 SEC2        0.0000 
     22 N         -64.3590   47.6970   17.0020 N.am      8 SEL2        0.0000 
     23 CA        -60.2525   44.3470   20.6035 C.3       3 GLC5        0.0000 
     24 CA        -60.9550   46.3420   20.4500 C.3       9 GLL5        0.0000 
     25 CA        -59.5500   42.3520   20.7570 C.3       6 GLP5        0.0000 
     26 O         -58.9835   45.8510   21.2305 O.2       1 ALC1        0.0000 
     27 O         -60.2250   46.0530   21.5710 O.2       7 ALL1        0.0000 
     28 O         -57.7420   45.6490   20.8900 O.2       4 ALP1        0.0000 
     29 CA        -66.6385   45.7805   22.4715 C.3       3 GLC5        0.0000 
     30 CA        -65.0310   45.2860   22.3200 C.3       9 GLL5        0.0000 
     31 CA        -68.2460   46.2750   22.6230 C.3       6 GLP5        0.0000 
     32 CA        -61.8855   51.2465   26.3050 C.3       3 GLC5        0.0000 
     33 CA        -62.6710   49.3710   27.1750 C.3       9 GLL5        0.0000 
     34 CA        -61.1000   53.1220   25.4350 C.3       6 GLP5        0.0000 
     35 CA        -61.6950   50.5180   28.3260 C.3       3 GLC5        0.0000 
     36 CA        -60.7190   51.6650   29.4770 C.3       6 GLP5        0.0000 
     37 CA        -64.2965   52.2450   25.2510 C.3       3 GLC5        0.0000 
     38 CA        -65.2530   50.3360   25.4810 C.3       9 GLL5        0.0000 
     39 CA        -63.3400   54.1540   25.0210 C.3       6 GLP5        0.0000 
     40 CA        -58.8385   47.2885   18.6565 C.3       3 GLC5        0.0000 
     41 CA        -59.2280   48.3950   20.2050 C.3       9 GLL5        0.0000 
     42 CA        -58.4490   46.1820   17.1080 C.3       6 GLP5        0.0000 
     43 CA        -62.5585   49.7515   18.8515 C.3       3 GLC5        0.0000 
     44 CA        -60.9270   49.0030   17.6810 C.3       9 GLL5        0.0000 
     45 CA        -64.1900   50.5000   20.0220 C.3       6 GLP5        0.0000 
     46 CA        -60.6570   48.7255   15.6940 C.3       3 GLC5        0.0000 
     47 CA        -60.3870   48.4480   13.7070 C.3       6 GLP5        0.0000 
     48 CA        -63.7410   46.9117   19.7548 C.3       3 GLC5        0.0000 
     49 CA        -62.7550   45.8960   18.9260 C.3       9 GLL5        0.0000 
     50 CA        -65.0800   48.1040   20.0040 C.3       6 GLP5        0.0000 
     51 CA        -62.8338   45.2430   16.9320 C.3       3 GLC5        0.0000 
     52 CA        -63.0940   44.0380   15.3200 C.3       6 GLP5        0.0000 
     53 CA        -63.3637   43.0470   22.0712 C.3       3 GLC5        0.0000 
     54 CA        -62.4730   44.3190   20.9150 C.3       9 GLL5        0.0000 
     55 CA        -64.2070   41.6080   22.5510 C.3       6 GLP5        0.0000 
     56 CA        -60.9822   43.5720   21.0705 C.3       3 GLC5        0.0000 
     57 CA        -62.5680   44.6530   22.2680 C.3       9 GLL5        0.0000 
     58 CA        -64.2775   43.4060   22.6035 C.3       3 GLC5        0.0000 
     59 CA        -63.6650   45.1220   22.9920 C.3       9 GLL5        0.0000 
     60 CA        -64.7140   46.6540   21.3300 C.3       3 GLC5        0.0000 
     61 CA        -63.4025   45.0855   26.4060 C.3       3 GLC5        0.0000 
     62 CA        -63.0100   44.2050   28.0730 C.3       6 GLP5        0.0000 
     63 CA        -64.3762   48.1597   23.7495 C.3       3 GLC5        0.0000 
     64 CA        -65.0360   49.3550   22.1270 C.3       6 GLP5        0.0000 
     65 CA        -66.4723   50.9742   25.2225 C.3       3 GLC5        0.0000 
     66 CA        -67.7220   52.2420   24.5350 C.3       6 GLP5        0.0000 
     67 CA        -65.1292   49.5307   24.0185 C.3       3 GLC5        0.0000 
     68 CA        -63.4650   47.7488   19.1770 C.3       3 GLC5        0.0000 
     69 CA        -61.3080   47.7870   18.5380 C.3       9 GLL5        0.0000 
     70 CA        -60.7670   45.5979   17.9074 C.3       3 GLC5        0.0000 
     71 CA        -62.3920   47.0000   18.1620 C.3       9 GLL5        0.0000 
     72 CA        -59.1370   44.8360   16.9810 C.3       6 GLP5        0.0000 
     73 CA        -59.6105   46.5395   18.5892 C.3       3 GLC5        0.0000 
     74 CA        -60.5890   47.4520   19.6910 C.3       9 GLL5        0.0000 
     75 CA        -62.9391   47.1415   27.9086 C.3       3 GLC5        0.0000 
     76 CA        -62.7800   45.6070   29.1910 C.3       6 GLP5        0.0000 
     77 CA        -59.7833   47.2885   17.6088 C.3       3 GLC5        0.0000 
@<TRIPOS>BOND
@<TRIPOS>SUBSTRUCTURE
     1 ALC1        6 GROUP        1 X    ALC  0     ROOT ALC X 1
     2 SEC2        1 GROUP        1 X    SEC  0     **** SEC X 2
     3 GLC5        9 GROUP        1 X    GLC  0     **** GLC X 6
     4 ALP1        8 GROUP        1 Y    ALP  0     ROOT ALP Y 8
     5 SEP2        3 GROUP        1 Y    SEP  0     **** SEP Y 9
     6 GLP5       11 GROUP        1 Y    GLP  0     **** GLP Y 13
     7 ALL1        7 GROUP        1 Z    ALL  0     ROOT ALL Z 15
     8 SEL2        2 GROUP        1 Z    SEL  0     **** SEL Z 16
     9 GLL5       10 GROUP        1 Z    GLL  0     **** GLL Z 20
@<TRIPOS>SET

