#    Name: 3vva_CHW_3_ligand
#    Modification time : Tue Mar 25 01:38:49 2014

@<TRIPOS>MOLECULE
3vva_CHW_3_ligand
   49    49     1     0     0
SMALL
NO_CHARGES


@<TRIPOS>ATOM
      1 OAA       -63.8240   45.1550   18.5270 O.3       1 CHW504      0.0000 
      2 CAB       -62.7550   45.8960   18.9260 C.ar      1 CHW504      0.0000 
      3 CAC       -62.0490   45.5430   20.0850 C.ar      1 CHW504      0.0000 
      4 CAD       -62.4730   44.3190   20.9150 C.3       1 CHW504      0.0000 
      5 CAE       -62.5680   44.6530   22.2680 C.2       1 CHW504      0.0000 
      6 CAF       -63.6650   45.1220   22.9920 C.2       1 CHW504      0.0000 
      7 CAG       -63.4770   45.3960   24.4900 C.3       1 CHW504      0.0000 
      8 CAH       -64.1130   46.5360   24.9880 C.3       1 CHW504      0.0000 
      9 CAI       -63.3200   47.3930   25.7560 C.2       1 CHW504      0.0000 
     10 CAJ       -63.7310   48.5690   26.3990 C.2       1 CHW504      0.0000 
     11 CAK       -65.1920   49.0770   26.3390 C.3       1 CHW504      0.0000 
     12 OAL       -65.6900   49.3600   27.6560 O.3       1 CHW504      0.0000 
     13 OAM       -64.3590   47.6970   17.0020 O.2       1 CHW504      0.0000 
     14 CAN       -63.1850   47.3540   16.9140 C.2       1 CHW504      0.0000 
     15 CAO       -62.3920   47.0000   18.1620 C.ar      1 CHW504      0.0000 
     16 CAP       -60.9550   46.3420   20.4500 C.ar      1 CHW504      0.0000 
     17 OAQ       -60.2250   46.0530   21.5710 O.3       1 CHW504      0.0000 
     18 CAR       -65.0310   45.2860   22.3200 C.3       1 CHW504      0.0000 
     19 CAS       -62.6710   49.3710   27.1750 C.3       1 CHW504      0.0000 
     20 CAT       -65.2530   50.3360   25.4810 C.3       1 CHW504      0.0000 
     21 CAU       -61.3080   47.7870   18.5380 C.ar      1 CHW504      0.0000 
     22 CAV       -60.5890   47.4520   19.6910 C.ar      1 CHW504      0.0000 
     23 CLAW      -59.2280   48.3950   20.2050 Cl        1 CHW504      0.0000 
     24 CAX       -60.9270   49.0030   17.6810 C.3       1 CHW504      0.0000 
     25 H         -61.7277   43.5289   20.7250 H         1 CHW504      0.0000 
     26 H         -63.4302   43.9647   20.4978 H         1 CHW504      0.0000 
     27 H         -61.6459   44.5283   22.8450 H         1 CHW504      0.0000 
     28 H         -62.3657   45.4261   24.6700 H         1 CHW504      0.0000 
     29 H         -63.8103   44.4641   25.0273 H         1 CHW504      0.0000 
     30 H         -65.0311   46.2274   25.5889 H         1 CHW504      0.0000 
     31 H         -64.5781   47.1191   24.1261 H         1 CHW504      0.0000 
     32 H         -62.2857   47.1235   25.8663 H         1 CHW504      0.0000 
     33 H         -65.7827   48.3128   25.8524 H         1 CHW504      0.0000 
     34 H         -62.6120   47.2639   16.0448 H         1 CHW504      0.0000 
     35 H         -64.9944   45.9311   21.5568 H         1 CHW504      0.0000 
     36 H         -65.3719   44.4195   21.9553 H         1 CHW504      0.0000 
     37 H         -65.7207   45.6267   22.9589 H         1 CHW504      0.0000 
     38 H         -62.2618   48.8311   27.9106 H         1 CHW504      0.0000 
     39 H         -61.9243   49.6712   26.5814 H         1 CHW504      0.0000 
     40 H         -63.0596   50.1912   27.5948 H         1 CHW504      0.0000 
     41 H         -64.6773   51.0655   25.8504 H         1 CHW504      0.0000 
     42 H         -64.9435   50.1635   24.5459 H         1 CHW504      0.0000 
     43 H         -66.1828   50.6990   25.4197 H         1 CHW504      0.0000 
     44 H         -60.1359   49.4874   18.0545 H         1 CHW504      0.0000 
     45 H         -60.6940   48.7393   16.7449 H         1 CHW504      0.0000 
     46 H         -61.6746   49.6645   17.6217 H         1 CHW504      0.0000 
     47 H         -63.5285   44.7085   17.6824 H         1 CHW504      0.0000 
     48 H         -65.1126   49.9374   28.2334 H         1 CHW504      0.0000 
     49 H         -59.2959   46.3569   21.3601 H         1 CHW504      0.0000 
@<TRIPOS>BOND
     1    2    1 1    
     2   47    1 1    
     3    3    2 ar   
     4   15    2 ar   
     5    4    3 1    
     6   16    3 ar   
     7    5    4 1    
     8   25    4 1    
     9   26    4 1    
    10    6    5 2    
    11   27    5 1    
    12    7    6 1    
    13   18    6 1    
    14    8    7 1    
    15   28    7 1    
    16   29    7 1    
    17    9    8 1    
    18   30    8 1    
    19   31    8 1    
    20   10    9 2    
    21   32    9 1    
    22   11   10 1    
    23   19   10 1    
    24   12   11 1    
    25   20   11 1    
    26   33   11 1    
    27   48   12 1    
    28   14   13 2    
    29   15   14 1    
    30   34   14 1    
    31   21   15 ar   
    32   17   16 1    
    33   22   16 ar   
    34   49   17 1    
    35   35   18 1    
    36   36   18 1    
    37   37   18 1    
    38   38   19 1    
    39   39   19 1    
    40   40   19 1    
    41   41   20 1    
    42   42   20 1    
    43   43   20 1    
    44   22   21 ar   
    45   24   21 1    
    46   23   22 1    
    47   44   24 1    
    48   45   24 1    
    49   46   24 1    
@<TRIPOS>SUBSTRUCTURE
     1 CHW504      1 GROUP   
@<TRIPOS>SET

