#    Name: 1aj2_2PH_1_INTS_M
#    Modification time : Mon Mar 24 18:26:50 2014

@<TRIPOS>MOLECULE
1aj2_2PH_1_INTS_M
   56     0    12     0     0
SMALL
NO_CHARGES


@<TRIPOS>ATOM
      1 N          40.6290    3.0140    5.3125 N.am      2 SEC2        0.0000 
      2 N          41.3480    3.4140    6.7740 N.am     10 SEL2        0.0000 
      3 N          39.9100    2.6140    3.8510 N.am      6 SEP2        0.0000 
      4 CA         43.6440    3.2890    9.0125 C.3       4 GLC5        0.0000 
      5 CA         42.6320    4.9630    8.2010 C.3      12 GLL5        0.0000 
      6 CA         44.6560    1.6150    9.8240 C.3       8 GLP5        0.0000 
      7 O          42.6645    4.3265   10.7415 O.2       1 ALC1        0.0000 
      8 O          42.3410    4.0470    9.2700 O.2       9 ALL1        0.0000 
      9 O          42.9880    4.6060   12.2130 O.2       5 ALP1        0.0000 
     10 N          41.0420    2.0445   11.8310 N.am      2 SEC2        0.0000 
     11 N          41.3560    1.9750   10.1770 N.am     10 SEL2        0.0000 
     12 N          40.7280    2.1140   13.4850 N.am      6 SEP2        0.0000 
     13 O          41.1485    0.0375   12.1105 O.2       1 ALC1        0.0000 
     14 O          40.5370   -0.0980   10.9010 O.2       9 ALL1        0.0000 
     15 O          41.7600    0.1730   13.3200 O.2       5 ALP1        0.0000 
     16 O          40.0030   -1.0945   10.0445 O.2       1 ALC1        0.0000 
     17 O          39.4690   -2.0910    9.1880 O.2       5 ALP1        0.0000 
     18 O          39.9125   -0.8145    8.8970 O.2       1 ALC1        0.0000 
     19 O          40.3560    0.4620    8.6060 O.2       9 ALL1        0.0000 
     20 CA         42.3885    0.7140    7.7030 C.3       4 GLC5        0.0000 
     21 CA         41.1470    2.5250    7.8080 C.3      12 GLL5        0.0000 
     22 CA         43.6300   -1.0970    7.5980 C.3       8 GLP5        0.0000 
     23 CA         43.2130    3.9310    5.5365 C.3       4 GLC5        0.0000 
     24 CA         42.1240    5.4530    5.8120 C.3      12 GLL5        0.0000 
     25 CA         44.3020    2.4090    5.2610 C.3       8 GLP5        0.0000 
     26 CA         41.1255    4.5715    4.3345 C.3       4 GLC5        0.0000 
     27 CA         40.1270    3.6900    2.8570 C.3       8 GLP5        0.0000 
     28 N          45.7930    8.5585    6.2645 N.am      2 SEC2        0.0000 
     29 N          44.3590    8.5690    6.0270 N.am     10 SEL2        0.0000 
     30 N          47.2270    8.5480    6.5020 N.am      6 SEP2        0.0000 
     31 N          45.1130    7.2950    6.3955 N.am      2 SEC2        0.0000 
     32 N          45.8670    6.0210    6.7640 N.am      6 SEP2        0.0000 
     33 NZ         40.9810   11.0670    5.1245 N.4       3 LYC4        0.0000 
     34 NZ         39.9510   10.1400    6.2650 N.4      11 LYL4        0.0000 
     35 NZ         42.0110   11.9940    3.9840 N.4       7 LYP4        0.0000 
     36 N          40.7575   10.8545    7.6275 N.am      2 SEC2        0.0000 
     37 N          39.9510   10.1400    6.2650 N.am     10 SEL2        0.0000 
     38 N          41.5640   11.5690    8.9900 N.am      6 SEP2        0.0000 
     39 N          38.5575   10.1975    6.1345 N.am      2 SEC2        0.0000 
     40 N          37.1640   10.2550    6.0040 N.am      6 SEP2        0.0000 
     41 NZ         40.4710    7.7800    9.0790 N.4       3 LYC4        0.0000 
     42 NZ         40.7600    8.8790    8.0940 N.4      11 LYL4        0.0000 
     43 NZ         39.3930    5.7320    9.5980 N.4       7 LYP4        0.0000 
     44 N          41.1620   10.2240    8.5420 N.am      2 SEC2        0.0000 
     45 N          40.7600    8.8790    8.0940 N.am     10 SEL2        0.0000 
     46 N          40.4710    7.7800    9.0790 N.am      2 SEC2        0.0000 
     47 N          40.1820    6.6810   10.0640 N.am      6 SEP2        0.0000 
     48 NZ         39.3185    6.6905    7.3195 N.4       3 LYC4        0.0000 
     49 NZ         39.5510    7.7330    6.3270 N.4      11 LYL4        0.0000 
     50 N          39.3185    6.6905    7.3195 N.am      2 SEC2        0.0000 
     51 N          39.5510    7.7330    6.3270 N.am     10 SEL2        0.0000 
     52 N          39.0860    5.6480    8.3120 N.am      6 SEP2        0.0000 
     53 CA         43.0125    2.1500    9.1520 C.3       4 GLC5        0.0000 
     54 CA         39.6640    3.2460    9.3490 C.3       4 GLC5        0.0000 
     55 CA         41.5910    2.8450    9.1520 C.3      12 GLL5        0.0000 
     56 CA         37.9590    3.8070   10.2180 C.3       8 GLP5        0.0000 
@<TRIPOS>BOND
@<TRIPOS>SUBSTRUCTURE
     1 ALC1        7 GROUP        1 X    ALC  0     ROOT ALC X 1
     2 SEC2        1 GROUP        1 X    SEC  0     **** SEC X 2
     3 LYC4       33 GROUP        1 X    LYC  0     **** LYC X 4
     4 GLC5        4 GROUP        1 X    GLC  0     **** GLC X 6
     5 ALP1        9 GROUP        1 Y    ALP  0     ROOT ALP Y 8
     6 SEP2        3 GROUP        1 Y    SEP  0     **** SEP Y 9
     7 LYP4       35 GROUP        1 Y    LYP  0     **** LYP Y 11
     8 GLP5        6 GROUP        1 Y    GLP  0     **** GLP Y 13
     9 ALL1        8 GROUP        1 Z    ALL  0     ROOT ALL Z 15
    10 SEL2        2 GROUP        1 Z    SEL  0     **** SEL Z 16
    11 LYL4       34 GROUP        1 Z    LYL  0     **** LYL Z 18
    12 GLL5        5 GROUP        1 Z    GLL  0     **** GLL Z 20
@<TRIPOS>SET

