#    Name: 1aj2_2PH_1_ligand
#    Modification time : Mon Mar 24 18:26:50 2014

@<TRIPOS>MOLECULE
1aj2_2PH_1_ligand
   30    31     1     0     0
SMALL
NO_CHARGES


@<TRIPOS>ATOM
      1 N1         41.3480    3.4140    6.7740 N.2       1 2PH283      0.0000 
      2 C2         42.0050    4.5320    6.9410 C.2       1 2PH283      0.0000 
      3 C3         42.6320    4.9630    8.2010 C.3       1 2PH283      0.0000 
      4 N4         42.3410    4.0470    9.2700 N.pl3     1 2PH283      0.0000 
      5 N5         41.3560    1.9750   10.1770 N.2       1 2PH283      0.0000 
      6 C6         40.7760    0.8070    9.9050 C.2       1 2PH283      0.0000 
      7 N6         40.5370   -0.0980   10.9010 N.pl3     1 2PH283      0.0000 
      8 N7         40.3560    0.4620    8.6060 N.am      1 2PH283      0.0000 
      9 C8         40.5790    1.3000    7.5250 C.2       1 2PH283      0.0000 
     10 O8         40.3440    0.9330    6.3660 O.2       1 2PH283      0.0000 
     11 C9         41.1470    2.5250    7.8080 C.2       1 2PH283      0.0000 
     12 C10        41.5910    2.8450    9.1520 C.2       1 2PH283      0.0000 
     13 C11        42.1240    5.4530    5.8120 C.3       1 2PH283      0.0000 
     14 O4         43.0430    6.4830    6.2050 O.3       1 2PH283      0.0000 
     15 P1         43.1700    7.8600    5.4350 P.3       1 2PH283      0.0000 
     16 O1P        44.3590    8.5690    6.0270 O.co2     1 2PH283      0.0000 
     17 O2P        43.0870    7.5320    3.9880 O.co2     1 2PH283      0.0000 
     18 O3P        41.8700    8.6030    5.8890 O.3       1 2PH283      0.0000 
     19 P2         40.5240    8.8240    6.5760 P.3       1 2PH283      0.0000 
     20 O4P        39.9510   10.1400    6.2650 O.co2     1 2PH283      0.0000 
     21 O5P        40.7600    8.8790    8.0940 O.co2     1 2PH283      0.0000 
     22 O6P        39.5510    7.7330    6.3270 O.co2     1 2PH283      0.0000 
     23 H          42.2739    5.9797    8.4542 H         1 2PH283      0.0000 
     24 H          43.7257    5.0474    8.0506 H         1 2PH283      0.0000 
     25 H          42.7206    4.2942   10.2251 H         1 2PH283      0.0000 
     26 H          40.1226   -0.9634   10.6191 H         1 2PH283      0.0000 
     27 H          40.7975    0.1847   11.8241 H         1 2PH283      0.0000 
     28 H          39.8690   -0.4428    8.4648 H         1 2PH283      0.0000 
     29 H          41.1460    5.8748    5.5754 H         1 2PH283      0.0000 
     30 H          42.4928    4.9171    4.9361 H         1 2PH283      0.0000 
@<TRIPOS>BOND
     1    2    1 2    
     2   11    1 1    
     3    3    2 1    
     4   13    2 1    
     5    4    3 1    
     6   23    3 1    
     7   24    3 1    
     8   12    4 1    
     9   25    4 1    
    10    6    5 2    
    11   12    5 1    
    12    7    6 1    
    13    8    6 1    
    14   26    7 1    
    15   27    7 1    
    16    9    8 am   
    17   28    8 1    
    18   10    9 2    
    19   11    9 1    
    20   12   11 2    
    21   14   13 1    
    22   29   13 1    
    23   30   13 1    
    24   15   14 1    
    25   16   15 ar   
    26   17   15 ar   
    27   18   15 1    
    28   19   18 1    
    29   20   19 ar   
    30   21   19 ar   
    31   22   19 ar   
@<TRIPOS>SUBSTRUCTURE
     1 2PH283      1 GROUP   
@<TRIPOS>SET

