#    Name: 3f0g_C5P_2_INTS_M
#    Modification time : Tue Mar 25 03:00:33 2014

@<TRIPOS>MOLECULE
3f0g_C5P_2_INTS_M
   42     0    12     0     0
SMALL
NO_CHARGES


@<TRIPOS>ATOM
      1 N          11.4845  -12.1065  -24.3475 N.am      2 SEC2        0.0000 
      2 N          12.3620  -13.0600  -23.3920 N.am     10 SEL2        0.0000 
      3 N          10.6070  -11.1530  -25.3030 N.am      6 SEP2        0.0000 
      4 NZ         13.4730  -14.8070  -26.4165 N.4       3 LYC4        0.0000 
      5 NZ         11.8880  -14.0910  -25.6460 N.4      11 LYL4        0.0000 
      6 NZ         15.0580  -15.5230  -27.1870 N.4       7 LYP4        0.0000 
      7 N          10.7735  -13.7835  -26.3035 N.am      2 SEC2        0.0000 
      8 N          11.8880  -14.0910  -25.6460 N.am     10 SEL2        0.0000 
      9 N           9.6590  -13.4760  -26.9610 N.am      6 SEP2        0.0000 
     10 N          11.2475  -12.6220  -25.4745 N.am      2 SEC2        0.0000 
     11 NZ         14.3895  -15.3005  -25.6310 N.4       3 LYC4        0.0000 
     12 NZ         13.7210  -15.0780  -24.0750 N.4      11 LYL4        0.0000 
     13 N          14.3895  -15.3005  -25.6310 N.am      2 SEC2        0.0000 
     14 N          13.7210  -15.0780  -24.0750 N.am     10 SEL2        0.0000 
     15 N          15.0580  -15.5230  -27.1870 N.am      6 SEP2        0.0000 
     16 N           9.7700  -21.0330  -24.6410 N.am      2 SEC2        0.0000 
     17 N           9.1780  -20.0760  -23.4380 N.am     10 SEL2        0.0000 
     18 N          10.3620  -21.9900  -25.8440 N.am      6 SEP2        0.0000 
     19 N           4.0255  -17.1470  -23.9025 N.am      2 SEC2        0.0000 
     20 N           5.1600  -16.3670  -24.0250 N.am     10 SEL2        0.0000 
     21 N           2.8910  -17.9270  -23.7800 N.am      6 SEP2        0.0000 
     22 N           4.2530  -17.9505  -23.1580 N.am      2 SEC2        0.0000 
     23 N           5.6150  -17.9740  -22.5360 N.am     10 SEL2        0.0000 
     24 N           4.8420  -19.1645  -22.8750 N.am      2 SEC2        0.0000 
     25 N           4.0690  -20.3550  -23.2140 N.am      6 SEP2        0.0000 
     26 O           5.1925  -13.7080  -26.3380 O.2       1 ALC1        0.0000 
     27 O           4.6610  -14.6870  -25.5730 O.2       9 ALL1        0.0000 
     28 O           5.7240  -12.7290  -27.1030 O.2       5 ALP1        0.0000 
     29 O           3.3295  -14.7270  -25.1310 O.2       1 ALC1        0.0000 
     30 O           1.9980  -14.7670  -24.6890 O.2       5 ALP1        0.0000 
     31 CA         12.3178  -18.6675  -22.5334 C.3       4 GLC5        0.0000 
     32 CA         10.6750  -17.4100  -22.3970 C.3      12 GLL5        0.0000 
     33 CA         13.7540  -19.8610  -22.0000 C.3       8 GLP5        0.0000 
     34 CA          8.0032  -18.7095  -25.1380 C.3       4 GLC5        0.0000 
     35 CA          9.2260  -18.6980  -23.8270 C.3      12 GLL5        0.0000 
     36 CA          7.1920  -19.1500  -26.9260 C.3       8 GLP5        0.0000 
     37 CA          7.2942  -17.4175  -25.8815 C.3       4 GLC5        0.0000 
     38 CA          7.8580  -16.0800  -24.4960 C.3      12 GLL5        0.0000 
     39 CA          8.7043  -15.6905  -26.3685 C.3       4 GLC5        0.0000 
     40 CA         10.0120  -15.6960  -27.9000 C.3       8 GLP5        0.0000 
     41 CA          7.9502  -13.8970  -24.7030 C.3       4 GLC5        0.0000 
     42 CA          8.5040  -12.1090  -24.5690 C.3       8 GLP5        0.0000 
@<TRIPOS>BOND
@<TRIPOS>SUBSTRUCTURE
     1 ALC1       26 GROUP        1 X    ALC  0     ROOT ALC X 1
     2 SEC2        1 GROUP        1 X    SEC  0     **** SEC X 2
     3 LYC4        4 GROUP        1 X    LYC  0     **** LYC X 4
     4 GLC5       31 GROUP        1 X    GLC  0     **** GLC X 6
     5 ALP1       28 GROUP        1 Y    ALP  0     ROOT ALP Y 8
     6 SEP2        3 GROUP        1 Y    SEP  0     **** SEP Y 9
     7 LYP4        6 GROUP        1 Y    LYP  0     **** LYP Y 11
     8 GLP5       33 GROUP        1 Y    GLP  0     **** GLP Y 13
     9 ALL1       27 GROUP        1 Z    ALL  0     ROOT ALL Z 15
    10 SEL2        2 GROUP        1 Z    SEL  0     **** SEL Z 16
    11 LYL4        5 GROUP        1 Z    LYL  0     **** LYL Z 18
    12 GLL5       32 GROUP        1 Z    GLL  0     **** GLL Z 20
@<TRIPOS>SET

