#    Name: 3f0g_C5P_2_ligand
#    Modification time : Tue Mar 25 03:00:33 2014

@<TRIPOS>MOLECULE
3f0g_C5P_2_ligand
   33    34     1     0     0
SMALL
NO_CHARGES


@<TRIPOS>ATOM
      1 O3P        12.3620  -13.0600  -23.3920 O.co2     1 C5P163      0.0000 
      2 P          12.3700  -14.4220  -24.2550 P.3       1 C5P163      0.0000 
      3 O1P        11.8880  -14.0910  -25.6460 O.co2     1 C5P163      0.0000 
      4 O2P        13.7210  -15.0780  -24.0750 O.co2     1 C5P163      0.0000 
      5 O5'        11.2460  -15.3160  -23.5160 O.3       1 C5P163      0.0000 
      6 C5'        11.5770  -16.1780  -22.4240 C.3       1 C5P163      0.0000 
      7 C4'        10.6750  -17.4100  -22.3970 C.3       1 C5P163      0.0000 
      8 O4'         9.3210  -17.0420  -22.1130 O.3       1 C5P163      0.0000 
      9 C3'        10.6370  -18.1540  -23.7230 C.3       1 C5P163      0.0000 
     10 O3'        11.6030  -19.2070  -23.7790 O.3       1 C5P163      0.0000 
     11 C2'         9.2260  -18.6980  -23.8270 C.3       1 C5P163      0.0000 
     12 O2'         9.1780  -20.0760  -23.4380 O.3       1 C5P163      0.0000 
     13 C1'         8.4030  -17.8400  -22.8730 C.3       1 C5P163      0.0000 
     14 N1          7.4390  -16.9950  -23.6020 N.am      1 C5P163      0.0000 
     15 C2          6.0480  -17.1390  -23.3600 C.2       1 C5P163      0.0000 
     16 N3          5.1600  -16.3670  -24.0250 N.2       1 C5P163      0.0000 
     17 C4          5.5750  -15.4480  -24.9240 C.2       1 C5P163      0.0000 
     18 C5          6.9350  -15.2900  -25.1780 C.2       1 C5P163      0.0000 
     19 C6          7.8580  -16.0800  -24.4960 C.2       1 C5P163      0.0000 
     20 O2          5.6150  -17.9740  -22.5360 O.2       1 C5P163      0.0000 
     21 N4          4.6610  -14.6870  -25.5730 N.pl3     1 C5P163      0.0000 
     22 H          11.4688  -15.6634  -21.4551 H         1 C5P163      0.0000 
     23 H          12.6201  -16.5289  -22.4873 H         1 C5P163      0.0000 
     24 H          11.0387  -18.0957  -21.6414 H         1 C5P163      0.0000 
     25 H          10.7677  -17.4312  -24.5093 H         1 C5P163      0.0000 
     26 H           8.8703  -18.5311  -24.8163 H         1 C5P163      0.0000 
     27 H           7.8685  -18.5186  -22.2118 H         1 C5P163      0.0000 
     28 H           7.2551  -14.5975  -25.8618 H         1 C5P163      0.0000 
     29 H           8.8678  -15.9464  -24.6929 H         1 C5P163      0.0000 
     30 H           3.7018  -14.8785  -25.3653 H         1 C5P163      0.0000 
     31 H           5.0266  -14.0012  -26.2023 H         1 C5P163      0.0000 
     32 H          11.1139  -20.0234  -23.4719 H         1 C5P163      0.0000 
     33 H           8.4098  -20.1383  -22.8009 H         1 C5P163      0.0000 
@<TRIPOS>BOND
     1    2    1 ar   
     2    3    2 ar   
     3    4    2 ar   
     4    5    2 1    
     5    6    5 1    
     6    7    6 1    
     7   22    6 1    
     8   23    6 1    
     9    8    7 1    
    10    9    7 1    
    11   24    7 1    
    12   13    8 1    
    13   10    9 1    
    14   11    9 1    
    15   25    9 1    
    16   32   10 1    
    17   12   11 1    
    18   13   11 1    
    19   26   11 1    
    20   33   12 1    
    21   14   13 1    
    22   27   13 1    
    23   15   14 am   
    24   19   14 1    
    25   16   15 1    
    26   20   15 2    
    27   17   16 2    
    28   18   17 1    
    29   21   17 1    
    30   19   18 2    
    31   28   18 1    
    32   29   19 1    
    33   30   21 1    
    34   31   21 1    
@<TRIPOS>SUBSTRUCTURE
     1 C5P163      1 GROUP   
@<TRIPOS>SET

