#    Name: 2wtj_WTJ_1_INTS_M
#    Modification time : Tue Mar 25 04:38:49 2014

@<TRIPOS>MOLECULE
2wtj_WTJ_1_INTS_M
   70     0    12     0     0
SMALL
NO_CHARGES


@<TRIPOS>ATOM
      1 CA          5.9585  -44.0850    3.3845 C.3       4 GLC5        0.0000 
      2 CA          7.0260  -45.6850    2.4090 C.3      12 GLL5        0.0000 
      3 CA          4.8910  -42.4850    4.3600 C.3       8 GLP5        0.0000 
      4 OD1        10.0785  -45.9785    2.2355 O.co2     3 ASC3        0.0000 
      5 OD1         8.3880  -46.1290    2.6880 O.co2    11 ASL3        0.0000 
      6 OD1        11.7690  -45.8280    1.7830 O.co2     7 ASP3        0.0000 
      7 OD1         9.3105  -45.2640    2.5730 O.co2     3 ASC3        0.0000 
      8 OD1        10.2330  -44.3990    2.4580 O.co2     7 ASP3        0.0000 
      9 O           9.3105  -45.2640    2.5730 O.2       1 ALC1        0.0000 
     10 O           8.3880  -46.1290    2.6880 O.2       9 ALL1        0.0000 
     11 O          10.2330  -44.3990    2.4580 O.2       5 ALP1        0.0000 
     12 CA          8.9315  -49.1105    2.9075 C.3       4 GLC5        0.0000 
     13 CA          8.7750  -47.2730    1.8720 C.3      12 GLL5        0.0000 
     14 CA          9.0880  -50.9480    3.9430 C.3       8 GLP5        0.0000 
     15 CA         10.4565  -47.9550    0.7475 C.3       4 GLC5        0.0000 
     16 CA         12.1380  -48.6370   -0.3770 C.3       8 GLP5        0.0000 
     17 CA          9.4010  -49.1225    4.2620 C.3       4 GLC5        0.0000 
     18 CA          9.7140  -47.2970    4.5810 C.3      12 GLL5        0.0000 
     19 CA         11.0670  -45.6990    4.8665 C.3       4 GLC5        0.0000 
     20 CA         12.4200  -44.1010    5.1520 C.3       8 GLP5        0.0000 
     21 CA          9.6475  -47.1265    8.6495 C.3       4 GLC5        0.0000 
     22 CA          9.3610  -49.1210    8.5570 C.3      12 GLL5        0.0000 
     23 CA          9.9340  -45.1320    8.7420 C.3       8 GLP5        0.0000 
     24 CA          6.2500  -47.3770    8.9925 C.3       4 GLC5        0.0000 
     25 CA          6.4910  -49.3460    9.7890 C.3      12 GLL5        0.0000 
     26 CA          6.0090  -45.4080    8.1960 C.3       8 GLP5        0.0000 
     27 CA          6.5765  -53.2970   12.3640 C.3       4 GLC5        0.0000 
     28 CA          6.4500  -51.9490   13.8600 C.3      12 GLL5        0.0000 
     29 CA          6.7030  -54.6450   10.8680 C.3       8 GLP5        0.0000 
     30 CA          9.7505  -52.1610   13.0565 C.3       4 GLC5        0.0000 
     31 CA          7.8780  -51.3670   14.0020 C.3      12 GLL5        0.0000 
     32 CA         11.6230  -52.9550   12.1110 C.3       8 GLP5        0.0000 
     33 CA          9.0825  -50.4545   15.0745 C.3       4 GLC5        0.0000 
     34 CA         10.2870  -49.5420   16.1470 C.3       8 GLP5        0.0000 
     35 CA          8.2325  -52.1790   10.7720 C.3       4 GLC5        0.0000 
     36 CA          7.6320  -50.4950   11.7590 C.3      12 GLL5        0.0000 
     37 CA          8.8330  -53.8630    9.7850 C.3       8 GLP5        0.0000 
     38 CA         11.6995  -51.3450    9.5955 C.3       4 GLC5        0.0000 
     39 CA         10.3560  -49.9310   10.6910 C.3      12 GLL5        0.0000 
     40 CA         13.0430  -52.7590    8.5000 C.3       8 GLP5        0.0000 
     41 CA         10.9895  -51.4430   11.4010 C.3       4 GLC5        0.0000 
     42 CA         11.4890  -49.0905   12.0720 C.3       4 GLC5        0.0000 
     43 CA         12.6220  -48.2500   13.4530 C.3       8 GLP5        0.0000 
     44 N          12.3500  -49.5635   11.4290 N.am      2 SEC2        0.0000 
     45 N          11.6600  -49.7320   10.1920 N.am     10 SEL2        0.0000 
     46 N          13.0400  -49.3950   12.6660 N.am      6 SEP2        0.0000 
     47 CA         12.4420  -50.9955    8.6930 C.3       4 GLC5        0.0000 
     48 CA         11.8410  -49.2320    8.8860 C.3      12 GLL5        0.0000 
     49 CA         12.1715  -48.1145   10.7315 C.3       4 GLC5        0.0000 
     50 CA         12.5020  -46.9970   12.5770 C.3       8 GLP5        0.0000 
     51 O          14.3055  -49.5835    9.2305 O.2       1 ALC1        0.0000 
     52 O          13.1890  -49.0670    8.3770 O.2       9 ALL1        0.0000 
     53 O          15.4220  -50.1000   10.0840 O.2       5 ALP1        0.0000 
     54 CA          9.9915  -50.6405    7.1010 C.3       4 GLC5        0.0000 
     55 CA         10.6690  -48.9110    8.0610 C.3      12 GLL5        0.0000 
     56 CA          9.9680  -52.2650    5.8930 C.3       8 GLP5        0.0000 
     57 CA         11.8115  -47.4017    8.5508 C.3       4 GLC5        0.0000 
     58 CA         12.3680  -45.7320    8.6280 C.3       8 GLP5        0.0000 
     59 CA          9.3018  -51.8200   10.0325 C.3       4 GLC5        0.0000 
     60 CA          7.8283  -48.2537   11.4075 C.3       4 GLC5        0.0000 
     61 CA          9.1850  -49.6230    9.8690 C.3      12 GLL5        0.0000 
     62 CA          7.1090  -46.7880   12.6720 C.3       8 GLP5        0.0000 
     63 CA          6.9002  -51.4160    9.4365 C.3       4 GLC5        0.0000 
     64 CA          7.9100  -49.8160   10.4170 C.3      12 GLL5        0.0000 
     65 CA          6.6000  -53.2510    8.7700 C.3       8 GLP5        0.0000 
     66 CA          6.5173  -48.1775   11.4832 C.3       4 GLC5        0.0000 
     67 CA          6.1493  -51.6957   10.0877 C.3       4 GLC5        0.0000 
     68 CA          5.3600  -49.7880   10.8000 C.3      12 GLL5        0.0000 
     69 CA          6.9718  -48.6410   12.2785 C.3       4 GLC5        0.0000 
     70 CA          6.0370  -50.4930   12.0110 C.3      12 GLL5        0.0000 
@<TRIPOS>BOND
@<TRIPOS>SUBSTRUCTURE
     1 ALC1        9 GROUP        1 X    ALC  0     ROOT ALC X 1
     2 SEC2       44 GROUP        1 X    SEC  0     **** SEC X 2
     3 ASC3        4 GROUP        1 X    ASC  0     **** ASC X 3
     4 GLC5        1 GROUP        1 X    GLC  0     **** GLC X 6
     5 ALP1       11 GROUP        1 Y    ALP  0     ROOT ALP Y 8
     6 SEP2       46 GROUP        1 Y    SEP  0     **** SEP Y 9
     7 ASP3        6 GROUP        1 Y    ASP  0     **** ASP Y 10
     8 GLP5        3 GROUP        1 Y    GLP  0     **** GLP Y 13
     9 ALL1       10 GROUP        1 Z    ALL  0     ROOT ALL Z 15
    10 SEL2       45 GROUP        1 Z    SEL  0     **** SEL Z 16
    11 ASL3        5 GROUP        1 Z    ASL  0     **** ASL Z 17
    12 GLL5        2 GROUP        1 Z    GLL  0     **** GLL Z 20
@<TRIPOS>SET

