#    Name: 2wtj_WTJ_1_ligand
#    Modification time : Tue Mar 25 04:38:50 2014

@<TRIPOS>MOLECULE
2wtj_WTJ_1_ligand
   45    47     1     0     0
SMALL
NO_CHARGES


@<TRIPOS>ATOM
      1 C01         7.0260  -45.6850    2.4090 C.3       1 WTJ1513     0.0000 
      2 N02         8.3880  -46.1290    2.6880 N.4       1 WTJ1513     0.0000 
      3 C03         8.7750  -47.2730    1.8720 C.3       1 WTJ1513     0.0000 
      4 C04         8.5430  -46.4040    4.1230 C.3       1 WTJ1513     0.0000 
      5 C05         9.7140  -47.2970    4.5810 C.3       1 WTJ1513     0.0000 
      6 N06         9.6430  -47.8140    5.9700 N.am      1 WTJ1513     0.0000 
      7 C07        10.8430  -48.3270    6.6400 C.2       1 WTJ1513     0.0000 
      8 O08        11.9160  -48.2500    6.1310 O.2       1 WTJ1513     0.0000 
      9 C09        10.6690  -48.9110    8.0610 C.ar      1 WTJ1513     0.0000 
     10 C10         9.3610  -49.1210    8.5570 C.ar      1 WTJ1513     0.0000 
     11 C11         9.1850  -49.6230    9.8690 C.ar      1 WTJ1513     0.0000 
     12 C12         7.9100  -49.8160   10.4170 C.2       1 WTJ1513     0.0000 
     13 S13         6.4910  -49.3460    9.7890 S.3       1 WTJ1513     0.0000 
     14 C14         5.3600  -49.7880   10.8000 C.2       1 WTJ1513     0.0000 
     15 C15         6.0370  -50.4930   12.0110 C.2       1 WTJ1513     0.0000 
     16 O16         5.5250  -51.0590   13.2150 O.3       1 WTJ1513     0.0000 
     17 C17         6.4500  -51.9490   13.8600 C.3       1 WTJ1513     0.0000 
     18 C18         7.8780  -51.3670   14.0020 C.3       1 WTJ1513     0.0000 
     19 O19         8.5110  -51.0750   12.7230 O.3       1 WTJ1513     0.0000 
     20 C20         7.6320  -50.4950   11.7590 C.2       1 WTJ1513     0.0000 
     21 C21        10.3560  -49.9310   10.6910 C.ar      1 WTJ1513     0.0000 
     22 N22        11.6600  -49.7320   10.1920 N.ar      1 WTJ1513     0.0000 
     23 C23        11.8410  -49.2320    8.8860 C.ar      1 WTJ1513     0.0000 
     24 N24        13.1890  -49.0670    8.3770 N.pl3     1 WTJ1513     0.0000 
     25 H           9.0733  -45.2822    2.4412 H         1 WTJ1513     0.0000 
     26 H           7.5968  -46.8663    4.5286 H         1 WTJ1513     0.0000 
     27 H           8.6259  -45.4330    4.6921 H         1 WTJ1513     0.0000 
     28 H          10.6564  -46.7152    4.4408 H         1 WTJ1513     0.0000 
     29 H           9.7894  -48.1485    3.8629 H         1 WTJ1513     0.0000 
     30 H           8.7603  -47.8096    6.4506 H         1 WTJ1513     0.0000 
     31 H           8.5530  -48.9132    7.9761 H         1 WTJ1513     0.0000 
     32 H           4.4987  -49.6527   10.6860 H         1 WTJ1513     0.0000 
     33 H           6.5439  -52.9064   13.3065 H         1 WTJ1513     0.0000 
     34 H           6.1074  -52.2194   14.8805 H         1 WTJ1513     0.0000 
     35 H           8.4746  -52.0949   14.5821 H         1 WTJ1513     0.0000 
     36 H           7.8024  -50.4559   14.6237 H         1 WTJ1513     0.0000 
     37 H          10.2033  -50.2922   11.6311 H         1 WTJ1513     0.0000 
     38 H          13.9290  -49.3063    9.0056 H         1 WTJ1513     0.0000 
     39 H          13.2668  -48.7276    7.4396 H         1 WTJ1513     0.0000 
     40 H           6.7684  -44.9002    2.9727 H         1 WTJ1513     0.0000 
     41 H           6.9134  -45.4097    1.4543 H         1 WTJ1513     0.0000 
     42 H           6.3565  -46.4061    2.5870 H         1 WTJ1513     0.0000 
     43 H           9.7084  -47.5719    2.0704 H         1 WTJ1513     0.0000 
     44 H           8.1764  -48.0590    2.0267 H         1 WTJ1513     0.0000 
     45 H           8.7360  -47.0626    0.8952 H         1 WTJ1513     0.0000 
@<TRIPOS>BOND
     1    2    1 1    
     2   40    1 1    
     3   41    1 1    
     4   42    1 1    
     5    3    2 1    
     6    4    2 1    
     7   25    2 1    
     8   43    3 1    
     9   44    3 1    
    10   45    3 1    
    11    5    4 1    
    12   26    4 1    
    13   27    4 1    
    14    6    5 1    
    15   28    5 1    
    16   29    5 1    
    17    7    6 am   
    18   30    6 1    
    19    8    7 2    
    20    9    7 1    
    21   10    9 ar   
    22   23    9 ar   
    23   11   10 ar   
    24   31   10 1    
    25   12   11 1    
    26   21   11 ar   
    27   13   12 1    
    28   20   12 2    
    29   14   13 1    
    30   15   14 2    
    31   32   14 1    
    32   16   15 1    
    33   20   15 1    
    34   17   16 1    
    35   18   17 1    
    36   33   17 1    
    37   34   17 1    
    38   19   18 1    
    39   35   18 1    
    40   36   18 1    
    41   20   19 1    
    42   22   21 ar   
    43   37   21 1    
    44   23   22 ar   
    45   24   23 1    
    46   38   24 1    
    47   39   24 1    
@<TRIPOS>SUBSTRUCTURE
     1 WTJ1513     1 GROUP   
@<TRIPOS>SET

