#    Name: 3dzv_ADP_2_INTS_M
#    Modification time : Tue Mar 25 00:48:19 2014

@<TRIPOS>MOLECULE
3dzv_ADP_2_INTS_M
   51     0     9     0     0
SMALL
NO_CHARGES


@<TRIPOS>ATOM
      1 N         112.3805   91.6010   96.1990 N.am      2 SEC2        0.0000 
      2 N         113.3300   92.4610   95.2100 N.am      8 SEL2        0.0000 
      3 N         111.4310   90.7410   97.1880 N.am      5 SEP2        0.0000 
      4 N         117.2210   92.9415   94.0490 N.am      2 SEC2        0.0000 
      5 N         115.5560   92.5970   93.8940 N.am      8 SEL2        0.0000 
      6 N         118.8860   93.2860   94.2040 N.am      5 SEP2        0.0000 
      7 N         116.6645   88.5345   94.6360 N.am      2 SEC2        0.0000 
      8 N         116.1380   89.0140   93.3780 N.am      8 SEL2        0.0000 
      9 N         117.1910   88.0550   95.8940 N.am      5 SEP2        0.0000 
     10 CA        112.5795   89.3220   96.4555 C.3       3 GLC5        0.0000 
     11 CA        112.5990   88.2070   94.8480 C.3       9 GLL5        0.0000 
     12 CA        112.5600   90.4370   98.0630 C.3       6 GLP5        0.0000 
     13 CA        110.0620   86.6370   95.2490 C.3       3 GLC5        0.0000 
     14 CA        112.1280   86.7690   94.6620 C.3       9 GLL5        0.0000 
     15 CA        107.9960   86.5050   95.8360 C.3       6 GLP5        0.0000 
     16 N         112.4410   83.1345   94.8910 N.am      2 SEC2        0.0000 
     17 N         112.6670   84.5680   95.5870 N.am      8 SEL2        0.0000 
     18 N         112.2150   81.7010   94.1950 N.am      5 SEP2        0.0000 
     19 O         111.6510   83.9365   94.8830 O.2       1 ALC1        0.0000 
     20 O         112.6670   84.5680   95.5870 O.2       7 ALL1        0.0000 
     21 O         110.6350   83.3050   94.1790 O.2       4 ALP1        0.0000 
     22 N         113.1250   82.7875   93.8410 N.am      2 SEC2        0.0000 
     23 N         114.0350   83.8740   93.4870 N.am      8 SEL2        0.0000 
     24 O         115.1735   83.6130   94.0035 O.2       1 ALC1        0.0000 
     25 O         114.0350   83.8740   93.4870 O.2       7 ALL1        0.0000 
     26 O         116.3120   83.3520   94.5200 O.2       4 ALP1        0.0000 
     27 CA        110.7075   85.2885   92.2100 C.3       3 GLC5        0.0000 
     28 CA        112.5120   85.6140   92.6420 C.3       9 GLL5        0.0000 
     29 CA        108.9030   84.9630   91.7780 C.3       6 GLP5        0.0000 
     30 CA        114.8685   83.6510   88.5995 C.3       3 GLC5        0.0000 
     31 CA        112.7320   83.5700   88.6680 C.3       9 GLL5        0.0000 
     32 CA        117.0050   83.7320   88.5310 C.3       6 GLP5        0.0000 
     33 CA        111.3010   82.4715   89.4095 C.3       3 GLC5        0.0000 
     34 CA        109.8700   81.3730   90.1510 C.3       6 GLP5        0.0000 
     35 CA        110.9965   83.5600   87.8805 C.3       3 GLC5        0.0000 
     36 CA        109.2610   83.5500   87.0930 C.3       6 GLP5        0.0000 
     37 CA        111.0815   86.3265   90.6000 C.3       3 GLC5        0.0000 
     38 CA        112.9660   85.3390   90.2170 C.3       9 GLL5        0.0000 
     39 CA        109.1970   87.3140   90.9830 C.3       6 GLP5        0.0000 
     40 CA        110.8042   88.7585   94.8665 C.3       3 GLC5        0.0000 
     41 CA        109.2450   90.0290   94.9780 C.3       6 GLP5        0.0000 
     42 CA        111.8010   86.1222   96.7723 C.3       3 GLC5        0.0000 
     43 CA        110.9370   86.0080   98.7570 C.3       6 GLP5        0.0000 
     44 CA        115.2225   86.0623   95.0618 C.3       3 GLC5        0.0000 
     45 CA        113.2020   85.7040   94.9130 C.3       9 GLL5        0.0000 
     46 CA        116.9990   86.6370   95.8940 C.3       6 GLP5        0.0000 
     47 CA        115.2733   84.8180   88.5083 C.3       3 GLC5        0.0000 
     48 CA        113.4900   86.2030   89.1580 C.3       9 GLL5        0.0000 
     49 CA        112.1743   86.3535   87.1178 C.3       3 GLC5        0.0000 
     50 CA        113.5930   85.6050   87.8130 C.3       9 GLL5        0.0000 
     51 CA        110.8070   86.8030   85.7500 C.3       6 GLP5        0.0000 
@<TRIPOS>BOND
@<TRIPOS>SUBSTRUCTURE
     1 ALC1       19 GROUP        1 X    ALC  0     ROOT ALC X 1
     2 SEC2        1 GROUP        1 X    SEC  0     **** SEC X 2
     3 GLC5       10 GROUP        1 X    GLC  0     **** GLC X 6
     4 ALP1       21 GROUP        1 Y    ALP  0     ROOT ALP Y 8
     5 SEP2        3 GROUP        1 Y    SEP  0     **** SEP Y 9
     6 GLP5       12 GROUP        1 Y    GLP  0     **** GLP Y 13
     7 ALL1       20 GROUP        1 Z    ALL  0     ROOT ALL Z 15
     8 SEL2        2 GROUP        1 Z    SEL  0     **** SEL Z 16
     9 GLL5       11 GROUP        1 Z    GLL  0     **** GLL Z 20
@<TRIPOS>SET

