#    Name: 3dzv_ADP_2_ligand
#    Modification time : Tue Mar 25 00:48:19 2014

@<TRIPOS>MOLECULE
3dzv_ADP_2_ligand
   39    41     1     0     0
SMALL
NO_CHARGES


@<TRIPOS>ATOM
      1 PB        114.8360   92.1390   95.1530 P.3       1 ADP500      0.0000 
      2 O1B       113.3300   92.4610   95.2100 O.co2     1 ADP500      0.0000 
      3 O2B       115.5560   92.5970   93.8940 O.co2     1 ADP500      0.0000 
      4 O3B       115.6120   92.4690   96.4290 O.co2     1 ADP500      0.0000 
      5 PA        114.7640   89.4920   93.8540 P.3       1 ADP500      0.0000 
      6 O1A       116.1380   89.0140   93.3780 O.co2     1 ADP500      0.0000 
      7 O2A       113.7640   90.1130   92.9000 O.co2     1 ADP500      0.0000 
      8 O3A       114.9550   90.5110   95.1070 O.3       1 ADP500      0.0000 
      9 O5'       114.0000   88.2610   94.5630 O.3       1 ADP500      0.0000 
     10 C5'       112.5990   88.2070   94.8480 C.3       1 ADP500      0.0000 
     11 C4'       112.1280   86.7690   94.6620 C.3       1 ADP500      0.0000 
     12 O4'       111.7360   86.6290   93.2990 O.3       1 ADP500      0.0000 
     13 C3'       113.2020   85.7040   94.9130 C.3       1 ADP500      0.0000 
     14 O3'       112.6670   84.5680   95.5870 O.3       1 ADP500      0.0000 
     15 C2'       113.6900   85.2710   93.5460 C.3       1 ADP500      0.0000 
     16 O2'       114.0350   83.8740   93.4870 O.3       1 ADP500      0.0000 
     17 C1'       112.5120   85.6140   92.6420 C.3       1 ADP500      0.0000 
     18 N9        112.9690   86.0880   91.3130 N.pl3     1 ADP500      0.0000 
     19 C8        113.4330   87.3130   91.0170 C.2       1 ADP500      0.0000 
     20 N7        113.7560   87.3950   89.7080 N.2       1 ADP500      0.0000 
     21 C5        113.4900   86.2030   89.1580 C.ar      1 ADP500      0.0000 
     22 C6        113.5930   85.6050   87.8130 C.ar      1 ADP500      0.0000 
     23 N6        114.0680   86.3530   86.7940 N.pl3     1 ADP500      0.0000 
     24 N1        113.2040   84.3140   87.6430 N.ar      1 ADP500      0.0000 
     25 C2        112.7320   83.5700   88.6680 C.ar      1 ADP500      0.0000 
     26 N3        112.6100   84.0600   89.9240 N.ar      1 ADP500      0.0000 
     27 C4        112.9660   85.3390   90.2170 C.ar      1 ADP500      0.0000 
     28 H         112.0234   88.8404   94.1728 H         1 ADP500      0.0000 
     29 H         112.3826   88.5026   95.8748 H         1 ADP500      0.0000 
     30 H         111.2941   86.5808   95.3092 H         1 ADP500      0.0000 
     31 H         114.0121   86.1541   95.4328 H         1 ADP500      0.0000 
     32 H         114.5036   85.9162   93.2689 H         1 ADP500      0.0000 
     33 H         111.9196   84.7136   92.5218 H         1 ADP500      0.0000 
     34 H         113.5260   88.0485   91.6587 H         1 ADP500      0.0000 
     35 H         114.1318   85.8973   85.9062 H         1 ADP500      0.0000 
     36 H         114.3137   87.2962   87.0178 H         1 ADP500      0.0000 
     37 H         112.4474   82.5686   88.4830 H         1 ADP500      0.0000 
     38 H         111.9382   84.2325   94.9901 H         1 ADP500      0.0000 
     39 H         114.6403   83.7238   94.2686 H         1 ADP500      0.0000 
@<TRIPOS>BOND
     1    2    1 ar   
     2    3    1 ar   
     3    4    1 ar   
     4    8    1 1    
     5    6    5 ar   
     6    7    5 ar   
     7    8    5 1    
     8    9    5 1    
     9   10    9 1    
    10   11   10 1    
    11   28   10 1    
    12   29   10 1    
    13   12   11 1    
    14   13   11 1    
    15   30   11 1    
    16   17   12 1    
    17   14   13 1    
    18   15   13 1    
    19   31   13 1    
    20   38   14 1    
    21   16   15 1    
    22   17   15 1    
    23   32   15 1    
    24   39   16 1    
    25   18   17 1    
    26   33   17 1    
    27   19   18 1    
    28   27   18 1    
    29   20   19 2    
    30   34   19 1    
    31   21   20 1    
    32   22   21 ar   
    33   27   21 ar   
    34   23   22 1    
    35   24   22 ar   
    36   35   23 1    
    37   36   23 1    
    38   25   24 ar   
    39   26   25 ar   
    40   37   25 1    
    41   27   26 ar   
@<TRIPOS>SUBSTRUCTURE
     1 ADP500      1 GROUP   
@<TRIPOS>SET

