#    Name: 2vfz_UPF_2_INTS_M
#    Modification time : Tue Mar 25 01:39:17 2014

@<TRIPOS>MOLECULE
2vfz_UPF_2_INTS_M
   90     0    15     0     0
SMALL
NO_CHARGES


@<TRIPOS>ATOM
      1 O           3.9865  -13.9715  -39.3500 O.2       1 ALC1        0.0000 
      2 O           4.1650  -15.3450  -39.5950 O.2      11 ALL1        0.0000 
      3 O           3.8080  -12.5980  -39.1050 O.2       6 ALP1        0.0000 
      4 CA          2.6000  -17.2965  -41.4700 C.3       5 GLC5        0.0000 
      5 CA          4.3610  -17.2470  -41.1500 C.3      15 GLL5        0.0000 
      6 CA          0.8390  -17.3460  -41.7900 C.3      10 GLP5        0.0000 
      7 CA          5.5735  -17.5830  -42.5840 C.3       5 GLC5        0.0000 
      8 CA          6.7860  -17.9190  -44.0180 C.3      10 GLP5        0.0000 
      9 CA          6.2355  -16.1495  -40.7860 C.3       5 GLC5        0.0000 
     10 CA          8.1100  -15.0520  -40.4220 C.3      10 GLP5        0.0000 
     11 CA          2.5005  -17.9370  -40.2615 C.3       5 GLC5        0.0000 
     12 CA          4.3000  -18.1310  -40.0550 C.3      15 GLL5        0.0000 
     13 CA          0.7010  -17.7430  -40.4680 C.3      10 GLP5        0.0000 
     14 CA          5.9495  -17.5220  -39.0470 C.3       5 GLC5        0.0000 
     15 CA          7.5990  -16.9130  -38.0390 C.3      10 GLP5        0.0000 
     16 N           4.0185  -14.4580  -36.8655 N.am      2 SEC2        0.0000 
     17 N           3.9910  -15.7470  -37.3570 N.am     12 SEL2        0.0000 
     18 N           4.0460  -13.1690  -36.3740 N.am      7 SEP2        0.0000 
     19 CA          5.8450  -17.7585  -37.7705 C.3       5 GLC5        0.0000 
     20 CA          4.0910  -18.6040  -37.5020 C.3      15 GLL5        0.0000 
     21 O           2.3970  -17.6700  -34.8200 O.2       1 ALC1        0.0000 
     22 O           2.6170  -18.7490  -35.6080 O.2      11 ALL1        0.0000 
     23 O           2.1770  -16.5910  -34.0320 O.2       6 ALP1        0.0000 
     24 CA          1.3935  -18.7845  -39.0795 C.3       5 GLC5        0.0000 
     25 CA          2.0860  -19.8260  -37.6910 C.3      15 GLL5        0.0000 
     26 CA          0.8315  -21.3335  -36.6235 C.3       5 GLC5        0.0000 
     27 CA         -0.4230  -22.8410  -35.5560 C.3      10 GLP5        0.0000 
     28 CA          4.7165  -20.9475  -35.9265 C.3       5 GLC5        0.0000 
     29 CA          3.2560  -20.8180  -37.5950 C.3      15 GLL5        0.0000 
     30 CA          6.1770  -21.0770  -34.2580 C.3      10 GLP5        0.0000 
     31 N           0.0555  -20.0330  -35.8310 N.am      2 SEC2        0.0000 
     32 N           0.8660  -20.2420  -37.1020 N.am     12 SEL2        0.0000 
     33 N          -0.7550  -19.8240  -34.5600 N.am      7 SEP2        0.0000 
     34 O          -0.3725  -20.6755  -37.5555 O.2       1 ALC1        0.0000 
     35 O           0.8660  -20.2420  -37.1020 O.2      11 ALL1        0.0000 
     36 O          -1.6110  -21.1090  -38.0090 O.2       6 ALP1        0.0000 
     37 CA          5.2480  -22.0980  -39.0045 C.3       5 GLC5        0.0000 
     38 CA          3.2100  -21.9310  -38.6560 C.3      15 GLL5        0.0000 
     39 CA          7.2860  -22.2650  -39.3530 C.3      10 GLP5        0.0000 
     40 Zn         -0.1630  -22.3290  -39.5380 Zn        4 ZIC7        0.0000 
     41 Zn          0.5550  -21.5750  -39.9110 Zn       14 ZIL7        0.0000 
     42 Zn         -0.8810  -23.0830  -39.1650 Zn        9 ZIP7        0.0000 
     43 N           1.3120  -19.4190  -42.3310 N.am      2 SEC2        0.0000 
     44 N           1.7180  -20.5440  -41.8710 N.am     12 SEL2        0.0000 
     45 N           0.9060  -18.2940  -42.7910 N.am      7 SEP2        0.0000 
     46 NZ         -1.5640  -23.4330  -41.9560 N.4       3 LYC4        0.0000 
     47 NZ         -0.4920  -23.9600  -41.3070 N.4      13 LYL4        0.0000 
     48 NZ         -2.6360  -22.9060  -42.6050 N.4       8 LYP4        0.0000 
     49 Zn         -0.6865  -23.5215  -40.2360 Zn        4 ZIC7        0.0000 
     50 Zn         -0.4920  -23.9600  -41.3070 Zn       14 ZIL7        0.0000 
     51 N          -1.5640  -23.4330  -41.9560 N.am      2 SEC2        0.0000 
     52 N          -0.4920  -23.9600  -41.3070 N.am     12 SEL2        0.0000 
     53 N          -2.6360  -22.9060  -42.6050 N.am      7 SEP2        0.0000 
     54 CA          5.5005  -24.0005  -42.7135 C.3       5 GLC5        0.0000 
     55 CA          5.6200  -25.6090  -41.3560 C.3      15 GLL5        0.0000 
     56 CA          5.3810  -22.3920  -44.0710 C.3      10 GLP5        0.0000 
     57 CA          6.4530  -23.9370  -40.3545 C.3       5 GLC5        0.0000 
     58 CA          7.5150  -26.1905  -41.6605 C.3       5 GLC5        0.0000 
     59 CA          9.4100  -26.7720  -41.9650 C.3      10 GLP5        0.0000 
     60 CA          1.8705  -28.1530  -37.0190 C.3       5 GLC5        0.0000 
     61 CA          0.8970  -26.9350  -38.4450 C.3      15 GLL5        0.0000 
     62 CA          2.8440  -29.3710  -35.5930 C.3      10 GLP5        0.0000 
     63 CA         -0.1290  -26.7995  -37.1355 C.3       5 GLC5        0.0000 
     64 CA         -1.1550  -26.6640  -35.8260 C.3      10 GLP5        0.0000 
     65 N           4.1765  -24.9990  -36.6360 N.am      2 SEC2        0.0000 
     66 N           3.2160  -26.0670  -36.9590 N.am     12 SEL2        0.0000 
     67 N           5.1370  -23.9310  -36.3130 N.am      7 SEP2        0.0000 
     68 O           2.3940  -25.0950  -36.2070 O.2       1 ALC1        0.0000 
     69 O           3.2160  -26.0670  -36.9590 O.2      11 ALL1        0.0000 
     70 O           1.5720  -24.1230  -35.4550 O.2       6 ALP1        0.0000 
     71 O           1.9780  -24.8745  -37.2020 O.2       1 ALC1        0.0000 
     72 O           0.7400  -23.6820  -37.4450 O.2       6 ALP1        0.0000 
     73 O           6.6025  -26.4380  -38.8620 O.2       1 ALC1        0.0000 
     74 O           5.1130  -27.0870  -38.8020 O.2      11 ALL1        0.0000 
     75 O           8.0920  -25.7890  -38.9220 O.2       6 ALP1        0.0000 
     76 O           6.0575  -26.6335  -37.9330 O.2       1 ALC1        0.0000 
     77 O           7.0020  -26.1800  -37.0640 O.2       6 ALP1        0.0000 
     78 O           6.5700  -25.8905  -43.3080 O.2       1 ALC1        0.0000 
     79 O           5.3420  -25.3610  -42.7490 O.2      11 ALL1        0.0000 
     80 O           7.7980  -26.4200  -43.8670 O.2       6 ALP1        0.0000 
     81 CA          2.0120  -17.6942  -38.3633 C.3       5 GLC5        0.0000 
     82 CA          0.6490  -16.7760  -39.4620 C.3      10 GLP5        0.0000 
     83 CA          0.9237  -18.1387  -36.5730 C.3       5 GLC5        0.0000 
     84 CA          2.6590  -18.6210  -37.0270 C.3      15 GLL5        0.0000 
     85 CA         -0.5250  -17.0540  -35.7870 C.3      10 GLP5        0.0000 
     86 CA          0.2873  -28.1863  -38.5150 C.3       5 GLC5        0.0000 
     87 CA         -0.9420  -29.4560  -38.2880 C.3      10 GLP5        0.0000 
     88 CA          3.7873  -27.5401  -37.6692 C.3       5 GLC5        0.0000 
     89 CA          2.1360  -26.8980  -39.0390 C.3      15 GLL5        0.0000 
     90 CA          4.0370  -28.9780  -36.4670 C.3      10 GLP5        0.0000 
@<TRIPOS>BOND
@<TRIPOS>SUBSTRUCTURE
     1 ALC1        1 GROUP        1 X    ALC  0     ROOT ALC X 1
     2 SEC2       16 GROUP        1 X    SEC  0     **** SEC X 2
     3 LYC4       46 GROUP        1 X    LYC  0     **** LYC X 4
     4 ZIC7       40 GROUP        1 X    ZIC  0     **** ZIC X 5
     5 GLC5        4 GROUP        1 X    GLC  0     **** GLC X 6
     6 ALP1        3 GROUP        1 Y    ALP  0     ROOT ALP Y 8
     7 SEP2       18 GROUP        1 Y    SEP  0     **** SEP Y 9
     8 LYP4       48 GROUP        1 Y    LYP  0     **** LYP Y 11
     9 ZIP7       42 GROUP        1 Y    ZIP  0     **** ZIP Y 12
    10 GLP5        6 GROUP        1 Y    GLP  0     **** GLP Y 13
    11 ALL1        2 GROUP        1 Z    ALL  0     ROOT ALL Z 15
    12 SEL2       17 GROUP        1 Z    SEL  0     **** SEL Z 16
    13 LYL4       47 GROUP        1 Z    LYL  0     **** LYL Z 18
    14 ZIL7       41 GROUP        1 Z    ZIL  0     **** ZIL Z 19
    15 GLL5        5 GROUP        1 Z    GLL  0     **** GLL Z 20
@<TRIPOS>SET

