#    Name: 2vfz_UPF_2_ligand
#    Modification time : Tue Mar 25 01:39:17 2014

@<TRIPOS>MOLECULE
2vfz_UPF_2_ligand
   57    59     1     0     0
SMALL
NO_CHARGES


@<TRIPOS>ATOM
      1 N1          4.1720  -17.6360  -38.7000 N.am      1 UPF2364     0.0000 
      2 C2          4.1050  -16.2230  -38.5070 C.2       1 UPF2364     0.0000 
      3 N3          4.1650  -15.3450  -39.5950 N.am      1 UPF2364     0.0000 
      4 C4          4.2900  -15.8620  -40.9030 C.2       1 UPF2364     0.0000 
      5 C5          4.3610  -17.2470  -41.1500 C.2       1 UPF2364     0.0000 
      6 C6          4.3000  -18.1310  -40.0550 C.2       1 UPF2364     0.0000 
      7 O2          3.9910  -15.7470  -37.3570 O.2       1 UPF2364     0.0000 
      8 O4          4.3420  -15.0830  -41.8360 O.2       1 UPF2364     0.0000 
      9 C1D         4.0910  -18.6040  -37.5020 C.3       1 UPF2364     0.0000 
     10 C2D         2.6590  -18.6210  -37.0270 C.3       1 UPF2364     0.0000 
     11 O2'         2.6170  -18.7490  -35.6080 O.3       1 UPF2364     0.0000 
     12 C3D         2.0860  -19.8260  -37.6910 C.3       1 UPF2364     0.0000 
     13 C4D         3.2560  -20.8180  -37.5950 C.3       1 UPF2364     0.0000 
     14 O4D         4.4530  -19.9890  -37.8420 O.3       1 UPF2364     0.0000 
     15 O3D         0.8660  -20.2420  -37.1020 O.3       1 UPF2364     0.0000 
     16 C5D         3.2100  -21.9310  -38.6560 C.3       1 UPF2364     0.0000 
     17 O5D         3.0590  -21.3830  -39.9890 O.3       1 UPF2364     0.0000 
     18 PA          1.7090  -21.5710  -40.8050 P.3       1 UPF2364     0.0000 
     19 O1A         0.5550  -21.5750  -39.9110 O.co2     1 UPF2364     0.0000 
     20 O2A         1.7180  -20.5440  -41.8710 O.co2     1 UPF2364     0.0000 
     21 O3A         1.9410  -23.0290  -41.4230 O.3       1 UPF2364     0.0000 
     22 PB          0.8940  -24.2460  -41.6740 P.3       1 UPF2364     0.0000 
     23 O1B        -0.4920  -23.9600  -41.3070 O.co2     1 UPF2364     0.0000 
     24 O2B         1.1930  -24.7040  -43.0570 O.co2     1 UPF2364     0.0000 
     25 O3B         1.3570  -25.2660  -40.5160 O.3       1 UPF2364     0.0000 
     26 C1'         2.0200  -26.5560  -40.5450 C.3       1 UPF2364     0.0000 
     27 C2'         2.1360  -26.8980  -39.0390 C.3       1 UPF2364     0.0000 
     28 C3'         3.0760  -25.8330  -38.3570 C.3       1 UPF2364     0.0000 
     29 C4'         4.4690  -25.8390  -39.0450 C.3       1 UPF2364     0.0000 
     30 C5'         4.2940  -25.5700  -40.5740 C.3       1 UPF2364     0.0000 
     31 C6'         5.6200  -25.6090  -41.3560 C.3       1 UPF2364     0.0000 
     32 F2'         0.8970  -26.9350  -38.4450 F         1 UPF2364     0.0000 
     33 O3'         3.2160  -26.0670  -36.9590 O.3       1 UPF2364     0.0000 
     34 O4'         5.1130  -27.0870  -38.8020 O.3       1 UPF2364     0.0000 
     35 O5'         3.3420  -26.5250  -41.1970 O.3       1 UPF2364     0.0000 
     36 O6'         5.3420  -25.3610  -42.7490 O.3       1 UPF2364     0.0000 
     37 H           4.1191  -14.3358  -39.4499 H         1 UPF2364     0.0000 
     38 H           4.4539  -17.5995  -42.0944 H         1 UPF2364     0.0000 
     39 H           4.3455  -19.1432  -40.2016 H         1 UPF2364     0.0000 
     40 H           4.7030  -18.2278  -36.7100 H         1 UPF2364     0.0000 
     41 H           2.1732  -17.7546  -37.3893 H         1 UPF2364     0.0000 
     42 H           1.9859  -19.5790  -38.7502 H         1 UPF2364     0.0000 
     43 H           3.2939  -21.2276  -36.6246 H         1 UPF2364     0.0000 
     44 H           2.3748  -22.5992  -38.4030 H         1 UPF2364     0.0000 
     45 H           4.1371  -22.5148  -38.5679 H         1 UPF2364     0.0000 
     46 H           1.3748  -27.2923  -40.9768 H         1 UPF2364     0.0000 
     47 H           2.6677  -27.8493  -38.9767 H         1 UPF2364     0.0000 
     48 H           2.6318  -24.8556  -38.5537 H         1 UPF2364     0.0000 
     49 H           5.0305  -25.0104  -38.6332 H         1 UPF2364     0.0000 
     50 H           3.8844  -24.5539  -40.6816 H         1 UPF2364     0.0000 
     51 H           6.0681  -26.5893  -41.2023 H         1 UPF2364     0.0000 
     52 H           6.2773  -24.8502  -40.9345 H         1 UPF2364     0.0000 
     53 H           2.0008  -18.0237  -35.3009 H         1 UPF2364     0.0000 
     54 H           0.2635  -20.4480  -37.8731 H         1 UPF2364     0.0000 
     55 H           2.3519  -25.7628  -36.5580 H         1 UPF2364     0.0000 
     56 H           5.8725  -26.8710  -38.1884 H         1 UPF2364     0.0000 
     57 H           5.9683  -25.9596  -43.2484 H         1 UPF2364     0.0000 
@<TRIPOS>BOND
     1    2    1 1    
     2    6    1 1    
     3    9    1 1    
     4    3    2 1    
     5    7    2 2    
     6    4    3 1    
     7   37    3 1    
     8    5    4 1    
     9    8    4 2    
    10    6    5 2    
    11   38    5 1    
    12   39    6 1    
    13   10    9 1    
    14   14    9 1    
    15   40    9 1    
    16   11   10 1    
    17   12   10 1    
    18   41   10 1    
    19   53   11 1    
    20   13   12 1    
    21   15   12 1    
    22   42   12 1    
    23   14   13 1    
    24   16   13 1    
    25   43   13 1    
    26   54   15 1    
    27   17   16 1    
    28   44   16 1    
    29   45   16 1    
    30   18   17 1    
    31   19   18 ar   
    32   20   18 ar   
    33   21   18 1    
    34   22   21 1    
    35   23   22 ar   
    36   24   22 ar   
    37   25   22 1    
    38   26   25 1    
    39   27   26 1    
    40   35   26 1    
    41   46   26 1    
    42   28   27 1    
    43   32   27 1    
    44   47   27 1    
    45   29   28 1    
    46   33   28 1    
    47   48   28 1    
    48   30   29 1    
    49   34   29 1    
    50   49   29 1    
    51   31   30 1    
    52   35   30 1    
    53   50   30 1    
    54   36   31 1    
    55   51   31 1    
    56   52   31 1    
    57   55   33 1    
    58   56   34 1    
    59   57   36 1    
@<TRIPOS>SUBSTRUCTURE
     1 UPF2364     1 GROUP   
@<TRIPOS>SET

