#    Name: 3ZXV_7_CAVITY_N1_6.mol2
#    Modification time : Tue Mar 11 15:55:17 2014

@<TRIPOS>MOLECULE
3ZXV_7_CAVITY_N1_6.mol2
   69     0     5     0     0
SMALL
NO_CHARGES


@<TRIPOS>ATOM
      1 N          39.2958    5.7790   19.6894 N.2       1 ALA2        0.0000 
      2 NZ         38.7220    4.9997   18.5434 N.2       3 LYS4        0.0000 
      3 CA         39.0730    7.4719   22.5763 C.3       4 GLY6        0.0000 
      4 N          38.4992    6.6926   21.4303 N.2       1 ALA2        0.0000 
      5 DU         38.2927    7.9672   20.6669 H         5 CUB7        0.0000 
      6 N          37.9254    5.9133   20.2843 N.2       1 ALA2        0.0000 
      7 DU         37.7189    7.1879   19.5209 H         5 CUB7        0.0000 
      8 CA         37.3515    5.1340   19.1382 C.3       4 GLY6        0.0000 
      9 CA         37.1451    6.4086   18.3748 C.3       4 GLY6        0.0000 
     10 CA         38.2764    8.3856   24.3172 C.3       4 GLY6        0.0000 
     11 O          38.0699    9.6602   23.5538 O.2       1 ALA2        0.0000 
     12 CA         40.2989    3.5908   18.7119 C.3       4 GLY6        0.0000 
     13 CA         40.0924    4.8654   17.9485 C.3       4 GLY6        0.0000 
     14 CA         37.7026    7.6062   23.1712 C.3       4 GLY6        0.0000 
     15 DU         37.4961    8.8808   22.4078 H         5 CUB7        0.0000 
     16 DU         37.2896   10.1554   21.6444 H         5 CUB7        0.0000 
     17 CA         36.4638   15.2539   18.5908 C.3       4 GLY6        0.0000 
     18 DU         37.1287    6.8269   22.0251 H         5 CUB7        0.0000 
     19 DU         36.0965   13.1999   18.2082 H         5 CUB7        0.0000 
     20 DU         36.3485    7.3222   20.1157 H         5 CUB7        0.0000 
     21 DU         36.1420    8.5968   19.3523 H         5 CUB7        0.0000 
     22 CA         35.5682    7.8175   18.2063 C.3       4 GLY6        0.0000 
     23 OD1        34.3096   12.5353   29.3713 O.3       2 ASP3        0.0000 
     24 OD1        33.7358   11.7560   28.2253 O.3       2 ASP3        0.0000 
     25 OD1        33.5294   13.0306   27.4619 O.3       2 ASP3        0.0000 
     26 CA         33.1620   10.9767   27.0793 C.3       4 GLY6        0.0000 
     27 CA         36.6831   10.2128   27.7990 C.3       4 GLY6        0.0000 
     28 O          36.4767   11.4874   27.0356 O.2       1 ALA2        0.0000 
     29 O          36.2702   12.7620   26.2722 O.2       1 ALA2        0.0000 
     30 O          36.1093    9.4335   26.6529 O.2       1 ALA2        0.0000 
     31 O          35.9029   10.7081   25.8896 O.2       1 ALA2        0.0000 
     32 O          35.6964   11.9827   25.1262 O.2       1 ALA2        0.0000 
     33 CA         35.3290    9.9288   24.7435 C.3       4 GLY6        0.0000 
     34 DU         35.1226   11.2034   23.9801 H         5 CUB7        0.0000 
     35 DU         34.9161   12.4780   23.2168 H         5 CUB7        0.0000 
     36 NZ         34.7097   13.7526   22.4534 N.2       3 LYS4        0.0000 
     37 CA         34.5032   15.0272   21.6900 C.3       4 GLY6        0.0000 
     38 DU         34.5488   10.4240   22.8341 H         5 CUB7        0.0000 
     39 DU         34.3423   11.6986   22.0707 H         5 CUB7        0.0000 
     40 DU         34.1359   12.9732   21.3073 H         5 CUB7        0.0000 
     41 O          35.8865   11.1264   29.5399 O.2       1 ALA2        0.0000 
     42 N          35.6801   12.4010   28.7765 N.2       1 ALA2        0.0000 
     43 OD1        35.4736   13.6756   28.0131 O.3       2 ASP3        0.0000 
     44 O          35.3127   10.3471   28.3938 O.2       1 ALA2        0.0000 
     45 DU         35.1063   11.6217   27.6304 H         5 CUB7        0.0000 
     46 OD1        34.8998   12.8963   26.8671 O.3       2 ASP3        0.0000 
     47 CA         34.5324   10.8424   26.4844 C.3       4 GLY6        0.0000 
     48 OD1        34.3260   12.1170   25.7210 O.3       2 ASP3        0.0000 
     49 OD1        34.1195   13.3916   24.9576 O.3       2 ASP3        0.0000 
     50 CA         33.7521   11.3377   24.5750 C.3       4 GLY6        0.0000 
     51 CA         33.5457   12.6123   23.8116 C.3       4 GLY6        0.0000 
     52 CA         33.3392   13.8869   23.0482 C.3       4 GLY6        0.0000 
     53 CA         33.1328   15.1615   22.2848 C.3       4 GLY6        0.0000 
     54 O          37.4798    9.2992   26.0581 O.2       1 ALA2        0.0000 
     55 O          37.0669   11.8484   24.5313 O.2       1 ALA2        0.0000 
     56 O          36.9059    8.5199   24.9121 O.2       1 ALA2        0.0000 
     57 O          36.6995    9.7945   24.1487 O.2       1 ALA2        0.0000 
     58 O          36.4930   11.0691   23.3853 O.2       1 ALA2        0.0000 
     59 NZ         36.0801   13.6183   21.8585 N.2       3 LYS4        0.0000 
     60 N          36.3321    7.7405   23.7660 N.2       1 ALA2        0.0000 
     61 DU         36.1257    9.0151   23.0026 H         5 CUB7        0.0000 
     62 DU         35.9192   10.2897   22.2393 H         5 CUB7        0.0000 
     63 DU         35.5063   12.8389   20.7125 H         5 CUB7        0.0000 
     64 CA         35.2998   14.1135   19.9491 C.3       4 GLY6        0.0000 
     65 DU         35.5518    8.2358   21.8566 H         5 CUB7        0.0000 
     66 DU         35.3454    9.5104   21.0932 H         5 CUB7        0.0000 
     67 DU         35.1389   10.7850   20.3298 H         5 CUB7        0.0000 
     68 DU         34.9325   12.0596   19.5664 H         5 CUB7        0.0000 
     69 N          34.5651   10.0057   19.1838 N.2       1 ALA2        0.0000 
@<TRIPOS>BOND
@<TRIPOS>SUBSTRUCTURE
     1 ALA2        1 GROUP   
     2 ASP3       23 GROUP   
     3 LYS4        2 GROUP   
     4 GLY6        3 GROUP   
     5 CUB7        5 GROUP   
@<TRIPOS>SET

