#    Name: 3zxv_MXI_7_INTS_M
#    Modification time : Tue Mar 25 04:38:17 2014

@<TRIPOS>MOLECULE
3zxv_MXI_7_INTS_M
   53     0     9     0     0
SMALL
NO_CHARGES


@<TRIPOS>ATOM
      1 O          46.8695   12.7185   24.2805 O.2       1 ALC1        0.0000 
      2 O          45.4190   12.2560   23.7570 O.2       7 ALL1        0.0000 
      3 O          48.3200   13.1810   24.8040 O.2       4 ALP1        0.0000 
      4 CA         46.6895   12.7725   25.1575 C.3       3 GLC5        0.0000 
      5 CA         44.8330   13.2560   24.4440 C.3       9 GLL5        0.0000 
      6 CA         48.5460   12.2890   25.8710 C.3       6 GLP5        0.0000 
      7 N          46.9470   13.6345   25.0020 N.am      2 SEC2        0.0000 
      8 N          45.5740   14.0880   25.2000 N.am      8 SEL2        0.0000 
      9 N          48.3200   13.1810   24.8040 N.am      5 SEP2        0.0000 
     10 CA         46.5055   16.0170   24.9415 C.3       3 GLC5        0.0000 
     11 CA         45.0050   15.0910   25.8850 C.3       9 GLL5        0.0000 
     12 CA         48.0060   16.9430   23.9980 C.3       6 GLP5        0.0000 
     13 CA         45.4150   17.0735   26.6580 C.3       3 GLC5        0.0000 
     14 CA         45.8250   19.0560   27.4310 C.3       6 GLP5        0.0000 
     15 CA         45.9620   14.8915   27.6370 C.3       3 GLC5        0.0000 
     16 CA         46.9190   14.6920   29.3890 C.3       6 GLP5        0.0000 
     17 CA         39.3820   18.3835   28.5835 C.3       3 GLC5        0.0000 
     18 CA         38.7330   16.6020   27.5250 C.3       9 GLL5        0.0000 
     19 CA         40.0310   20.1650   29.6420 C.3       6 GLP5        0.0000 
     20 CA         37.5160   17.0040   28.9240 C.3       3 GLC5        0.0000 
     21 CA         36.2990   17.4060   30.3230 C.3       6 GLP5        0.0000 
     22 CA         36.0730   18.1905   25.3040 C.3       3 GLC5        0.0000 
     23 CA         38.0140   17.4860   25.3410 C.3       9 GLL5        0.0000 
     24 CA         34.1320   18.8950   25.2670 C.3       6 GLP5        0.0000 
     25 CA         41.7600    8.2580   19.5230 C.3       3 GLC5        0.0000 
     26 CA         41.2360    8.9550   17.4590 C.3       9 GLL5        0.0000 
     27 CA         42.2840    7.5610   21.5870 C.3       6 GLP5        0.0000 
     28 CA         43.4898   12.0038   25.4128 C.3       3 GLC5        0.0000 
     29 CA         43.4540   13.4250   24.3850 C.3       9 GLL5        0.0000 
     30 CA         42.8360   10.6670   26.4110 C.3       6 GLP5        0.0000 
     31 CA         43.7440   16.6557   24.6120 C.3       3 GLC5        0.0000 
     32 CA         43.6290   15.3040   25.8410 C.3       9 GLL5        0.0000 
     33 CA         43.1710   18.1140   23.3610 C.3       6 GLP5        0.0000 
     34 CA         43.2585   14.8293   27.3530 C.3       3 GLC5        0.0000 
     35 CA         42.2000   14.4610   28.8430 C.3       6 GLP5        0.0000 
     36 CA         42.6470   16.3365   24.2085 C.3       3 GLC5        0.0000 
     37 CA         42.8200   14.4610   25.0810 C.3       9 GLL5        0.0000 
     38 CA         42.1615   14.5100   26.9495 C.3       3 GLC5        0.0000 
     39 CA         42.4795   12.6130   25.7335 C.3       3 GLC5        0.0000 
     40 CA         42.2291   16.5929   26.1255 C.3       3 GLC5        0.0000 
     41 CA         41.4260   14.6570   25.0310 C.3       9 GLL5        0.0000 
     42 CA         42.1330   18.4160   27.0050 C.3       6 GLP5        0.0000 
     43 CA         40.3335   17.4118   26.9115 C.3       3 GLC5        0.0000 
     44 CA         39.2055   15.5098   28.4135 C.3       3 GLC5        0.0000 
     45 CA         39.8770   14.6120   30.0090 C.3       6 GLP5        0.0000 
     46 CA         41.6750    9.3845   20.8525 C.3       3 GLC5        0.0000 
     47 CA         41.0000   11.6470   20.6550 C.3       9 GLL5        0.0000 
     48 CA         44.5562   10.0080   18.5905 C.3       3 GLC5        0.0000 
     49 CA         42.3040   10.7810   18.8060 C.3       9 GLL5        0.0000 
     50 CA         46.2900    8.7890   18.2240 C.3       6 GLP5        0.0000 
     51 CA         43.2063    9.7515   20.4555 C.3       3 GLC5        0.0000 
     52 CA         43.3410   11.6730   19.1080 C.3       9 GLL5        0.0000 
     53 CA         43.5900    8.2760   21.9540 C.3       6 GLP5        0.0000 
@<TRIPOS>BOND
@<TRIPOS>SUBSTRUCTURE
     1 ALC1        1 GROUP        1 X    ALC  0     ROOT ALC X 1
     2 SEC2        7 GROUP        1 X    SEC  0     **** SEC X 2
     3 GLC5        4 GROUP        1 X    GLC  0     **** GLC X 6
     4 ALP1        3 GROUP        1 Y    ALP  0     ROOT ALP Y 8
     5 SEP2        9 GROUP        1 Y    SEP  0     **** SEP Y 9
     6 GLP5        6 GROUP        1 Y    GLP  0     **** GLP Y 13
     7 ALL1        2 GROUP        1 Z    ALL  0     ROOT ALL Z 15
     8 SEL2        8 GROUP        1 Z    SEL  0     **** SEL Z 16
     9 GLL5        5 GROUP        1 Z    GLL  0     **** GLL Z 20
@<TRIPOS>SET

