#    Name: 3zxv_MXI_7_ligand
#    Modification time : Tue Mar 25 04:38:17 2014

@<TRIPOS>MOLECULE
3zxv_MXI_7_ligand
   52    55     1     0     0
SMALL
NO_CHARGES


@<TRIPOS>ATOM
      1 N26        45.4190   12.2560   23.7570 N.pl3     1 MXI501      0.0000 
      2 C8         44.8330   13.2560   24.4440 C.ar      1 MXI501      0.0000 
      3 N9         45.5740   14.0880   25.2000 N.ar      1 MXI501      0.0000 
      4 C10        45.0050   15.0910   25.8850 C.ar      1 MXI501      0.0000 
      5 C11        43.6290   15.3040   25.8410 C.ar      1 MXI501      0.0000 
      6 C7         43.4540   13.4250   24.3850 C.ar      1 MXI501      0.0000 
      7 C6         42.8200   14.4610   25.0810 C.ar      1 MXI501      0.0000 
      8 C5         41.4260   14.6570   25.0310 C.2       1 MXI501      0.0000 
      9 N1         40.7340   15.3970   25.9420 N.pl3     1 MXI501      0.0000 
     10 C2         39.4820   15.4870   25.4500 C.2       1 MXI501      0.0000 
     11 C22        38.3350   16.2130   26.1110 C.3       1 MXI501      0.0000 
     12 C24        38.7330   16.6020   27.5250 C.3       1 MXI501      0.0000 
     13 C23        37.1220   15.2870   26.1120 C.3       1 MXI501      0.0000 
     14 C25        38.0140   17.4860   25.3410 C.3       1 MXI501      0.0000 
     15 C4         40.5180   14.3210   23.9880 C.2       1 MXI501      0.0000 
     16 N3         39.3110   14.8580   24.2820 N.2       1 MXI501      0.0000 
     17 C12        40.6960   13.3880   22.8160 C.ar      1 MXI501      0.0000 
     18 C21        41.8400   13.4340   22.0920 C.ar      1 MXI501      0.0000 
     19 C20        42.0320   12.5210   20.9500 C.ar      1 MXI501      0.0000 
     20 C15        41.0000   11.6470   20.6550 C.ar      1 MXI501      0.0000 
     21 C14        39.8540   11.6720   21.4490 C.ar      1 MXI501      0.0000 
     22 C13        39.7620   12.5760   22.5140 C.ar      1 MXI501      0.0000 
     23 C19        43.2050   12.5440   20.1890 C.ar      1 MXI501      0.0000 
     24 C18        43.3410   11.6730   19.1080 C.ar      1 MXI501      0.0000 
     25 C17        42.3040   10.7810   18.8060 C.ar      1 MXI501      0.0000 
     26 C16        41.1320   10.7690   19.5810 C.ar      1 MXI501      0.0000 
     27 O27        42.4640    9.8350   17.6280 O.3       1 MXI501      0.0000 
     28 C28        41.2360    8.9550   17.4590 C.3       1 MXI501      0.0000 
     29 H          44.8148   11.7033   23.1831 H         1 MXI501      0.0000 
     30 H          46.4060   12.1556   23.8822 H         1 MXI501      0.0000 
     31 H          45.5838   15.7357   26.4679 H         1 MXI501      0.0000 
     32 H          43.2114   16.0801   26.3671 H         1 MXI501      0.0000 
     33 H          42.8823   12.7751   23.8172 H         1 MXI501      0.0000 
     34 H          41.0682   15.7645   26.7443 H         1 MXI501      0.0000 
     35 H          42.6035   14.0839   22.2951 H         1 MXI501      0.0000 
     36 H          39.0782   11.0300   21.2551 H         1 MXI501      0.0000 
     37 H          38.8480   12.5420   23.0647 H         1 MXI501      0.0000 
     38 H          43.9575   13.1959   20.4248 H         1 MXI501      0.0000 
     39 H          44.1902   11.6835   18.5387 H         1 MXI501      0.0000 
     40 H          40.3782   10.1134   19.3524 H         1 MXI501      0.0000 
     41 H          38.9642   15.8023   28.0791 H         1 MXI501      0.0000 
     42 H          39.5306   17.2051   27.5337 H         1 MXI501      0.0000 
     43 H          37.9960   17.0839   27.9990 H         1 MXI501      0.0000 
     44 H          36.8493   15.0311   25.1845 H         1 MXI501      0.0000 
     45 H          37.3031   14.4383   26.6089 H         1 MXI501      0.0000 
     46 H          36.3280   15.7155   26.5432 H         1 MXI501      0.0000 
     47 H          38.7970   18.1072   25.3074 H         1 MXI501      0.0000 
     48 H          37.7529   17.2922   24.3954 H         1 MXI501      0.0000 
     49 H          37.2572   17.9905   25.7565 H         1 MXI501      0.0000 
     50 H          41.3324    8.3273   16.6866 H         1 MXI501      0.0000 
     51 H          41.0646    8.3967   18.2708 H         1 MXI501      0.0000 
     52 H          40.4110    9.4960   17.2958 H         1 MXI501      0.0000 
@<TRIPOS>BOND
     1    2    1 1    
     2   29    1 1    
     3   30    1 1    
     4    3    2 ar   
     5    6    2 ar   
     6    4    3 ar   
     7    5    4 ar   
     8   31    4 1    
     9    7    5 ar   
    10   32    5 1    
    11    7    6 ar   
    12   33    6 1    
    13    8    7 1    
    14    9    8 1    
    15   15    8 2    
    16   10    9 1    
    17   34    9 1    
    18   11   10 1    
    19   16   10 2    
    20   12   11 1    
    21   13   11 1    
    22   14   11 1    
    23   41   12 1    
    24   42   12 1    
    25   43   12 1    
    26   44   13 1    
    27   45   13 1    
    28   46   13 1    
    29   47   14 1    
    30   48   14 1    
    31   49   14 1    
    32   16   15 1    
    33   17   15 1    
    34   18   17 ar   
    35   22   17 ar   
    36   19   18 ar   
    37   35   18 1    
    38   20   19 ar   
    39   23   19 ar   
    40   21   20 ar   
    41   26   20 ar   
    42   22   21 ar   
    43   36   21 1    
    44   37   22 1    
    45   24   23 ar   
    46   38   23 1    
    47   25   24 ar   
    48   39   24 1    
    49   26   25 ar   
    50   27   25 1    
    51   40   26 1    
    52   28   27 1    
    53   50   28 1    
    54   51   28 1    
    55   52   28 1    
@<TRIPOS>SUBSTRUCTURE
     1 MXI501      1 GROUP   
@<TRIPOS>SET

