#    Name: 4hfn_NAP_2_INTS_M
#    Modification time : Tue Mar 25 00:58:07 2014

@<TRIPOS>MOLECULE
4hfn_NAP_2_INTS_M
   76     0    12     0     0
SMALL
NO_CHARGES


@<TRIPOS>ATOM
      1 N         -28.6725  -23.2870   19.5435 N.am      2 SEC2        0.0000 
      2 N         -27.9000  -23.2160   20.7870 N.am     10 SEL2        0.0000 
      3 N         -29.4450  -23.3580   18.3000 N.am      6 SEP2        0.0000 
      4 CA        -26.0040  -20.6370   23.2070 C.3       4 GLC5        0.0000 
      5 CA        -24.6150  -21.3010   21.8100 C.3      12 GLL5        0.0000 
      6 CA        -27.3930  -19.9730   24.6040 C.3       8 GLP5        0.0000 
      7 CA        -21.5915  -23.7240   21.4500 C.3       4 GLC5        0.0000 
      8 CA        -22.8620  -22.4320   20.3280 C.3      12 GLL5        0.0000 
      9 CA        -20.3210  -25.0160   22.5720 C.3       8 GLP5        0.0000 
     10 CA        -23.1205  -19.3385   18.2690 C.3       4 GLC5        0.0000 
     11 CA        -22.0000  -20.2460   19.5720 C.3      12 GLL5        0.0000 
     12 CA        -24.2410  -18.4310   16.9660 C.3       8 GLP5        0.0000 
     13 CA        -22.2195  -18.2005   20.3440 C.3       4 GLC5        0.0000 
     14 CA        -22.4390  -16.1550   21.1160 C.3       8 GLP5        0.0000 
     15 CA        -18.7840  -15.4560   21.6515 C.3       4 GLC5        0.0000 
     16 CA        -18.2380  -17.3170   20.7490 C.3      12 GLL5        0.0000 
     17 CA        -19.3300  -13.5950   22.5540 C.3       8 GLP5        0.0000 
     18 CA        -20.4005  -16.0470   17.9075 C.3       4 GLC5        0.0000 
     19 CA        -18.9350  -17.1660   18.5230 C.3      12 GLL5        0.0000 
     20 CA        -21.8660  -14.9280   17.2920 C.3       8 GLP5        0.0000 
     21 CA        -20.6870  -16.6605   19.8195 C.3       4 GLC5        0.0000 
     22 N         -30.2800  -20.8885   18.4490 N.am      2 SEC2        0.0000 
     23 N         -29.3420  -20.4930   19.3490 N.am     10 SEL2        0.0000 
     24 N         -31.2180  -21.2840   17.5490 N.am      6 SEP2        0.0000 
     25 CA        -25.4250  -16.1025   22.3495 C.3       4 GLC5        0.0000 
     26 CA        -27.5460  -16.2800   22.3400 C.3      12 GLL5        0.0000 
     27 CA        -23.3040  -15.9250   22.3590 C.3       8 GLP5        0.0000 
     28 CA        -30.6250  -14.6880   20.5735 C.3       4 GLC5        0.0000 
     29 CA        -29.7440  -15.3550   22.2290 C.3      12 GLL5        0.0000 
     30 CA        -31.5060  -14.0210   18.9180 C.3       8 GLP5        0.0000 
     31 CA        -28.7730  -13.7390   21.6330 C.3       4 GLC5        0.0000 
     32 CA        -27.8020  -12.1230   21.0370 C.3       8 GLP5        0.0000 
     33 N         -36.5870  -12.5880   22.5865 N.am      2 SEC2        0.0000 
     34 N         -35.2630  -13.0100   22.6720 N.am     10 SEL2        0.0000 
     35 N         -37.9110  -12.1660   22.5010 N.am      6 SEP2        0.0000 
     36 O         -31.9880  -11.7570   21.7130 O.2       1 ALC1        0.0000 
     37 O         -33.4520  -11.8340   22.0920 O.2       9 ALL1        0.0000 
     38 O         -30.5240  -11.6800   21.3340 O.2       5 ALP1        0.0000 
     39 O         -34.0530  -10.5290   21.7670 O.2       1 ALC1        0.0000 
     40 O         -34.6540   -9.2240   21.4420 O.2       5 ALP1        0.0000 
     41 CA        -35.9125  -15.2710   23.0155 C.3       4 GLC5        0.0000 
     42 CA        -33.9590  -15.5270   22.6230 C.3      12 GLL5        0.0000 
     43 CA        -37.8660  -15.0150   23.4080 C.3       8 GLP5        0.0000 
     44 CA        -31.6605  -15.3500   20.6945 C.3       4 GLC5        0.0000 
     45 CA        -31.8150  -16.6790   22.4710 C.3      12 GLL5        0.0000 
     46 NZ        -20.3640  -24.7020   17.7360 N.4       3 LYC4        0.0000 
     47 NZ        -19.9920  -23.6910   17.1960 N.4      11 LYL4        0.0000 
     48 NZ        -20.7360  -25.7130   18.2760 N.4       7 LYP4        0.0000 
     49 N         -19.1780  -23.2035   15.9300 N.am      2 SEC2        0.0000 
     50 N         -19.9920  -23.6910   17.1960 N.am     10 SEL2        0.0000 
     51 N         -18.3640  -22.7160   14.6640 N.am      6 SEP2        0.0000 
     52 N         -20.3640  -24.7020   17.7360 N.am      2 SEC2        0.0000 
     53 N         -20.7360  -25.7130   18.2760 N.am      6 SEP2        0.0000 
     54 N         -17.9940  -20.5895   18.2025 N.am      2 SEC2        0.0000 
     55 N         -19.2670  -21.5070   18.2710 N.am     10 SEL2        0.0000 
     56 N         -16.7210  -19.6720   18.1340 N.am      6 SEP2        0.0000 
     57 CA        -20.9189  -17.1971   20.7563 C.3       4 GLC5        0.0000 
     58 CA        -19.2270  -18.2920   20.9850 C.3      12 GLL5        0.0000 
     59 CA        -27.1050  -16.1560   18.9067 C.3       4 GLC5        0.0000 
     60 CA        -28.0700  -17.7810   20.3600 C.3      12 GLL5        0.0000 
     61 CA        -26.1450  -15.2500   17.1840 C.3       8 GLP5        0.0000 
     62 CA        -27.8025  -14.2172   21.3282 C.3       4 GLC5        0.0000 
     63 CA        -28.0600  -16.3430   20.8990 C.3      12 GLL5        0.0000 
     64 CA        -27.6030  -17.5445   24.1850 C.3       4 GLC5        0.0000 
     65 CA        -27.0210  -18.8890   25.6160 C.3       8 GLP5        0.0000 
     66 CA        -33.6075  -14.9827   20.8850 C.3       4 GLC5        0.0000 
     67 CA        -31.8870  -14.3290   22.4010 C.3      12 GLL5        0.0000 
     68 CA        -34.6320  -15.6530   19.3080 C.3       8 GLP5        0.0000 
     69 CA        -32.0445  -14.1668   20.6900 C.3       4 GLC5        0.0000 
     70 CA        -33.2790  -14.2960   22.5230 C.3      12 GLL5        0.0000 
     71 CA        -32.4322  -17.7983   20.7855 C.3       4 GLC5        0.0000 
     72 CA        -33.2020  -16.7040   22.6090 C.3      12 GLL5        0.0000 
     73 CA        -32.3560  -18.9050   19.0310 C.3       8 GLP5        0.0000 
     74 CA        -33.9469  -17.0801   23.8852 C.3       4 GLC5        0.0000 
     75 CA        -35.1960  -17.7630   25.2270 C.3       8 GLP5        0.0000 
     76 CA        -33.6649  -16.0251   20.9258 C.3       4 GLC5        0.0000 
@<TRIPOS>BOND
@<TRIPOS>SUBSTRUCTURE
     1 ALC1       36 GROUP        1 X    ALC  0     ROOT ALC X 1
     2 SEC2        1 GROUP        1 X    SEC  0     **** SEC X 2
     3 LYC4       46 GROUP        1 X    LYC  0     **** LYC X 4
     4 GLC5        4 GROUP        1 X    GLC  0     **** GLC X 6
     5 ALP1       38 GROUP        1 Y    ALP  0     ROOT ALP Y 8
     6 SEP2        3 GROUP        1 Y    SEP  0     **** SEP Y 9
     7 LYP4       48 GROUP        1 Y    LYP  0     **** LYP Y 11
     8 GLP5        6 GROUP        1 Y    GLP  0     **** GLP Y 13
     9 ALL1       37 GROUP        1 Z    ALL  0     ROOT ALL Z 15
    10 SEL2        2 GROUP        1 Z    SEL  0     **** SEL Z 16
    11 LYL4       47 GROUP        1 Z    LYL  0     **** LYL Z 18
    12 GLL5        5 GROUP        1 Z    GLL  0     **** GLL Z 20
@<TRIPOS>SET

