#    Name: 4hfn_NAP_2_ligand
#    Modification time : Tue Mar 25 00:58:08 2014

@<TRIPOS>MOLECULE
4hfn_NAP_2_ligand
   73    77     1     0     0
SMALL
NO_CHARGES


@<TRIPOS>ATOM
      1 PA        -26.9460  -22.0490   20.7690 P.3       1 NAP400      0.0000 
      2 O1A       -27.9000  -23.2160   20.7870 O.co2     1 NAP400      0.0000 
      3 O2A       -26.3510  -21.5530   19.4670 O.co2     1 NAP400      0.0000 
      4 O5B       -25.6940  -22.2390   21.7740 O.3       1 NAP400      0.0000 
      5 C5B       -24.6150  -21.3010   21.8100 C.3       1 NAP400      0.0000 
      6 C4B       -23.9060  -21.3220   20.4630 C.3       1 NAP400      0.0000 
      7 O4B       -23.2690  -20.0670   20.2120 O.3       1 NAP400      0.0000 
      8 C3B       -22.8620  -22.4320   20.3280 C.3       1 NAP400      0.0000 
      9 O3B       -23.4320  -23.5630   19.6450 O.3       1 NAP400      0.0000 
     10 C2B       -21.8820  -21.7390   19.4200 C.3       1 NAP400      0.0000 
     11 O2B       -21.7150  -22.2650   18.1310 O.3       1 NAP400      0.0000 
     12 C1B       -22.0000  -20.2460   19.5720 C.3       1 NAP400      0.0000 
     13 N9A       -20.9220  -19.6140   20.3890 N.pl3     1 NAP400      0.0000 
     14 C8A       -20.6610  -19.8180   21.6990 C.2       1 NAP400      0.0000 
     15 N7A       -19.6240  -19.0170   22.0650 N.2       1 NAP400      0.0000 
     16 C5A       -19.2270  -18.2920   20.9850 C.ar      1 NAP400      0.0000 
     17 C6A       -18.2380  -17.3170   20.7490 C.ar      1 NAP400      0.0000 
     18 N6A       -17.3930  -16.8880   21.7120 N.pl3     1 NAP400      0.0000 
     19 N1A       -18.1160  -16.7790   19.5220 N.ar      1 NAP400      0.0000 
     20 C2A       -18.9350  -17.1660   18.5230 C.ar      1 NAP400      0.0000 
     21 N3A       -19.8980  -18.0920   18.7000 N.ar      1 NAP400      0.0000 
     22 C4A       -20.0650  -18.6740   19.9260 C.ar      1 NAP400      0.0000 
     23 O3        -27.7330  -20.7400   21.3590 O.3       1 NAP400      0.0000 
     24 PN        -29.1650  -20.2210   20.8160 P.3       1 NAP400      0.0000 
     25 O1N       -29.3420  -20.4930   19.3490 O.co2     1 NAP400      0.0000 
     26 O2N       -30.2870  -20.7220   21.7070 O.co2     1 NAP400      0.0000 
     27 O5D       -29.0170  -18.6040   21.0760 O.3       1 NAP400      0.0000 
     28 C5D       -28.0700  -17.7810   20.3600 C.3       1 NAP400      0.0000 
     29 C4D       -28.0600  -16.3430   20.8990 C.3       1 NAP400      0.0000 
     30 O4D       -29.4000  -15.8230   20.9110 O.3       1 NAP400      0.0000 
     31 C3D       -27.5460  -16.2800   22.3400 C.3       1 NAP400      0.0000 
     32 O3D       -26.6640  -15.1780   22.5390 O.3       1 NAP400      0.0000 
     33 C2D       -28.8240  -16.1200   23.1680 C.3       1 NAP400      0.0000 
     34 O2D       -28.5690  -15.4600   24.4060 O.3       1 NAP400      0.0000 
     35 C1D       -29.7440  -15.3550   22.2290 C.3       1 NAP400      0.0000 
     36 N1N       -31.1900  -15.4820   22.3950 N.pl3     1 NAP400      0.0000 
     37 C2N       -31.8870  -14.3290   22.4010 C.ar      1 NAP400      0.0000 
     38 C3N       -33.2790  -14.2960   22.5230 C.ar      1 NAP400      0.0000 
     39 C7N       -34.0520  -12.9860   22.4680 C.2       1 NAP400      0.0000 
     40 O7N       -35.2630  -13.0100   22.6720 O.2       1 NAP400      0.0000 
     41 N7N       -33.4520  -11.8340   22.0920 N.am      1 NAP400      0.0000 
     42 C4N       -33.9590  -15.5270   22.6230 C.ar      1 NAP400      0.0000 
     43 C5N       -33.2020  -16.7040   22.6090 C.ar      1 NAP400      0.0000 
     44 C6N       -31.8150  -16.6790   22.4710 C.ar      1 NAP400      0.0000 
     45 P2B       -20.2890  -22.2320   17.4030 P.3       1 NAP400      0.0000 
     46 O1X       -19.9920  -23.6910   17.1960 O.co2     1 NAP400      0.0000 
     47 O2X       -20.7560  -21.4360   16.2080 O.co2     1 NAP400      0.0000 
     48 O3X       -19.2670  -21.5070   18.2710 O.co2     1 NAP400      0.0000 
     49 H         -23.8840  -21.5542   22.5807 H         1 NAP400      0.0000 
     50 H         -24.9688  -20.2837   21.9899 H         1 NAP400      0.0000 
     51 H         -24.6676  -21.5008   19.6862 H         1 NAP400      0.0000 
     52 H         -22.4360  -22.6194   21.2384 H         1 NAP400      0.0000 
     53 H         -20.8438  -21.9531   19.9927 H         1 NAP400      0.0000 
     54 H         -22.0317  -19.8065   18.5868 H         1 NAP400      0.0000 
     55 H         -21.1284  -20.4280   22.2816 H         1 NAP400      0.0000 
     56 H         -16.6985  -16.2279   21.4258 H         1 NAP400      0.0000 
     57 H         -17.5371  -17.2687   22.6254 H         1 NAP400      0.0000 
     58 H         -18.8172  -16.7274   17.5675 H         1 NAP400      0.0000 
     59 H         -28.3113  -17.7341   19.2879 H         1 NAP400      0.0000 
     60 H         -27.0481  -18.1779   20.4486 H         1 NAP400      0.0000 
     61 H         -27.4221  -15.7424   20.2838 H         1 NAP400      0.0000 
     62 H         -27.1181  -17.2234   22.5788 H         1 NAP400      0.0000 
     63 H         -29.2364  -17.1103   23.2910 H         1 NAP400      0.0000 
     64 H         -29.4506  -14.2926   22.2786 H         1 NAP400      0.0000 
     65 H         -31.3854  -13.4095   22.3119 H         1 NAP400      0.0000 
     66 H         -34.0285  -11.0169   22.0932 H         1 NAP400      0.0000 
     67 H         -32.4851  -11.9014   21.8460 H         1 NAP400      0.0000 
     68 H         -34.9665  -15.5537   22.7025 H         1 NAP400      0.0000 
     69 H         -33.6870  -17.6163   22.7038 H         1 NAP400      0.0000 
     70 H         -31.2956  -17.5625   22.4297 H         1 NAP400      0.0000 
     71 H         -22.8632  -23.6878   18.8321 H         1 NAP400      0.0000 
     72 H         -25.8238  -15.5813   22.9015 H         1 NAP400      0.0000 
     73 H         -27.6913  -14.9986   24.2771 H         1 NAP400      0.0000 
@<TRIPOS>BOND
     1    2    1 ar   
     2    3    1 ar   
     3    4    1 1    
     4   23    1 1    
     5    5    4 1    
     6    6    5 1    
     7   49    5 1    
     8   50    5 1    
     9    7    6 1    
    10    8    6 1    
    11   51    6 1    
    12   12    7 1    
    13    9    8 1    
    14   10    8 1    
    15   52    8 1    
    16   71    9 1    
    17   11   10 1    
    18   12   10 1    
    19   53   10 1    
    20   45   11 1    
    21   13   12 1    
    22   54   12 1    
    23   14   13 1    
    24   22   13 1    
    25   15   14 2    
    26   55   14 1    
    27   16   15 1    
    28   17   16 ar   
    29   22   16 ar   
    30   18   17 1    
    31   19   17 ar   
    32   56   18 1    
    33   57   18 1    
    34   20   19 ar   
    35   21   20 ar   
    36   58   20 1    
    37   22   21 ar   
    38   24   23 1    
    39   25   24 ar   
    40   26   24 ar   
    41   27   24 1    
    42   28   27 1    
    43   29   28 1    
    44   59   28 1    
    45   60   28 1    
    46   30   29 1    
    47   31   29 1    
    48   61   29 1    
    49   35   30 1    
    50   32   31 1    
    51   33   31 1    
    52   62   31 1    
    53   72   32 1    
    54   34   33 1    
    55   35   33 1    
    56   63   33 1    
    57   73   34 1    
    58   36   35 1    
    59   64   35 1    
    60   37   36 ar   
    61   44   36 ar   
    62   38   37 ar   
    63   65   37 1    
    64   39   38 1    
    65   42   38 ar   
    66   40   39 2    
    67   41   39 am   
    68   66   41 1    
    69   67   41 1    
    70   43   42 ar   
    71   68   42 1    
    72   44   43 ar   
    73   69   43 1    
    74   70   44 1    
    75   46   45 ar   
    76   47   45 ar   
    77   48   45 ar   
@<TRIPOS>SUBSTRUCTURE
     1 NAP400      1 GROUP   
@<TRIPOS>SET

