#    Name: 4dcv_GCP_1_INTS_M
#    Modification time : Tue Mar 25 09:36:23 2014

@<TRIPOS>MOLECULE
4dcv_GCP_1_INTS_M
   70     0    12     0     0
SMALL
NO_CHARGES


@<TRIPOS>ATOM
      1 NZ        -12.1535   -7.4975  -34.1580 N.4       3 LYC4        0.0000 
      2 NZ        -13.7440   -6.6470  -34.1920 N.4      11 LYL4        0.0000 
      3 NZ        -10.5630   -8.3480  -34.1240 N.4       7 LYP4        0.0000 
      4 N         -14.1125   -7.0970  -35.5770 N.am      2 SEC2        0.0000 
      5 N         -13.7440   -6.6470  -34.1920 N.am     10 SEL2        0.0000 
      6 N         -14.4810   -7.5470  -36.9620 N.am      6 SEP2        0.0000 
      7 NZ        -12.0520   -7.9530  -32.9695 N.4       3 LYC4        0.0000 
      8 NZ        -13.5410   -7.5580  -31.8150 N.4      11 LYL4        0.0000 
      9 NZ        -14.0360   -5.7820  -31.2590 N.4       3 LYC4        0.0000 
     10 NZ        -14.5310   -4.0060  -30.7030 N.4       7 LYP4        0.0000 
     11 NZ        -14.9395   -4.9500  -31.5280 N.4       3 LYC4        0.0000 
     12 NZ        -15.3480   -5.8940  -32.3530 N.4      11 LYL4        0.0000 
     13 N         -14.9395   -4.9500  -31.5280 N.am      2 SEC2        0.0000 
     14 N         -15.3480   -5.8940  -32.3530 N.am     10 SEL2        0.0000 
     15 N         -14.5310   -4.0060  -30.7030 N.am      6 SEP2        0.0000 
     16 CA        -15.5465   -8.4445  -35.3165 C.3       4 GLC5        0.0000 
     17 CA        -15.5870   -8.3570  -33.3090 C.3      12 GLL5        0.0000 
     18 CA        -15.5060   -8.5320  -37.3240 C.3       8 GLP5        0.0000 
     19 NZ        -12.0550   -9.0230  -34.3010 N.4       3 LYC4        0.0000 
     20 NZ        -13.5470   -9.6980  -34.4780 N.4      11 LYL4        0.0000 
     21 N         -13.7910  -11.0415  -35.4105 N.am      2 SEC2        0.0000 
     22 N         -13.5470   -9.6980  -34.4780 N.am     10 SEL2        0.0000 
     23 N         -14.0350  -12.3850  -36.3430 N.am      6 SEP2        0.0000 
     24 N         -13.1045  -11.3455  -34.2550 N.am      2 SEC2        0.0000 
     25 N         -12.6620  -12.9930  -34.0320 N.am      6 SEP2        0.0000 
     26 N         -14.0610  -11.8185  -31.7030 N.am      2 SEC2        0.0000 
     27 N         -14.5950  -10.7120  -32.3130 N.am     10 SEL2        0.0000 
     28 N         -13.5270  -12.9250  -31.0930 N.am      6 SEP2        0.0000 
     29 N         -14.6720  -10.9020  -30.7655 N.am      2 SEC2        0.0000 
     30 N         -14.7490  -11.0920  -29.2180 N.am      6 SEP2        0.0000 
     31 N         -16.1270  -13.7675  -32.1585 N.am      2 SEC2        0.0000 
     32 N         -16.7030  -12.6250  -32.9650 N.am     10 SEL2        0.0000 
     33 N         -15.5510  -14.9100  -31.3520 N.am      6 SEP2        0.0000 
     34 N         -17.2130  -13.7610  -33.0035 N.am      2 SEC2        0.0000 
     35 N         -17.7230  -14.8970  -33.0420 N.am      6 SEP2        0.0000 
     36 CA        -16.8570   -9.7030  -36.7060 C.3       4 GLC5        0.0000 
     37 CA        -18.2080  -10.8740  -36.0880 C.3      12 GLL5        0.0000 
     38 N         -17.8690  -12.3240  -39.1375 N.am      2 SEC2        0.0000 
     39 N         -18.8900  -12.4730  -37.7900 N.am     10 SEL2        0.0000 
     40 N         -16.8480  -12.1750  -40.4850 N.am      6 SEP2        0.0000 
     41 CA        -18.0735  -13.6115  -38.9465 C.3       4 GLC5        0.0000 
     42 CA        -19.7070  -13.6330  -37.6010 C.3      12 GLL5        0.0000 
     43 CA        -16.4400  -13.5900  -40.2920 C.3       8 GLP5        0.0000 
     44 N         -15.6510  -16.4330  -37.2625 N.am      2 SEC2        0.0000 
     45 N         -17.2730  -16.2720  -36.9190 N.am     10 SEL2        0.0000 
     46 N         -14.0290  -16.5940  -37.6060 N.am      6 SEP2        0.0000 
     47 CA        -16.7395  -16.2435  -39.6560 C.3       4 GLC5        0.0000 
     48 CA        -17.8200  -16.7820  -38.0400 C.3      12 GLL5        0.0000 
     49 CA        -15.6590  -15.7050  -41.2720 C.3       8 GLP5        0.0000 
     50 CA        -16.7085  -17.9310  -36.4590 C.3       4 GLC5        0.0000 
     51 CA        -15.5970  -19.0800  -34.8780 C.3       8 GLP5        0.0000 
     52 CA        -19.0355  -18.3285  -37.6850 C.3       4 GLC5        0.0000 
     53 CA        -20.2510  -19.8750  -37.3300 C.3       8 GLP5        0.0000 
     54 N         -17.1380  -20.3305  -38.9730 N.am      2 SEC2        0.0000 
     55 N         -16.7750  -18.8650  -38.5930 N.am     10 SEL2        0.0000 
     56 N         -17.5010  -21.7960  -39.3530 N.am      6 SEP2        0.0000 
     57 N         -17.4630  -19.7250  -37.4520 N.am      2 SEC2        0.0000 
     58 N         -18.1510  -20.5850  -36.3110 N.am      6 SEP2        0.0000 
     59 O         -18.1930  -19.2295  -40.7790 O.2       1 ALC1        0.0000 
     60 O         -18.3810  -18.1600  -39.9630 O.2       9 ALL1        0.0000 
     61 O         -18.0050  -20.2990  -41.5950 O.2       5 ALP1        0.0000 
     62 O         -19.2640  -19.2155  -40.9505 O.2       1 ALC1        0.0000 
     63 O         -20.1470  -20.2710  -41.9380 O.2       5 ALP1        0.0000 
     64 O         -19.0125  -18.9130  -41.5225 O.2       1 ALC1        0.0000 
     65 O         -20.0200  -17.5270  -41.4500 O.2       9 ALL1        0.0000 
     66 O         -20.0835  -18.8990  -41.6940 O.2       1 ALC1        0.0000 
     67 CA        -17.6470  -14.7080  -39.3865 C.3       4 GLC5        0.0000 
     68 CA        -18.8540  -15.8260  -38.4810 C.3      12 GLL5        0.0000 
     69 CA        -20.4800  -17.2640  -38.5005 C.3       4 GLC5        0.0000 
     70 CA        -22.1060  -18.7020  -38.5200 C.3       8 GLP5        0.0000 
@<TRIPOS>BOND
@<TRIPOS>SUBSTRUCTURE
     1 ALC1       59 GROUP        1 X    ALC  0     ROOT ALC X 1
     2 SEC2        4 GROUP        1 X    SEC  0     **** SEC X 2
     3 LYC4        1 GROUP        1 X    LYC  0     **** LYC X 4
     4 GLC5       16 GROUP        1 X    GLC  0     **** GLC X 6
     5 ALP1       61 GROUP        1 Y    ALP  0     ROOT ALP Y 8
     6 SEP2        6 GROUP        1 Y    SEP  0     **** SEP Y 9
     7 LYP4        3 GROUP        1 Y    LYP  0     **** LYP Y 11
     8 GLP5       18 GROUP        1 Y    GLP  0     **** GLP Y 13
     9 ALL1       60 GROUP        1 Z    ALL  0     ROOT ALL Z 15
    10 SEL2        5 GROUP        1 Z    SEL  0     **** SEL Z 16
    11 LYL4        2 GROUP        1 Z    LYL  0     **** LYL Z 18
    12 GLL5       17 GROUP        1 Z    GLL  0     **** GLL Z 20
@<TRIPOS>SET

