#    Name: 4dcv_GCP_1_ligand
#    Modification time : Tue Mar 25 09:36:24 2014

@<TRIPOS>MOLECULE
4dcv_GCP_1_ligand
   46    48     1     0     0
SMALL
NO_CHARGES


@<TRIPOS>ATOM
      1 PG        -14.4520   -6.9930  -32.8920 P.3       1 GCP500      0.0000 
      2 O1G       -13.7440   -6.6470  -34.1920 O.co2     1 GCP500      0.0000 
      3 O2G       -13.5410   -7.5580  -31.8150 O.co2     1 GCP500      0.0000 
      4 O3G       -15.3480   -5.8940  -32.3530 O.co2     1 GCP500      0.0000 
      5 C3B       -15.5870   -8.3570  -33.3090 C.3       1 GCP500      0.0000 
      6 PB        -14.7540   -9.9460  -33.6170 P.3       1 GCP500      0.0000 
      7 O1B       -13.5470   -9.6980  -34.4780 O.co2     1 GCP500      0.0000 
      8 O2B       -14.5950  -10.7120  -32.3130 O.co2     1 GCP500      0.0000 
      9 O3A       -15.7750  -10.8190  -34.4910 O.3       1 GCP500      0.0000 
     10 PA        -17.0930  -11.4150  -33.7770 P.3       1 GCP500      0.0000 
     11 O1A       -16.7030  -12.6250  -32.9650 O.co2     1 GCP500      0.0000 
     12 O2A       -17.7730  -10.2480  -33.1140 O.co2     1 GCP500      0.0000 
     13 O5'       -17.9400  -11.8430  -35.0700 O.3       1 GCP500      0.0000 
     14 C5'       -18.2080  -10.8740  -36.0880 C.3       1 GCP500      0.0000 
     15 C4'       -19.3340  -11.3690  -36.9860 C.3       1 GCP500      0.0000 
     16 O4'       -18.8900  -12.4730  -37.7900 O.3       1 GCP500      0.0000 
     17 C3'       -20.5290  -11.8840  -36.2190 C.3       1 GCP500      0.0000 
     18 O3'       -21.6780  -11.5210  -36.9930 O.3       1 GCP500      0.0000 
     19 C2'       -20.3650  -13.3930  -36.2550 C.3       1 GCP500      0.0000 
     20 O2'       -21.6200  -14.0620  -36.1760 O.3       1 GCP500      0.0000 
     21 C1'       -19.7070  -13.6330  -37.6010 C.3       1 GCP500      0.0000 
     22 N9        -18.8490  -14.8340  -37.5840 N.pl3     1 GCP500      0.0000 
     23 C8        -17.9010  -15.0980  -36.6600 C.2       1 GCP500      0.0000 
     24 N7        -17.2730  -16.2720  -36.9190 N.2       1 GCP500      0.0000 
     25 C5        -17.8200  -16.7820  -38.0400 C.2       1 GCP500      0.0000 
     26 C6        -17.6230  -17.9970  -38.8770 C.2       1 GCP500      0.0000 
     27 O6        -16.7750  -18.8650  -38.5930 O.2       1 GCP500      0.0000 
     28 N1        -18.3810  -18.1600  -39.9630 N.am      1 GCP500      0.0000 
     29 C2        -19.3130  -17.2600  -40.3230 C.2       1 GCP500      0.0000 
     30 N2        -20.0200  -17.5270  -41.4500 N.pl3     1 GCP500      0.0000 
     31 N3        -19.5520  -16.1210  -39.6050 N.2       1 GCP500      0.0000 
     32 C4        -18.8540  -15.8260  -38.4810 C.2       1 GCP500      0.0000 
     33 H         -16.0612   -8.0894  -34.1982 H         1 GCP500      0.0000 
     34 H         -16.2030   -8.4969  -32.4795 H         1 GCP500      0.0000 
     35 H         -17.3284  -10.6952  -36.7175 H         1 GCP500      0.0000 
     36 H         -18.5157   -9.9127  -35.6601 H         1 GCP500      0.0000 
     37 H         -19.6630  -10.5604  -37.6228 H         1 GCP500      0.0000 
     38 H         -20.5222  -11.5323  -35.2603 H         1 GCP500      0.0000 
     39 H         -19.6787  -13.6733  -35.4957 H         1 GCP500      0.0000 
     40 H         -20.4565  -13.6950  -38.3429 H         1 GCP500      0.0000 
     41 H         -17.6901  -14.5163  -35.8961 H         1 GCP500      0.0000 
     42 H         -18.2480  -19.0227  -40.5624 H         1 GCP500      0.0000 
     43 H         -20.1590  -18.4941  -41.6635 H         1 GCP500      0.0000 
     44 H         -20.3395  -16.7331  -41.9674 H         1 GCP500      0.0000 
     45 H         -22.2896  -12.3100  -36.9337 H         1 GCP500      0.0000 
     46 H         -21.7257  -14.3004  -35.2106 H         1 GCP500      0.0000 
@<TRIPOS>BOND
     1    2    1 ar   
     2    3    1 ar   
     3    4    1 ar   
     4    5    1 1    
     5    6    5 1    
     6   33    5 1    
     7   34    5 1    
     8    7    6 ar   
     9    8    6 ar   
    10    9    6 1    
    11   10    9 1    
    12   11   10 ar   
    13   12   10 ar   
    14   13   10 1    
    15   14   13 1    
    16   15   14 1    
    17   35   14 1    
    18   36   14 1    
    19   16   15 1    
    20   17   15 1    
    21   37   15 1    
    22   21   16 1    
    23   18   17 1    
    24   19   17 1    
    25   38   17 1    
    26   45   18 1    
    27   20   19 1    
    28   21   19 1    
    29   39   19 1    
    30   46   20 1    
    31   22   21 1    
    32   40   21 1    
    33   23   22 1    
    34   32   22 1    
    35   24   23 2    
    36   41   23 1    
    37   25   24 1    
    38   26   25 1    
    39   32   25 2    
    40   27   26 2    
    41   28   26 am   
    42   29   28 1    
    43   42   28 1    
    44   30   29 1    
    45   31   29 2    
    46   43   30 1    
    47   44   30 1    
    48   32   31 1    
@<TRIPOS>SUBSTRUCTURE
     1 GCP500      1 GROUP   
@<TRIPOS>SET

