#    Name: 2dhf_DZF_1_INTS_M
#    Modification time : Tue Mar 25 10:08:44 2014

@<TRIPOS>MOLECULE
2dhf_DZF_1_INTS_M
   47     0    12     0     0
SMALL
NO_CHARGES


@<TRIPOS>ATOM
      1 O          29.2435   34.0055   19.7235 O.2       1 ALC1        0.0000 
      2 O          28.3190   33.4530   20.5290 O.2       9 ALL1        0.0000 
      3 O          30.1680   34.5580   18.9180 O.2       5 ALP1        0.0000 
      4 O          29.5740   32.9270   19.8105 O.2       1 ALC1        0.0000 
      5 O          30.8290   32.4010   19.0920 O.2       5 ALP1        0.0000 
      6 N          29.9055   31.8425   19.7700 N.am      2 SEC2        0.0000 
      7 N          28.9820   31.2840   20.4480 N.am     10 SEL2        0.0000 
      8 N          30.8290   32.4010   19.0920 N.am      6 SEP2        0.0000 
      9 CA         24.5595   28.9185   24.4485 C.3       4 GLC5        0.0000 
     10 CA         25.3510   29.0450   22.5910 C.3      12 GLL5        0.0000 
     11 CA         23.7680   28.7920   26.3060 C.3       8 GLP5        0.0000 
     12 CA         25.2125   31.5435   20.9120 C.3       4 GLC5        0.0000 
     13 CA         26.7050   30.5390   21.7270 C.3      12 GLL5        0.0000 
     14 CA         23.7200   32.5480   20.0970 C.3       8 GLP5        0.0000 
     15 CA         24.8585   25.4255   23.5185 C.3       4 GLC5        0.0000 
     16 CA         25.8440   26.5750   22.7010 C.3      12 GLL5        0.0000 
     17 CA         23.8730   24.2760   24.3360 C.3       8 GLP5        0.0000 
     18 CA         30.2060   22.9880   24.6040 C.3       4 GLC5        0.0000 
     19 CA         30.3080   24.7460   23.8150 C.3      12 GLL5        0.0000 
     20 CA         30.1040   21.2300   25.3930 C.3       8 GLP5        0.0000 
     21 CA         31.5605   23.2880   24.1450 C.3       4 GLC5        0.0000 
     22 CA         32.8130   21.8300   24.4750 C.3       8 GLP5        0.0000 
     23 CA         32.0465   26.5790   28.1260 C.3       4 GLC5        0.0000 
     24 CA         33.3740   27.2930   26.9070 C.3      12 GLL5        0.0000 
     25 CA         30.7190   25.8650   29.3450 C.3       8 GLP5        0.0000 
     26 CA         34.6975   30.5695   26.7440 C.3       4 GLC5        0.0000 
     27 CA         35.2820   28.9580   26.1010 C.3      12 GLL5        0.0000 
     28 CA         34.1130   32.1810   27.3870 C.3       8 GLP5        0.0000 
     29 NZ         31.7955   29.8720   29.0820 N.4       3 LYC4        0.0000 
     30 NZ         32.4810   29.3150   27.8230 N.4      11 LYL4        0.0000 
     31 NZ         31.5160   29.9570   31.5240 N.4       7 LYP4        0.0000 
     32 N          31.7955   29.8720   29.0820 N.am      2 SEC2        0.0000 
     33 N          32.4810   29.3150   27.8230 N.am     10 SEL2        0.0000 
     34 N          31.1100   30.4290   30.3410 N.am      6 SEP2        0.0000 
     35 N          35.3655   29.4090   28.9445 N.am      2 SEC2        0.0000 
     36 N          34.1060   28.2540   28.9030 N.am     10 SEL2        0.0000 
     37 N          36.6250   30.5640   28.9860 N.am      6 SEP2        0.0000 
     38 N          33.3320   28.6895   30.2275 N.am      2 SEC2        0.0000 
     39 N          32.5580   29.1250   31.5520 N.am      6 SEP2        0.0000 
     40 CA         29.2245   24.9703   25.8125 C.3       4 GLC5        0.0000 
     41 CA         29.6580   26.8280   24.7820 C.3      12 GLL5        0.0000 
     42 CA         28.3100   23.6050   26.9180 C.3       8 GLP5        0.0000 
     43 CA         28.5035   24.5427   25.1876 C.3       4 GLC5        0.0000 
     44 CA         28.4170   26.7960   24.1420 C.3      12 GLL5        0.0000 
     45 CA         34.0242   28.5888   24.1230 C.3       4 GLC5        0.0000 
     46 CA         34.3810   27.6570   25.7850 C.3      12 GLL5        0.0000 
     47 CA         33.2170   28.8700   22.3030 C.3       8 GLP5        0.0000 
@<TRIPOS>BOND
@<TRIPOS>SUBSTRUCTURE
     1 ALC1        1 GROUP        1 X    ALC  0     ROOT ALC X 1
     2 SEC2        6 GROUP        1 X    SEC  0     **** SEC X 2
     3 LYC4       29 GROUP        1 X    LYC  0     **** LYC X 4
     4 GLC5        9 GROUP        1 X    GLC  0     **** GLC X 6
     5 ALP1        3 GROUP        1 Y    ALP  0     ROOT ALP Y 8
     6 SEP2        8 GROUP        1 Y    SEP  0     **** SEP Y 9
     7 LYP4       31 GROUP        1 Y    LYP  0     **** LYP Y 11
     8 GLP5       11 GROUP        1 Y    GLP  0     **** GLP Y 13
     9 ALL1        2 GROUP        1 Z    ALL  0     ROOT ALL Z 15
    10 SEL2        7 GROUP        1 Z    SEL  0     **** SEL Z 16
    11 LYL4       30 GROUP        1 Z    LYL  0     **** LYL Z 18
    12 GLL5       10 GROUP        1 Z    GLL  0     **** GLL Z 20
@<TRIPOS>SET

