#    Name: 2dhf_DZF_1_ligand
#    Modification time : Tue Mar 25 10:08:44 2014

@<TRIPOS>MOLECULE
2dhf_DZF_1_ligand
   50    52     1     0     0
SMALL
NO_CHARGES


@<TRIPOS>ATOM
      1 N1         26.9020   31.8660   21.4190 N.pl3     1 DZF187      0.0000 
      2 C2         28.0250   32.2370   20.7930 C.2       1 DZF187      0.0000 
      3 NA2        28.3190   33.4530   20.5290 N.pl3     1 DZF187      0.0000 
      4 N3         28.9820   31.2840   20.4480 N.2       1 DZF187      0.0000 
      5 C4         28.8450   29.9450   20.7430 C.2       1 DZF187      0.0000 
      6 O4         29.7670   29.1850   20.4240 O.2       1 DZF187      0.0000 
      7 C4A        27.5870   29.5530   21.4030 C.ar      1 DZF187      0.0000 
      8 C5         27.3750   28.2380   21.7120 C.ar      1 DZF187      0.0000 
      9 C6         26.2300   27.9750   22.3270 C.ar      1 DZF187      0.0000 
     10 C7         25.3510   29.0450   22.5910 C.ar      1 DZF187      0.0000 
     11 N8         25.5560   30.3180   22.3180 N.ar      1 DZF187      0.0000 
     12 C8A        26.7050   30.5390   21.7270 C.ar      1 DZF187      0.0000 
     13 C9         25.8440   26.5750   22.7010 C.3       1 DZF187      0.0000 
     14 N10        26.9610   25.6050   22.6810 N.pl3     1 DZF187      0.0000 
     15 C11        30.6200   25.8430   24.6320 C.ar      1 DZF187      0.0000 
     16 C12        29.6580   26.8280   24.7820 C.ar      1 DZF187      0.0000 
     17 C13        28.4170   26.7960   24.1420 C.ar      1 DZF187      0.0000 
     18 C14        28.1590   25.7360   23.3530 C.ar      1 DZF187      0.0000 
     19 C15        29.1060   24.6950   23.1670 C.ar      1 DZF187      0.0000 
     20 C16        30.3080   24.7460   23.8150 C.ar      1 DZF187      0.0000 
     21 C          31.8870   26.0060   25.3750 C.2       1 DZF187      0.0000 
     22 O          32.7580   25.1410   25.3240 O.2       1 DZF187      0.0000 
     23 N          32.0590   27.0610   26.1430 N.am      1 DZF187      0.0000 
     24 CA         33.3740   27.2930   26.9070 C.3       1 DZF187      0.0000 
     25 CB         34.3810   27.6570   25.7850 C.3       1 DZF187      0.0000 
     26 CG         35.2820   28.9580   26.1010 C.3       1 DZF187      0.0000 
     27 CD         36.7130   28.5730   25.5550 C.2       1 DZF187      0.0000 
     28 OE1        36.8610   27.3530   25.8510 O.co2     1 DZF187      0.0000 
     29 OE2        37.4430   29.3280   24.9280 O.co2     1 DZF187      0.0000 
     30 CT         33.2900   28.3630   27.9420 C.2       1 DZF187      0.0000 
     31 O1         32.4810   29.3150   27.8230 O.co2     1 DZF187      0.0000 
     32 O2         34.1060   28.2540   28.9030 O.co2     1 DZF187      0.0000 
     33 H          26.1762   32.5586   21.6772 H         1 DZF187      0.0000 
     34 H          27.9938   34.1363   21.1828 H         1 DZF187      0.0000 
     35 H          28.8465   33.6067   19.6935 H         1 DZF187      0.0000 
     36 H          28.0587   27.5288   21.4783 H         1 DZF187      0.0000 
     37 H          24.4210   28.7552   23.0678 H         1 DZF187      0.0000 
     38 H          25.0399   26.2303   22.0130 H         1 DZF187      0.0000 
     39 H          25.3829   26.5901   23.7138 H         1 DZF187      0.0000 
     40 H          26.7885   24.7453   22.0865 H         1 DZF187      0.0000 
     41 H          29.8686   27.6458   25.4104 H         1 DZF187      0.0000 
     42 H          27.7537   27.5522   24.2815 H         1 DZF187      0.0000 
     43 H          28.8660   23.9164   22.5426 H         1 DZF187      0.0000 
     44 H          30.9970   23.9860   23.7140 H         1 DZF187      0.0000 
     45 H          31.3570   27.8006   26.2981 H         1 DZF187      0.0000 
     46 H          33.6875   26.3562   27.3202 H         1 DZF187      0.0000 
     47 H          33.8423   27.8537   24.8556 H         1 DZF187      0.0000 
     48 H          35.0647   26.8219   25.6180 H         1 DZF187      0.0000 
     49 H          35.3218   29.0879   27.1380 H         1 DZF187      0.0000 
     50 H          34.9000   29.7644   25.5555 H         1 DZF187      0.0000 
@<TRIPOS>BOND
     1    2    1 1    
     2   12    1 1    
     3   33    1 1    
     4    3    2 1    
     5    4    2 2    
     6   34    3 1    
     7   35    3 1    
     8    5    4 1    
     9    6    5 2    
    10    7    5 1    
    11    8    7 ar   
    12   12    7 ar   
    13    9    8 ar   
    14   36    8 1    
    15   10    9 ar   
    16   13    9 1    
    17   11   10 ar   
    18   37   10 1    
    19   12   11 ar   
    20   14   13 1    
    21   38   13 1    
    22   39   13 1    
    23   18   14 1    
    24   40   14 1    
    25   16   15 ar   
    26   20   15 ar   
    27   21   15 1    
    28   17   16 ar   
    29   41   16 1    
    30   18   17 ar   
    31   42   17 1    
    32   19   18 ar   
    33   20   19 ar   
    34   43   19 1    
    35   44   20 1    
    36   22   21 2    
    37   23   21 am   
    38   24   23 1    
    39   45   23 1    
    40   25   24 1    
    41   30   24 1    
    42   46   24 1    
    43   26   25 1    
    44   47   25 1    
    45   48   25 1    
    46   27   26 1    
    47   49   26 1    
    48   50   26 1    
    49   28   27 ar   
    50   29   27 ar   
    51   31   30 ar   
    52   32   30 ar   
@<TRIPOS>SUBSTRUCTURE
     1 DZF187      1 GROUP   
@<TRIPOS>SET

