#    Name: 1tbb_ROL_2_INTS_M
#    Modification time : Tue Mar 25 04:47:39 2014

@<TRIPOS>MOLECULE
1tbb_ROL_2_INTS_M
   51     0     6     0     0
SMALL
NO_CHARGES


@<TRIPOS>ATOM
      1 CA         10.2565    7.2450   13.5455 C.3       2 GLC5        0.0000 
      2 CA         12.0050    6.4870   14.5930 C.3       6 GLL5        0.0000 
      3 CA          8.5080    8.0030   12.4980 C.3       4 GLP5        0.0000 
      4 CA         12.1525    8.2610   13.5630 C.3       2 GLC5        0.0000 
      5 CA         12.3000   10.0350   12.5330 C.3       4 GLP5        0.0000 
      6 CA         13.2035    3.7045   16.4115 C.3       2 GLC5        0.0000 
      7 CA         13.5900    4.6830   14.8360 C.3       6 GLL5        0.0000 
      8 CA         12.8170    2.7260   17.9870 C.3       4 GLP5        0.0000 
      9 CA         14.1780    3.4810   13.0375 C.3       2 GLC5        0.0000 
     10 CA         14.7660    2.2790   11.2390 C.3       4 GLP5        0.0000 
     11 N          16.0495    6.3045    8.4695 N.am      1 SEC2        0.0000 
     12 N          15.6950    6.2080   10.1190 N.am      5 SEL2        0.0000 
     13 N          16.4040    6.4010    6.8200 N.am      3 SEP2        0.0000 
     14 CA         15.3895    8.6220    9.7910 C.3       2 GLC5        0.0000 
     15 CA         17.0260    7.6920   10.5940 C.3       6 GLL5        0.0000 
     16 CA         13.7530    9.5520    8.9880 C.3       4 GLP5        0.0000 
     17 CA         18.5185    4.2150    9.2780 C.3       2 GLC5        0.0000 
     18 CA         18.5240    6.0820    9.4990 C.3       6 GLL5        0.0000 
     19 CA         18.5130    2.3480    9.0570 C.3       4 GLP5        0.0000 
     20 N          15.0275    6.2540    7.5870 N.am      1 SEC2        0.0000 
     21 N          13.6510    6.1070    8.3540 N.am      5 SEL2        0.0000 
     22 CA         10.9490    4.8980    7.1475 C.3       2 GLC5        0.0000 
     23 CA         12.6890    6.2110    7.2890 C.3       6 GLL5        0.0000 
     24 CA          9.2090    3.5850    7.0060 C.3       4 GLP5        0.0000 
     25 CA         12.8790    5.0115    5.7470 C.3       2 GLC5        0.0000 
     26 CA         13.0690    3.8120    4.2050 C.3       4 GLP5        0.0000 
     27 CA         10.7240    6.7255    6.6205 C.3       2 GLC5        0.0000 
     28 CA          8.7590    7.2400    5.9520 C.3       4 GLP5        0.0000 
     29 CA         12.7335    7.6925    6.1855 C.3       2 GLC5        0.0000 
     30 CA         12.7780    9.1740    5.0820 C.3       4 GLP5        0.0000 
     31 CA         13.2210    7.8815    8.1385 C.3       2 GLC5        0.0000 
     32 CA         13.3588    7.6572   11.8215 C.3       2 GLC5        0.0000 
     33 CA         14.1280    5.7340   12.0050 C.3       6 GLL5        0.0000 
     34 CA         13.2470    9.7120   11.4120 C.3       4 GLP5        0.0000 
     35 CA         13.3574    7.6662    9.5691 C.3       2 GLC5        0.0000 
     36 CA         14.4080    5.9470   10.6240 C.3       6 GLL5        0.0000 
     37 CA         12.4363    3.0770   14.1315 C.3       2 GLC5        0.0000 
     38 CA         12.4450    5.2270   13.9400 C.3       6 GLL5        0.0000 
     39 CA         11.8550    1.1990   13.8750 C.3       4 GLP5        0.0000 
     40 CA         17.2935    4.1410   10.4072 C.3       2 GLC5        0.0000 
     41 CA         16.7540    6.4260   11.0990 C.3       6 GLL5        0.0000 
     42 CA         17.2110    2.2940    9.8400 C.3       4 GLP5        0.0000 
     43 CA         17.6792    9.4247    9.0525 C.3       2 GLC5        0.0000 
     44 CA         17.7840   11.2130    8.0510 C.3       4 GLP5        0.0000 
     45 CA         17.4552    8.5505   11.6561 C.3       2 GLC5        0.0000 
     46 CA         18.1230    7.5810    9.5140 C.3       6 GLL5        0.0000 
     47 CA         17.4040    9.7810   13.1320 C.3       4 GLP5        0.0000 
     48 CA         20.0222    7.0173    8.4952 C.3       2 GLC5        0.0000 
     49 CA         21.7210    7.2030    7.4840 C.3       4 GLP5        0.0000 
     50 CA         19.9209    6.8079   10.7941 C.3       2 GLC5        0.0000 
     51 CA         21.6810    7.4250   11.4100 C.3       4 GLP5        0.0000 
@<TRIPOS>BOND
@<TRIPOS>SUBSTRUCTURE
     1 SEC2       11 GROUP        1 X    SEC  0     ROOT SEC X 2
     2 GLC5        1 GROUP        1 X    GLC  0     **** GLC X 6
     3 SEP2       13 GROUP        1 Y    SEP  0     ROOT SEP Y 9
     4 GLP5        3 GROUP        1 Y    GLP  0     **** GLP Y 13
     5 SEL2       12 GROUP        1 Z    SEL  0     ROOT SEL Z 16
     6 GLL5        2 GROUP        1 Z    GLL  0     **** GLL Z 20
@<TRIPOS>SET

