#    Name: 1tbb_ROL_2_ligand
#    Modification time : Tue Mar 25 04:47:39 2014

@<TRIPOS>MOLECULE
1tbb_ROL_2_ligand
   41    43     1     0     0
SMALL
NO_CHARGES


@<TRIPOS>ATOM
      1 C5         12.8130    5.4710   12.4570 C.ar      1 ROL502      0.0000 
      2 C6         14.1280    5.7340   12.0050 C.ar      1 ROL502      0.0000 
      3 C7         14.4080    5.9470   10.6240 C.ar      1 ROL502      0.0000 
      4 C8         13.3530    5.8970    9.6950 C.ar      1 ROL502      0.0000 
      5 C9         12.0430    5.6390   10.1410 C.ar      1 ROL502      0.0000 
      6 C10        11.7850    5.4280   11.5040 C.ar      1 ROL502      0.0000 
      7 C3         12.4450    5.2270   13.9400 C.3       1 ROL502      0.0000 
      8 C2         12.0050    6.4870   14.5930 C.3       1 ROL502      0.0000 
      9 C1         13.2980    6.9790   15.1700 C.2       1 ROL502      0.0000 
     10 O1         13.6010    8.1540   15.1480 O.2       1 ROL502      0.0000 
     11 N1         14.1520    5.9430   15.2850 N.am      1 ROL502      0.0000 
     12 C4         13.5900    4.6830   14.8360 C.3       1 ROL502      0.0000 
     13 O3         15.6950    6.2080   10.1190 O.3       1 ROL502      0.0000 
     14 C11        16.7540    6.4260   11.0990 C.3       1 ROL502      0.0000 
     15 C15        17.0260    7.6920   10.5940 C.3       1 ROL502      0.0000 
     16 C14        18.1230    7.5810    9.5140 C.3       1 ROL502      0.0000 
     17 C13        18.5240    6.0820    9.4990 C.3       1 ROL502      0.0000 
     18 C12        17.9980    5.5500   10.8500 C.3       1 ROL502      0.0000 
     19 O2         13.6510    6.1070    8.3540 O.3       1 ROL502      0.0000 
     20 C16        12.6890    6.2110    7.2890 C.3       1 ROL502      0.0000 
     21 H          14.8996    5.7731   12.6830 H         1 ROL502      0.0000 
     22 H          11.2730    5.6054    9.4633 H         1 ROL502      0.0000 
     23 H          10.8166    5.2368   11.8119 H         1 ROL502      0.0000 
     24 H          11.6250    4.5149   13.9919 H         1 ROL502      0.0000 
     25 H          11.3154    6.2831   15.3693 H         1 ROL502      0.0000 
     26 H          11.6443    7.1734   13.8729 H         1 ROL502      0.0000 
     27 H          15.0689    5.9812   15.6297 H         1 ROL502      0.0000 
     28 H          14.2541    4.1426   14.2277 H         1 ROL502      0.0000 
     29 H          13.1596    4.1342   15.6212 H         1 ROL502      0.0000 
     30 H          16.4252    6.4238   12.0416 H         1 ROL502      0.0000 
     31 H          17.4004    8.3868   11.3564 H         1 ROL502      0.0000 
     32 H          16.1559    8.1592   10.1157 H         1 ROL502      0.0000 
     33 H          18.9617    8.1668    9.7944 H         1 ROL502      0.0000 
     34 H          17.7226    7.8476    8.5686 H         1 ROL502      0.0000 
     35 H          19.5756    5.9997    9.4681 H         1 ROL502      0.0000 
     36 H          18.0284    5.5934    8.7058 H         1 ROL502      0.0000 
     37 H          17.7092    4.5430   10.7458 H         1 ROL502      0.0000 
     38 H          18.7133    5.7254   11.6023 H         1 ROL502      0.0000 
     39 H          13.1294    6.3634    6.4042 H         1 ROL502      0.0000 
     40 H          12.1386    5.3805    7.2033 H         1 ROL502      0.0000 
     41 H          12.0540    6.9696    7.4349 H         1 ROL502      0.0000 
@<TRIPOS>BOND
     1    2    1 ar   
     2    6    1 ar   
     3    7    1 1    
     4    3    2 ar   
     5   21    2 1    
     6    4    3 ar   
     7   13    3 1    
     8    5    4 ar   
     9   19    4 1    
    10    6    5 ar   
    11   22    5 1    
    12   23    6 1    
    13    8    7 1    
    14   12    7 1    
    15   24    7 1    
    16    9    8 1    
    17   25    8 1    
    18   26    8 1    
    19   10    9 2    
    20   11    9 am   
    21   12   11 1    
    22   27   11 1    
    23   28   12 1    
    24   29   12 1    
    25   14   13 1    
    26   15   14 1    
    27   18   14 1    
    28   30   14 1    
    29   16   15 1    
    30   31   15 1    
    31   32   15 1    
    32   17   16 1    
    33   33   16 1    
    34   34   16 1    
    35   18   17 1    
    36   35   17 1    
    37   36   17 1    
    38   37   18 1    
    39   38   18 1    
    40   20   19 1    
    41   39   20 1    
    42   40   20 1    
    43   41   20 1    
@<TRIPOS>SUBSTRUCTURE
     1 ROL502      1 GROUP   
@<TRIPOS>SET

