#    Name: 3vrv_YSD_1_INTS_M
#    Modification time : Tue Mar 25 01:21:36 2014

@<TRIPOS>MOLECULE
3vrv_YSD_1_INTS_M
  117     0     9     0     0
SMALL
NO_CHARGES


@<TRIPOS>ATOM
      1 CA         -9.7365   24.4020   -6.4415 C.3       3 GLC5        0.0000 
      2 CA         -9.6420   22.5300   -6.9780 C.3       9 GLL5        0.0000 
      3 CA         -9.8310   26.2740   -5.9050 C.3       6 GLP5        0.0000 
      4 CA         -8.4540   22.8495   -5.2255 C.3       3 GLC5        0.0000 
      5 CA         -7.2660   23.1690   -3.4730 C.3       6 GLP5        0.0000 
      6 CA        -11.8330   21.6360   -3.9610 C.3       3 GLC5        0.0000 
      7 CA        -11.3490   20.5300   -5.3350 C.3       9 GLL5        0.0000 
      8 CA        -12.3170   22.7420   -2.5870 C.3       6 GLP5        0.0000 
      9 CA        -11.0085   20.0290   -3.2020 C.3       3 GLC5        0.0000 
     10 CA        -10.2790   19.4850   -5.0740 C.3       9 GLL5        0.0000 
     11 CA        -11.7380   20.5730   -1.3300 C.3       6 GLP5        0.0000 
     12 CA        -10.1440   17.6520   -6.0150 C.3       3 GLC5        0.0000 
     13 CA        -10.0090   15.8190   -6.9560 C.3       6 GLP5        0.0000 
     14 CA         -9.0955   18.4055   -3.8685 C.3       3 GLC5        0.0000 
     15 CA         -7.9120   17.3260   -2.6630 C.3       6 GLP5        0.0000 
     16 N         -13.0985   18.8620   -7.0690 N.am      2 SEC2        0.0000 
     17 N         -12.0880   19.6180   -7.4050 N.am      8 SEL2        0.0000 
     18 N         -14.1090   18.1060   -6.7330 N.am      5 SEP2        0.0000 
     19 CA        -12.9815   22.4055   -4.3875 C.3       3 GLC5        0.0000 
     20 CA        -13.6460   22.0690   -6.1880 C.3       9 GLL5        0.0000 
     21 CA        -14.4545   20.1450   -6.8325 C.3       3 GLC5        0.0000 
     22 CA        -15.2630   18.2210   -7.4770 C.3       6 GLP5        0.0000 
     23 CA        -16.3090   20.9335   -9.2780 C.3       3 GLC5        0.0000 
     24 CA        -15.4410   21.9700   -7.9930 C.3       9 GLL5        0.0000 
     25 CA        -17.1770   19.8970  -10.5630 C.3       6 GLP5        0.0000 
     26 CA        -15.3520   20.0955   -7.7350 C.3       3 GLC5        0.0000 
     27 CA        -17.7760   23.7680   -7.1760 C.3       3 GLC5        0.0000 
     28 CA        -15.7930   23.6150   -6.1420 C.3       9 GLL5        0.0000 
     29 CA        -19.7590   23.9210   -8.2100 C.3       6 GLP5        0.0000 
     30 CA        -16.3005   20.9275   -4.2280 C.3       3 GLC5        0.0000 
     31 CA        -16.3420   22.8420   -4.9190 C.3       9 GLL5        0.0000 
     32 CA        -16.2590   19.0130   -3.5370 C.3       6 GLP5        0.0000 
     33 CA        -16.8330   23.3705   -2.0965 C.3       3 GLC5        0.0000 
     34 CA        -16.9510   23.9150   -4.0030 C.3       9 GLL5        0.0000 
     35 CA        -16.7150   22.8260   -0.1900 C.3       6 GLP5        0.0000 
     36 CA        -18.7380   22.5605   -4.0125 C.3       3 GLC5        0.0000 
     37 CA        -20.5250   21.2060   -4.0220 C.3       6 GLP5        0.0000 
     38 CA        -12.7445   26.6515   -4.9185 C.3       3 GLC5        0.0000 
     39 CA        -14.2360   25.0060   -4.5880 C.3       9 GLL5        0.0000 
     40 CA        -11.2530   28.2970   -5.2490 C.3       6 GLP5        0.0000 
     41 CA        -13.2765   23.8740   -3.5875 C.3       3 GLC5        0.0000 
     42 CA        -13.3905   27.9480   -5.5800 C.3       3 GLC5        0.0000 
     43 CA        -15.5280   27.5990   -5.9110 C.3       9 GLL5        0.0000 
     44 CA        -17.1910   28.6975   -6.4000 C.3       3 GLC5        0.0000 
     45 CA        -18.8540   29.7960   -6.8890 C.3       6 GLP5        0.0000 
     46 CA        -15.1490   29.6270   -6.2245 C.3       3 GLC5        0.0000 
     47 CA        -14.7700   31.6550   -6.5380 C.3       6 GLP5        0.0000 
     48 CA        -18.0660   28.6610   -5.2635 C.3       3 GLC5        0.0000 
     49 CA        -16.7200   27.7260   -4.9170 C.3       9 GLL5        0.0000 
     50 CA        -19.4120   29.5960   -5.6100 C.3       6 GLP5        0.0000 
     51 CA        -18.4925   27.4635   -4.6765 C.3       3 GLC5        0.0000 
     52 CA        -16.7520   26.4860   -3.9780 C.3       9 GLL5        0.0000 
     53 CA        -20.2330   28.4410   -5.3750 C.3       6 GLP5        0.0000 
     54 CA        -16.7930   24.7190   -1.3740 C.3       3 GLC5        0.0000 
     55 CA        -16.8710   26.6120   -2.5580 C.3       9 GLL5        0.0000 
     56 CA        -14.3190   27.3820    0.4900 C.3       3 GLC5        0.0000 
     57 CA        -16.3210   26.7800    0.3200 C.3       9 GLL5        0.0000 
     58 CA        -12.3170   27.9840    0.6600 C.3       6 GLP5        0.0000 
     59 CA        -16.5180   24.8030    0.0650 C.3       3 GLC5        0.0000 
     60 CA        -18.3140   29.8665    3.1275 C.3       3 GLC5        0.0000 
     61 CA        -17.0520   29.5850    1.4200 C.3       9 GLL5        0.0000 
     62 CA        -19.5760   30.1480    4.8350 C.3       6 GLP5        0.0000 
     63 CA        -18.3395   31.1270    0.7875 C.3       3 GLC5        0.0000 
     64 CA        -19.6270   32.6690    0.1550 C.3       6 GLP5        0.0000 
     65 N         -19.0480   30.1230    2.4450 N.am      2 SEC2        0.0000 
     66 N         -18.4780   29.5400    1.3270 N.am      8 SEL2        0.0000 
     67 N         -19.6180   30.7060    3.5630 N.am      5 SEP2        0.0000 
     68 O         -18.9225   30.4840    0.3925 O.2       1 ALC1        0.0000 
     69 O         -18.4780   29.5400    1.3270 O.2       7 ALL1        0.0000 
     70 O         -19.3670   31.4280   -0.5420 O.2       4 ALP1        0.0000 
     71 CA        -18.1460   27.8880    3.3880 C.3       3 GLC5        0.0000 
     72 CA        -16.9600   27.0200    1.7350 C.3       9 GLL5        0.0000 
     73 CA        -19.3320   28.7560    5.0410 C.3       6 GLP5        0.0000 
     74 CA        -18.2910   25.8660    2.5685 C.3       3 GLC5        0.0000 
     75 CA        -19.6220   24.7120    3.4020 C.3       6 GLP5        0.0000 
     76 CA        -18.8560   27.1575    0.9335 C.3       3 GLC5        0.0000 
     77 CA        -20.7520   27.2950    0.1320 C.3       6 GLP5        0.0000 
     78 N         -16.7110   25.8840    4.0355 N.am      2 SEC2        0.0000 
     79 N         -16.5060   26.1090    2.6320 N.am      8 SEL2        0.0000 
     80 N         -16.9160   25.6590    5.4390 N.am      5 SEP2        0.0000 
     81 O         -15.2590   25.5575    2.5565 O.2       1 ALC1        0.0000 
     82 O         -16.5060   26.1090    2.6320 O.2       7 ALL1        0.0000 
     83 O         -14.0120   25.0060    2.4810 O.2       4 ALP1        0.0000 
     84 CA         -8.2308   21.9823   -7.8390 C.3       3 GLC5        0.0000 
     85 CA         -6.5580   22.1350   -8.4380 C.3       6 GLP5        0.0000 
     86 CA         -9.9477   23.3362   -8.5960 C.3       3 GLC5        0.0000 
     87 CA         -9.9920   24.8430   -9.9520 C.3       6 GLP5        0.0000 
     88 CA        -11.5955   18.6627   -3.9968 C.3       3 GLC5        0.0000 
     89 CA        -12.3770   17.3180   -2.7890 C.3       6 GLP5        0.0000 
     90 CA        -12.3741   21.3949   -8.8866 C.3       3 GLC5        0.0000 
     91 CA        -10.1650   21.1290   -7.5020 C.3       9 GLL5        0.0000 
     92 CA        -13.1350   21.2800  -10.6600 C.3       6 GLP5        0.0000 
     93 CA        -15.1100   23.7580   -9.0085 C.3       3 GLC5        0.0000 
     94 CA        -15.1350   25.1040  -10.5390 C.3       6 GLP5        0.0000 
     95 CA        -14.1100   21.8460   -9.0690 C.3       3 GLC5        0.0000 
     96 CA        -15.5890   27.1430   -8.0168 C.3       3 GLC5        0.0000 
     97 CA        -15.3540   26.1890   -6.5660 C.3       9 GLL5        0.0000 
     98 CA        -15.7370   27.3920   -9.7950 C.3       6 GLP5        0.0000 
     99 CA        -18.3927   26.7045   -2.1945 C.3       3 GLC5        0.0000 
    100 CA        -19.9740   26.8600   -1.1210 C.3       6 GLP5        0.0000 
    101 CA        -18.4213   28.4135   -2.8502 C.3       3 GLC5        0.0000 
    102 CA        -20.0380   29.5640   -3.4450 C.3       6 GLP5        0.0000 
    103 CA        -18.2284   27.1185   -0.7934 C.3       3 GLC5        0.0000 
    104 CA        -16.5510   28.0340   -0.5500 C.3       9 GLL5        0.0000 
    105 CA        -14.8737   30.2692    1.4205 C.3       3 GLC5        0.0000 
    106 CA        -16.4270   29.4320    0.0440 C.3       9 GLL5        0.0000 
    107 CA        -13.0080   31.0300    2.1090 C.3       6 GLP5        0.0000 
    108 CA        -14.6434   28.4880   -1.1469 C.3       3 GLC5        0.0000 
    109 CA        -12.7510   28.2730   -1.6900 C.3       6 GLP5        0.0000 
    110 CA        -16.2933   31.1337    0.3545 C.3       3 GLC5        0.0000 
    111 CA        -15.8470   32.7590   -0.0230 C.3       6 GLP5        0.0000 
    112 CA        -17.7883   28.6340    3.9575 C.3       3 GLC5        0.0000 
    113 CA        -16.5940   28.4090    2.2870 C.3       9 GLL5        0.0000 
    114 CA        -14.6262   29.7710    2.4915 C.3       3 GLC5        0.0000 
    115 CA        -15.8950   28.6150    3.4610 C.3       9 GLL5        0.0000 
    116 CA        -16.6440   30.6700    3.2556 C.3       3 GLC5        0.0000 
    117 CA        -16.9290   32.5340    3.8540 C.3       6 GLP5        0.0000 
@<TRIPOS>BOND
@<TRIPOS>SUBSTRUCTURE
     1 ALC1       68 GROUP        1 X    ALC  0     ROOT ALC X 1
     2 SEC2       16 GROUP        1 X    SEC  0     **** SEC X 2
     3 GLC5        1 GROUP        1 X    GLC  0     **** GLC X 6
     4 ALP1       70 GROUP        1 Y    ALP  0     ROOT ALP Y 8
     5 SEP2       18 GROUP        1 Y    SEP  0     **** SEP Y 9
     6 GLP5        3 GROUP        1 Y    GLP  0     **** GLP Y 13
     7 ALL1       69 GROUP        1 Z    ALL  0     ROOT ALL Z 15
     8 SEL2       17 GROUP        1 Z    SEL  0     **** SEL Z 16
     9 GLL5        2 GROUP        1 Z    GLL  0     **** GLL Z 20
@<TRIPOS>SET

