#    Name: 3vrv_YSD_1_ligand
#    Modification time : Tue Mar 25 01:21:36 2014

@<TRIPOS>MOLECULE
3vrv_YSD_1_ligand
   75    77     1     0     0
SMALL
NO_CHARGES


@<TRIPOS>ATOM
      1 CAB        -9.6420   22.5300   -6.9780 C.3       1 YSD501      0.0000 
      2 CAK       -10.1650   21.1290   -7.5020 C.3       1 YSD501      0.0000 
      3 CBD       -11.5060   20.8100   -6.8370 C.3       1 YSD501      0.0000 
      4 CAL       -11.3490   20.5300   -5.3350 C.3       1 YSD501      0.0000 
      5 CAC       -10.2790   19.4850   -5.0740 C.3       1 YSD501      0.0000 
      6 OAH       -12.0880   19.6180   -7.4050 O.3       1 YSD501      0.0000 
      7 CAS       -12.3910   22.0500   -7.0570 C.3       1 YSD501      0.0000 
      8 CAP       -13.6460   22.0690   -6.1880 C.3       1 YSD501      0.0000 
      9 CAY       -14.7290   22.8540   -6.9630 C.3       1 YSD501      0.0000 
     10 CAD       -15.4410   21.9700   -7.9930 C.3       1 YSD501      0.0000 
     11 CBC       -15.7930   23.6150   -6.1420 C.3       1 YSD501      0.0000 
     12 CAQ       -16.3420   22.8420   -4.9190 C.3       1 YSD501      0.0000 
     13 CAO       -16.9510   23.9150   -4.0030 C.3       1 YSD501      0.0000 
     14 CBB       -16.7910   25.2040   -4.7700 C.3       1 YSD501      0.0000 
     15 CBE       -15.4590   25.0220   -5.5280 C.3       1 YSD501      0.0000 
     16 CAE       -14.2360   25.0060   -4.5880 C.3       1 YSD501      0.0000 
     17 CAR       -15.3540   26.1890   -6.5660 C.3       1 YSD501      0.0000 
     18 CAM       -15.5280   27.5990   -5.9110 C.3       1 YSD501      0.0000 
     19 CAN       -16.7200   27.7260   -4.9170 C.3       1 YSD501      0.0000 
     20 CAX       -16.7520   26.4860   -3.9780 C.2       1 YSD501      0.0000 
     21 CAJ       -16.8710   26.6120   -2.5580 C.2       1 YSD501      0.0000 
     22 CAI       -16.7380   27.9140   -1.9530 C.2       1 YSD501      0.0000 
     23 CAW       -16.5510   28.0340   -0.5500 C.2       1 YSD501      0.0000 
     24 CAU       -16.3210   26.7800    0.3200 C.3       1 YSD501      0.0000 
     25 CAT       -16.4270   29.4320    0.0440 C.3       1 YSD501      0.0000 
     26 CAZ       -17.0520   29.5850    1.4200 C.3       1 YSD501      0.0000 
     27 OAF       -18.4780   29.5400    1.3270 O.3       1 YSD501      0.0000 
     28 CAV       -16.5940   28.4090    2.2870 C.2       1 YSD501      0.0000 
     29 CAA       -15.8950   28.6150    3.4610 C.2       1 YSD501      0.0000 
     30 CBA       -16.9600   27.0200    1.7350 C.3       1 YSD501      0.0000 
     31 OAG       -16.5060   26.1090    2.6320 O.3       1 YSD501      0.0000 
     32 H          -9.4346   20.3824   -7.2440 H         1 YSD501      0.0000 
     33 H         -10.2851   21.1954   -8.5690 H         1 YSD501      0.0000 
     34 H         -12.3047   20.1811   -4.9394 H         1 YSD501      0.0000 
     35 H         -11.0829   21.4598   -4.8288 H         1 YSD501      0.0000 
     36 H         -12.6846   22.0896   -8.1163 H         1 YSD501      0.0000 
     37 H         -11.7940   22.9501   -6.8489 H         1 YSD501      0.0000 
     38 H         -13.4420   22.5720   -5.2634 H         1 YSD501      0.0000 
     39 H         -13.9899   21.0672   -6.0219 H         1 YSD501      0.0000 
     40 H         -14.1903   23.6348   -7.5761 H         1 YSD501      0.0000 
     41 H         -16.6971   23.7889   -6.7844 H         1 YSD501      0.0000 
     42 H         -15.5394   22.3559   -4.4201 H         1 YSD501      0.0000 
     43 H         -17.0999   22.1691   -5.2386 H         1 YSD501      0.0000 
     44 H         -16.3996   23.9538   -3.0932 H         1 YSD501      0.0000 
     45 H         -17.9823   23.7006   -3.8489 H         1 YSD501      0.0000 
     46 H         -17.5605   25.2532   -5.5357 H         1 YSD501      0.0000 
     47 H         -16.1262   26.0557   -7.3223 H         1 YSD501      0.0000 
     48 H         -14.3779   26.1434   -7.0468 H         1 YSD501      0.0000 
     49 H         -15.6574   28.3414   -6.7135 H         1 YSD501      0.0000 
     50 H         -14.5976   27.8528   -5.3801 H         1 YSD501      0.0000 
     51 H         -17.6408   27.7714   -5.4745 H         1 YSD501      0.0000 
     52 H         -16.5911   28.6159   -4.3235 H         1 YSD501      0.0000 
     53 H         -17.0457   25.8034   -1.9829 H         1 YSD501      0.0000 
     54 H         -16.7794   28.7424   -2.5400 H         1 YSD501      0.0000 
     55 H         -15.2674   26.6120    0.4431 H         1 YSD501      0.0000 
     56 H         -16.7987   25.9314   -0.1330 H         1 YSD501      0.0000 
     57 H         -16.8960   30.1560   -0.6471 H         1 YSD501      0.0000 
     58 H         -15.3564   29.7008    0.1028 H         1 YSD501      0.0000 
     59 H         -16.7043   30.4856    1.8666 H         1 YSD501      0.0000 
     60 H         -18.0332   26.9951    1.6122 H         1 YSD501      0.0000 
     61 H          -9.5107   22.5302   -5.9867 H         1 YSD501      0.0000 
     62 H          -8.7648   22.7767   -7.3899 H         1 YSD501      0.0000 
     63 H         -10.2828   23.2682   -7.1889 H         1 YSD501      0.0000 
     64 H          -9.3862   19.7731   -5.4203 H         1 YSD501      0.0000 
     65 H         -10.1692   19.3018   -4.0971 H         1 YSD501      0.0000 
     66 H         -10.4963   18.6132   -5.5131 H         1 YSD501      0.0000 
     67 H         -14.8033   21.5987   -8.6679 H         1 YSD501      0.0000 
     68 H         -15.8976   21.1917   -7.5620 H         1 YSD501      0.0000 
     69 H         -16.1397   22.4770   -8.4978 H         1 YSD501      0.0000 
     70 H         -13.4082   24.7037   -5.0607 H         1 YSD501      0.0000 
     71 H         -14.0444   25.9127   -4.2124 H         1 YSD501      0.0000 
     72 H         -14.3720   24.3900   -3.8121 H         1 YSD501      0.0000 
     73 H         -11.4603   20.3865   -7.2802 H         1 YSD501      0.0000 
     74 H         -18.7369   30.4065    0.9002 H         1 YSD501      0.0000 
     75 H         -15.5710   25.9044    2.3422 H         1 YSD501      0.0000 
@<TRIPOS>BOND
     1    2    1 1    
     2   61    1 1    
     3   62    1 1    
     4   63    1 1    
     5    3    2 1    
     6   32    2 1    
     7   33    2 1    
     8    4    3 1    
     9    6    3 1    
    10    7    3 1    
    11    5    4 1    
    12   34    4 1    
    13   35    4 1    
    14   64    5 1    
    15   65    5 1    
    16   66    5 1    
    17   73    6 1    
    18    8    7 1    
    19   36    7 1    
    20   37    7 1    
    21    9    8 1    
    22   38    8 1    
    23   39    8 1    
    24   10    9 1    
    25   11    9 1    
    26   40    9 1    
    27   67   10 1    
    28   68   10 1    
    29   69   10 1    
    30   12   11 1    
    31   15   11 1    
    32   41   11 1    
    33   13   12 1    
    34   42   12 1    
    35   43   12 1    
    36   14   13 1    
    37   44   13 1    
    38   45   13 1    
    39   15   14 1    
    40   20   14 1    
    41   46   14 1    
    42   16   15 1    
    43   17   15 1    
    44   70   16 1    
    45   71   16 1    
    46   72   16 1    
    47   18   17 1    
    48   47   17 1    
    49   48   17 1    
    50   19   18 1    
    51   49   18 1    
    52   50   18 1    
    53   20   19 1    
    54   51   19 1    
    55   52   19 1    
    56   21   20 2    
    57   22   21 1    
    58   53   21 1    
    59   23   22 2    
    60   54   22 1    
    61   24   23 1    
    62   25   23 1    
    63   30   24 1    
    64   55   24 1    
    65   56   24 1    
    66   26   25 1    
    67   57   25 1    
    68   58   25 1    
    69   27   26 1    
    70   28   26 1    
    71   59   26 1    
    72   74   27 1    
    73   29   28 2    
    74   30   28 1    
    75   31   30 1    
    76   60   30 1    
    77   75   31 1    
@<TRIPOS>SUBSTRUCTURE
     1 YSD501      1 GROUP   
@<TRIPOS>SET

