#    Name: 1zlt_HYM_1_INTS_M
#    Modification time : Tue Mar 25 11:51:01 2014

@<TRIPOS>MOLECULE
1zlt_HYM_1_INTS_M
   49     0     9     0     0
SMALL
NO_CHARGES


@<TRIPOS>ATOM
      1 CA         11.1500   -1.0270   10.0885 C.3       3 GLC5        0.0000 
      2 CA         12.9950   -0.9880   10.2990 C.3       9 GLL5        0.0000 
      3 CA          9.3050   -1.0660    9.8780 C.3       6 GLP5        0.0000 
      4 CA         12.2485    1.9145   10.9810 C.3       3 GLC5        0.0000 
      5 CA         13.2860    0.5090   10.4170 C.3       9 GLL5        0.0000 
      6 CA         11.2110    3.3200   11.5450 C.3       6 GLP5        0.0000 
      7 CA         11.5030    0.8025    9.5225 C.3       3 GLC5        0.0000 
      8 CA          9.7200    1.0960    8.6280 C.3       6 GLP5        0.0000 
      9 O          13.9545    2.0760    8.9855 O.2       1 ALC1        0.0000 
     10 O          14.4100    0.9320    9.5660 O.2       7 ALL1        0.0000 
     11 O          13.4990    3.2200    8.4050 O.2       4 ALP1        0.0000 
     12 N          16.7235    2.2100    8.3075 N.am      2 SEC2        0.0000 
     13 N          16.4390    0.8830    8.6430 N.am      8 SEL2        0.0000 
     14 N          17.0080    3.5370    7.9720 N.am      5 SEP2        0.0000 
     15 CA         16.5350   -1.5240    8.0285 C.3       3 GLC5        0.0000 
     16 CA         16.0090   -0.9280   10.1000 C.3       9 GLL5        0.0000 
     17 CA         17.0610   -2.1200    5.9570 C.3       6 GLP5        0.0000 
     18 CA         18.3855   -5.3595   10.5340 C.3       3 GLC5        0.0000 
     19 CA         18.9970   -3.3880   10.9160 C.3       9 GLL5        0.0000 
     20 CA         17.7740   -7.3310   10.1520 C.3       6 GLP5        0.0000 
     21 CA         19.7920   -2.8180   12.8135 C.3       3 GLC5        0.0000 
     22 CA         20.5870   -2.2480   14.7110 C.3       6 GLP5        0.0000 
     23 CA         16.8120   -5.9010   11.0210 C.3       3 GLC5        0.0000 
     24 CA         15.8500   -4.4710   11.8900 C.3       9 GLL5        0.0000 
     25 CA         15.5120   -6.6235   12.1730 C.3       3 GLC5        0.0000 
     26 CA         15.1740   -8.7760   12.4560 C.3       6 GLP5        0.0000 
     27 CA         14.4150   -4.8655   10.9190 C.3       3 GLC5        0.0000 
     28 CA         12.9800   -5.2600    9.9480 C.3       6 GLP5        0.0000 
     29 CA         13.2245   -3.7845   11.1675 C.3       3 GLC5        0.0000 
     30 CA         13.4690   -2.3090   12.3870 C.3       9 GLL5        0.0000 
     31 CA         13.3650   -0.6655   13.8490 C.3       3 GLC5        0.0000 
     32 CA         13.2610    0.9780   15.3110 C.3       6 GLP5        0.0000 
     33 O          12.7450   -4.3910   16.2540 O.2       1 ALC1        0.0000 
     34 O          13.9810   -3.7870   15.4400 O.2       7 ALL1        0.0000 
     35 O          11.5090   -4.9950   17.0680 O.2       4 ALP1        0.0000 
     36 CA         13.7470   -2.6547    9.4125 C.3       3 GLC5        0.0000 
     37 CA         13.9570   -1.7670   11.1970 C.3       9 GLL5        0.0000 
     38 CA         14.0180   -3.9320    8.0770 C.3       6 GLP5        0.0000 
     39 CA         13.2252   -0.3008    8.4335 C.3       3 GLC5        0.0000 
     40 CA         13.3100   -0.3620    6.5090 C.3       6 GLP5        0.0000 
     41 CA         14.5622    0.4482   11.5765 C.3       3 GLC5        0.0000 
     42 CA         15.9840    1.1360   12.7950 C.3       6 GLP5        0.0000 
     43 CA         18.1430   -3.5110    8.9398 C.3       3 GLC5        0.0000 
     44 CA         17.4510   -2.5380   10.6790 C.3       9 GLL5        0.0000 
     45 CA         18.0620   -4.0590    7.0820 C.3       6 GLP5        0.0000 
     46 CA         14.9729   -3.0356    9.4500 C.3       3 GLC5        0.0000 
     47 CA         14.8485   -0.4510   12.2935 C.3       3 GLC5        0.0000 
     48 CA         16.1122   -0.4590   11.7471 C.3       3 GLC5        0.0000 
     49 CA         15.3020   -1.8710   10.8440 C.3       9 GLL5        0.0000 
@<TRIPOS>BOND
@<TRIPOS>SUBSTRUCTURE
     1 ALC1        9 GROUP        1 X    ALC  0     ROOT ALC X 1
     2 SEC2       12 GROUP        1 X    SEC  0     **** SEC X 2
     3 GLC5        1 GROUP        1 X    GLC  0     **** GLC X 6
     4 ALP1       11 GROUP        1 Y    ALP  0     ROOT ALP Y 8
     5 SEP2       14 GROUP        1 Y    SEP  0     **** SEP Y 9
     6 GLP5        3 GROUP        1 Y    GLP  0     **** GLP Y 13
     7 ALL1       10 GROUP        1 Z    ALL  0     ROOT ALL Z 15
     8 SEL2       13 GROUP        1 Z    SEL  0     **** SEL Z 16
     9 GLL5        2 GROUP        1 Z    GLL  0     **** GLL Z 20
@<TRIPOS>SET

