#    Name: 1zlt_HYM_1_ligand
#    Modification time : Tue Mar 25 11:51:01 2014

@<TRIPOS>MOLECULE
1zlt_HYM_1_ligand
   30    32     1     0     0
SMALL
NO_CHARGES


@<TRIPOS>ATOM
      1 CAI        12.9950   -0.9880   10.2990 C.3       1 HYM400      0.0000 
      2 CAH        13.2860    0.5090   10.4170 C.3       1 HYM400      0.0000 
      3 NAG        14.4100    0.9320    9.5660 N.am      1 HYM400      0.0000 
      4 CAF        15.6040    0.3660    9.3840 C.2       1 HYM400      0.0000 
      5 OAK        16.4390    0.8830    8.6430 O.2       1 HYM400      0.0000 
      6 CAD        16.0090   -0.9280   10.1000 C.2       1 HYM400      0.0000 
      7 NAC        17.2620   -1.3820   10.0490 N.pl3     1 HYM400      0.0000 
      8 CAA        17.4510   -2.5380   10.6790 C.2       1 HYM400      0.0000 
      9 CLA        18.9970   -3.3880   10.9160 Cl        1 HYM400      0.0000 
     10 CAB        16.2000   -2.8790   11.1740 C.2       1 HYM400      0.0000 
     11 CLB        15.8500   -4.4710   11.8900 Cl        1 HYM400      0.0000 
     12 CAE        15.3020   -1.8710   10.8440 C.2       1 HYM400      0.0000 
     13 CAJ        13.9570   -1.7670   11.1970 C.2       1 HYM400      0.0000 
     14 CAL        13.4690   -2.3090   12.3870 C.2       1 HYM400      0.0000 
     15 NAP        14.2840   -2.8490   13.2900 N.pl3     1 HYM400      0.0000 
     16 CAM        12.1730   -2.3510   12.8990 C.2       1 HYM400      0.0000 
     17 OAR        11.1430   -1.9190   12.3820 O.2       1 HYM400      0.0000 
     18 NAN        12.2580   -2.9210   14.0980 N.am      1 HYM400      0.0000 
     19 CAO        13.5340   -3.2140   14.3260 C.cat     1 HYM400      0.0000 
     20 NAQ        13.9810   -3.7870   15.4400 N.pl3     1 HYM400      0.0000 
     21 H          13.1304   -1.3003    9.2712 H         1 HYM400      0.0000 
     22 H          11.9763   -1.1815   10.6105 H         1 HYM400      0.0000 
     23 H          13.4977    0.7351   11.4745 H         1 HYM400      0.0000 
     24 H          12.3703    1.0589   10.1464 H         1 HYM400      0.0000 
     25 H          14.1850    1.8558    9.0192 H         1 HYM400      0.0000 
     26 H          18.0031   -0.8885    9.5720 H         1 HYM400      0.0000 
     27 H          15.2396   -2.9555   13.2080 H         1 HYM400      0.0000 
     28 H          11.5162   -3.0927   14.7011 H         1 HYM400      0.0000 
     29 H          14.9725   -3.8954   15.5118 H         1 HYM400      0.0000 
     30 H          13.2852   -4.0578   16.1053 H         1 HYM400      0.0000 
@<TRIPOS>BOND
     1    2    1 1    
     2   13    1 1    
     3   21    1 1    
     4   22    1 1    
     5    3    2 1    
     6   23    2 1    
     7   24    2 1    
     8    4    3 am   
     9   25    3 1    
    10    5    4 2    
    11    6    4 1    
    12    7    6 1    
    13   12    6 2    
    14    8    7 1    
    15   26    7 1    
    16    9    8 1    
    17   10    8 2    
    18   11   10 1    
    19   12   10 1    
    20   13   12 1    
    21   14   13 2    
    22   15   14 1    
    23   16   14 1    
    24   19   15 ar   
    25   27   15 1    
    26   17   16 2    
    27   18   16 am   
    28   19   18 ar   
    29   28   18 1    
    30   20   19 ar   
    31   29   20 1    
    32   30   20 1    
@<TRIPOS>SUBSTRUCTURE
     1 HYM400      1 GROUP   
@<TRIPOS>SET

