#    Name: 2w1h_L0F_1_INTS_M
#    Modification time : Tue Mar 25 03:30:37 2014

@<TRIPOS>MOLECULE
2w1h_L0F_1_INTS_M
   46     0     9     0     0
SMALL
NO_CHARGES


@<TRIPOS>ATOM
      1 CA         27.2330    5.9765   64.5590 C.3       3 GLC5        0.0000 
      2 CA         27.2970    4.4190   63.0120 C.3       9 GLL5        0.0000 
      3 CA         27.1690    7.5340   66.1060 C.3       6 GLP5        0.0000 
      4 CA         26.5380    1.3855   62.3860 C.3       3 GLC5        0.0000 
      5 CA         26.6310    3.2320   63.1380 C.3       9 GLL5        0.0000 
      6 CA         26.4450   -0.4610   61.6340 C.3       6 GLP5        0.0000 
      7 CA         25.0540    1.8885   63.5115 C.3       3 GLC5        0.0000 
      8 CA         23.4770    0.5450   63.8850 C.3       6 GLP5        0.0000 
      9 O          27.1860    1.2710   64.6430 O.2       1 ALC1        0.0000 
     10 O          27.2690    2.4930   64.0800 O.2       7 ALL1        0.0000 
     11 O          27.1030    0.0490   65.2060 O.2       4 ALP1        0.0000 
     12 N          29.4065    2.3780   65.1660 N.am      2 SEC2        0.0000 
     13 N          28.3610    3.2320   64.5520 N.am      8 SEL2        0.0000 
     14 N          30.4520    1.5240   65.7800 N.am      5 SEP2        0.0000 
     15 CA         30.3785    6.1115   62.1895 C.3       3 GLC5        0.0000 
     16 CA         30.3780    7.3990   63.8830 C.3       9 GLL5        0.0000 
     17 CA         30.3790    4.8240   60.4960 C.3       6 GLP5        0.0000 
     18 CA         29.4435    9.3125   64.9040 C.3       3 GLC5        0.0000 
     19 CA         30.8370    8.7020   63.5170 C.3       9 GLL5        0.0000 
     20 CA         28.0500    9.9230   66.2910 C.3       6 GLP5        0.0000 
     21 O          31.3200    4.5370   65.5115 O.2       1 ALC1        0.0000 
     22 O          30.4510    5.4290   64.9570 O.2       7 ALL1        0.0000 
     23 O          32.1890    3.6450   66.0660 O.2       4 ALP1        0.0000 
     24 CA         26.2365   10.8645   61.4425 C.3       3 GLC5        0.0000 
     25 CA         26.4620    9.2210   60.0220 C.3       9 GLL5        0.0000 
     26 CA         26.0110   12.5080   62.8630 C.3       6 GLP5        0.0000 
     27 CA         26.0640    3.7418   64.6245 C.3       3 GLC5        0.0000 
     28 CA         25.1640    3.6580   66.1740 C.3       6 GLP5        0.0000 
     29 CA         28.0460    3.2542   61.9430 C.3       3 GLC5        0.0000 
     30 CA         29.1280    2.6830   60.8110 C.3       6 GLP5        0.0000 
     31 CA         28.9612    7.2730   65.2293 C.3       3 GLC5        0.0000 
     32 CA         32.0620    8.5347   61.9310 C.3       3 GLC5        0.0000 
     33 CA         32.7200    8.1010   60.0400 C.3       6 GLP5        0.0000 
     34 CA         33.5108    6.6140   64.3046 C.3       3 GLC5        0.0000 
     35 CA         32.7020    8.4790   65.0700 C.3       9 GLL5        0.0000 
     36 CA         35.2130    5.9980   63.5710 C.3       6 GLP5        0.0000 
     37 CA         25.9847    6.9325   57.3328 C.3       3 GLC5        0.0000 
     38 CA         24.9050    6.9450   59.3860 C.3       9 GLL5        0.0000 
     39 CA         27.1150    6.3360   55.6710 C.3       6 GLP5        0.0000 
     40 CA         23.5847    9.8703   58.7237 C.3       3 GLC5        0.0000 
     41 CA         24.8040    8.1130   58.6030 C.3       9 GLL5        0.0000 
     42 CA         21.9780   11.0600   58.6860 C.3       6 GLP5        0.0000 
     43 CA         23.9398    8.0296   60.8722 C.3       3 GLC5        0.0000 
     44 CA         22.8030    8.5410   62.4710 C.3       6 GLP5        0.0000 
     45 CA         24.6600    8.5903   61.4445 C.3       3 GLC5        0.0000 
     46 CA         26.5720    8.0580   60.8140 C.3       9 GLL5        0.0000 
@<TRIPOS>BOND
@<TRIPOS>SUBSTRUCTURE
     1 ALC1        9 GROUP        1 X    ALC  0     ROOT ALC X 1
     2 SEC2       12 GROUP        1 X    SEC  0     **** SEC X 2
     3 GLC5        1 GROUP        1 X    GLC  0     **** GLC X 6
     4 ALP1       11 GROUP        1 Y    ALP  0     ROOT ALP Y 8
     5 SEP2       14 GROUP        1 Y    SEP  0     **** SEP Y 9
     6 GLP5        3 GROUP        1 Y    GLP  0     **** GLP Y 13
     7 ALL1       10 GROUP        1 Z    ALL  0     ROOT ALL Z 15
     8 SEL2       13 GROUP        1 Z    SEL  0     **** SEL Z 16
     9 GLL5        2 GROUP        1 Z    GLL  0     **** GLL Z 20
@<TRIPOS>SET

