#    Name: 2w1h_L0F_1_ligand
#    Modification time : Tue Mar 25 03:30:37 2014

@<TRIPOS>MOLECULE
2w1h_L0F_1_ligand
   36    39     1     0     0
SMALL
NO_CHARGES


@<TRIPOS>ATOM
      1 O1         25.0260    4.8190   61.2940 O.2       1 L0F1299     0.0000 
      2 C2         25.9070    5.6680   61.3390 C.2       1 L0F1299     0.0000 
      3 N3         27.0100    5.5190   62.1420 N.am      1 L0F1299     0.0000 
      4 C4         27.2970    4.4190   63.0120 C.2       1 L0F1299     0.0000 
      5 C5         26.6310    3.2320   63.1380 C.2       1 L0F1299     0.0000 
      6 N6         27.2690    2.4930   64.0800 N.pl3     1 L0F1299     0.0000 
      7 N8         28.3610    3.2320   64.5520 N.2       1 L0F1299     0.0000 
      8 C9         28.3880    4.3870   63.9150 C.2       1 L0F1299     0.0000 
      9 C10        29.3760    5.4740   64.1070 C.2       1 L0F1299     0.0000 
     10 N11        29.3500    6.6260   63.4740 N.2       1 L0F1299     0.0000 
     11 C12        30.3780    7.3990   63.8830 C.ar      1 L0F1299     0.0000 
     12 C13        30.8370    8.7020   63.5170 C.ar      1 L0F1299     0.0000 
     13 C14        31.9710    9.2350   64.1270 C.ar      1 L0F1299     0.0000 
     14 C15        32.7020    8.4790   65.0700 C.ar      1 L0F1299     0.0000 
     15 C16        32.2740    7.1910   65.4390 C.ar      1 L0F1299     0.0000 
     16 C17        31.1290    6.6250   64.8220 C.ar      1 L0F1299     0.0000 
     17 N18        30.4510    5.4290   64.9570 N.pl3     1 L0F1299     0.0000 
     18 C20        25.7930    6.9020   60.5020 C.ar      1 L0F1299     0.0000 
     19 C21        24.9050    6.9450   59.3860 C.ar      1 L0F1299     0.0000 
     20 C22        24.8040    8.1130   58.6030 C.ar      1 L0F1299     0.0000 
     21 C23        25.5790    9.2480   58.9200 C.ar      1 L0F1299     0.0000 
     22 C24        26.4620    9.2210   60.0220 C.ar      1 L0F1299     0.0000 
     23 C25        26.5720    8.0580   60.8140 C.ar      1 L0F1299     0.0000 
     24 H          27.7492    6.2984   62.1324 H         1 L0F1299     0.0000 
     25 H          25.8516    2.9732   62.6452 H         1 L0F1299     0.0000 
     26 H          27.0350    1.6205   64.3852 H         1 L0F1299     0.0000 
     27 H          30.3245    9.2284   62.8088 H         1 L0F1299     0.0000 
     28 H          32.2850   10.1860   63.8942 H         1 L0F1299     0.0000 
     29 H          33.5512    8.8747   65.4874 H         1 L0F1299     0.0000 
     30 H          32.7815    6.6615   66.1472 H         1 L0F1299     0.0000 
     31 H          30.6893    4.7145   65.5316 H         1 L0F1299     0.0000 
     32 H          24.3437    6.1228   59.1597 H         1 L0F1299     0.0000 
     33 H          24.1671    8.1377   57.8029 H         1 L0F1299     0.0000 
     34 H          25.5019   10.0942   58.3503 H         1 L0F1299     0.0000 
     35 H          27.0225   10.0460   60.2461 H         1 L0F1299     0.0000 
     36 H          27.2063    8.0354   61.6117 H         1 L0F1299     0.0000 
@<TRIPOS>BOND
     1    2    1 2    
     2    3    2 am   
     3   18    2 1    
     4    4    3 1    
     5   24    3 1    
     6    5    4 2    
     7    8    4 1    
     8    6    5 1    
     9   25    5 1    
    10    7    6 1    
    11   26    6 1    
    12    8    7 2    
    13    9    8 1    
    14   10    9 2    
    15   17    9 1    
    16   11   10 1    
    17   12   11 ar   
    18   16   11 ar   
    19   13   12 ar   
    20   27   12 1    
    21   14   13 ar   
    22   28   13 1    
    23   15   14 ar   
    24   29   14 1    
    25   16   15 ar   
    26   30   15 1    
    27   17   16 1    
    28   31   17 1    
    29   19   18 ar   
    30   23   18 ar   
    31   20   19 ar   
    32   32   19 1    
    33   21   20 ar   
    34   33   20 1    
    35   22   21 ar   
    36   34   21 1    
    37   23   22 ar   
    38   35   22 1    
    39   36   23 1    
@<TRIPOS>SUBSTRUCTURE
     1 L0F1299     1 GROUP   
@<TRIPOS>SET

