#    Name: 2wot_ZZG_1_INTS_M
#    Modification time : Tue Mar 25 04:33:57 2014

@<TRIPOS>MOLECULE
2wot_ZZG_1_INTS_M
  101     0     9     0     0
SMALL
NO_CHARGES


@<TRIPOS>ATOM
      1 CA         -2.4690    8.0175    1.5005 C.3       3 GLC5        0.0000 
      2 CA         -2.8880    5.9580    1.2510 C.3       9 GLL5        0.0000 
      3 CA         -2.0500   10.0770    1.7500 C.3       6 GLP5        0.0000 
      4 CA         -1.3660    6.7915   -0.1550 C.3       3 GLC5        0.0000 
      5 CA          0.1560    7.6250   -1.5610 C.3       6 GLP5        0.0000 
      6 O           1.8975    5.4305    1.2565 O.2       1 ALC1        0.0000 
      7 O           2.0400    6.5880    2.1330 O.2       7 ALL1        0.0000 
      8 O           1.7550    4.2730    0.3800 O.2       4 ALP1        0.0000 
      9 CA          6.7075   11.7275    1.9845 C.3       3 GLC5        0.0000 
     10 CA          8.1870   12.7330    3.3440 C.3       9 GLL5        0.0000 
     11 CA          5.2280   10.7220    0.6250 C.3       6 GLP5        0.0000 
     12 CA          6.7615   13.9845    2.3865 C.3       3 GLC5        0.0000 
     13 CA          5.3360   15.2360    1.4290 C.3       6 GLP5        0.0000 
     14 CA          9.2935   14.3260    4.0855 C.3       3 GLC5        0.0000 
     15 CA         10.4000   15.9190    4.8270 C.3       6 GLP5        0.0000 
     16 CA          9.0010   13.7925    1.8700 C.3       3 GLC5        0.0000 
     17 CA          9.8150   14.8520    0.3960 C.3       6 GLP5        0.0000 
     18 CA         11.2565   11.1045    6.6140 C.3       3 GLC5        0.0000 
     19 CA          9.6110   12.0100    5.8970 C.3       9 GLL5        0.0000 
     20 CA         12.9020   10.1990    7.3310 C.3       6 GLP5        0.0000 
     21 CA         10.3260   13.7550    6.5735 C.3       3 GLC5        0.0000 
     22 CA         11.0410   15.5000    7.2500 C.3       6 GLP5        0.0000 
     23 N           7.5245   11.2945    7.9050 N.am      2 SEC2        0.0000 
     24 N           7.7980   10.5110    6.4060 N.am      8 SEL2        0.0000 
     25 N           7.2510   12.0780    9.4040 N.am      5 SEP2        0.0000 
     26 CA          5.9870    6.3540    5.6130 C.3       3 GLC5        0.0000 
     27 CA          5.4370    7.8090    6.8780 C.3       9 GLL5        0.0000 
     28 CA          6.5370    4.8990    4.3480 C.3       6 GLP5        0.0000 
     29 CA          4.6000    5.6710    6.5190 C.3       3 GLC5        0.0000 
     30 CA          4.9790    6.9850    7.8970 C.3       9 GLL5        0.0000 
     31 CA          4.2210    4.3570    5.1410 C.3       6 GLP5        0.0000 
     32 CA          5.4795    5.4890   10.2365 C.3       3 GLC5        0.0000 
     33 CA          5.2410    7.3560    9.2110 C.3       9 GLL5        0.0000 
     34 CA          5.7180    3.6220   11.2620 C.3       6 GLP5        0.0000 
     35 CA          6.1860   10.7110    8.9470 C.3       3 GLC5        0.0000 
     36 CA          5.9370    8.5320    9.4410 C.3       9 GLL5        0.0000 
     37 CA          6.4350   12.8900    8.4530 C.3       6 GLP5        0.0000 
     38 N           6.8120   10.7055    8.9410 N.am      2 SEC2        0.0000 
     39 N           6.3730    9.3330    8.4780 N.am      8 SEL2        0.0000 
     40 CA          7.5955    8.0895    3.6690 C.3       3 GLC5        0.0000 
     41 CA          5.7310    8.2490    3.0220 C.3       9 GLL5        0.0000 
     42 CA          9.4600    7.9300    4.3160 C.3       6 GLP5        0.0000 
     43 CA          7.3925    6.8590    2.1735 C.3       3 GLC5        0.0000 
     44 CA          5.5310    7.3000    2.0290 C.3       9 GLL5        0.0000 
     45 CA          9.2540    6.4180    2.3180 C.3       6 GLP5        0.0000 
     46 CA          5.3690    7.3730    0.0550 C.3       3 GLC5        0.0000 
     47 CA          5.2070    7.4460   -1.9190 C.3       6 GLP5        0.0000 
     48 CA          6.3125    5.4950    1.2245 C.3       3 GLC5        0.0000 
     49 CA          7.0940    3.6900    0.4200 C.3       6 GLP5        0.0000 
     50 N           4.2895    6.0995    0.3895 N.am      2 SEC2        0.0000 
     51 N           4.3420    6.7570    1.7310 N.am      8 SEL2        0.0000 
     52 N           4.2370    5.4420   -0.9520 N.am      5 SEP2        0.0000 
     53 CA          1.2225    4.3325    7.7060 C.3       3 GLC5        0.0000 
     54 CA          1.2610    6.3510    7.1450 C.3       9 GLL5        0.0000 
     55 CA          1.1840    2.3140    8.2670 C.3       6 GLP5        0.0000 
     56 CA          2.7410    5.3540    6.1430 C.3       3 GLC5        0.0000 
     57 CA         -1.9835    8.3580    5.3520 C.3       3 GLC5        0.0000 
     58 CA         -2.8500    7.0800    6.0860 C.3       9 GLL5        0.0000 
     59 CA         -1.1170    9.6360    4.6180 C.3       6 GLP5        0.0000 
     60 CA         -1.0085    7.9115    3.7030 C.3       3 GLC5        0.0000 
     61 CA         -1.4730    6.1000    3.1800 C.3       9 GLL5        0.0000 
     62 CA         -0.2945    4.5865    3.1835 C.3       3 GLC5        0.0000 
     63 CA          0.3110    2.9860    3.5790 C.3       6 GLP5        0.0000 
     64 CA         -0.0720    8.0235    4.1495 C.3       3 GLC5        0.0000 
     65 CA          0.9250    6.4250    2.9850 C.3       9 GLL5        0.0000 
     66 CA          0.6420    4.6985    3.6300 C.3       3 GLC5        0.0000 
     67 CA          1.0210    6.3970    4.3770 C.3       9 GLL5        0.0000 
     68 CA          2.5970    5.3840    4.4110 C.3       3 GLC5        0.0000 
     69 CA          4.2730    9.1755    1.7900 C.3       3 GLC5        0.0000 
     70 CA          3.2800    7.1530    2.4490 C.3       9 GLL5        0.0000 
     71 CA          3.7695    5.9930    4.0480 C.3       3 GLC5        0.0000 
     72 CA          3.3560    8.1050    3.4610 C.3       9 GLL5        0.0000 
     73 CA          3.1120   10.1040    4.0147 C.3       3 GLC5        0.0000 
     74 CA          2.2470   11.8290    4.4270 C.3       6 GLP5        0.0000 
     75 CA          4.2050   11.2383    4.4835 C.3       3 GLC5        0.0000 
     76 CA          5.9160   10.1870    4.9920 C.3       9 GLL5        0.0000 
     77 CA          5.6955   10.6847    2.5825 C.3       3 GLC5        0.0000 
     78 CA          8.8980   11.2820    2.5640 C.3       3 GLC5        0.0000 
     79 CA          7.6210   11.7310    4.3320 C.3       9 GLL5        0.0000 
     80 CA          9.8920   10.3320    1.2900 C.3       6 GLP5        0.0000 
     81 CA          6.9781   13.5786    4.9595 C.3       3 GLC5        0.0000 
     82 CA          6.3550   15.0810    6.1420 C.3       6 GLP5        0.0000 
     83 CA          7.6910   12.2952    7.0812 C.3       3 GLC5        0.0000 
     84 CA          8.2830   11.3910    5.5220 C.3       9 GLL5        0.0000 
     85 CA          9.1208    9.8577    4.8640 C.3       3 GLC5        0.0000 
     86 CA          7.9275    9.1044    4.8308 C.3       3 GLC5        0.0000 
     87 CA          6.6270    9.9100    6.1510 C.3       9 GLL5        0.0000 
     88 CA          6.3194   11.2006    7.4211 C.3       3 GLC5        0.0000 
     89 CA          7.2302    7.1118    7.3008 C.3       3 GLC5        0.0000 
     90 CA          6.1360    8.9740    7.2070 C.3       9 GLL5        0.0000 
     91 CA          8.6740    5.8320    7.5590 C.3       6 GLP5        0.0000 
     92 CA          6.9160    7.7280   10.6650 C.3       3 GLC5        0.0000 
     93 CA          8.2430    7.5120   12.0040 C.3       6 GLP5        0.0000 
     94 CA          7.0987    6.8416    8.2782 C.3       3 GLC5        0.0000 
     95 CA          5.2879    9.2988    1.6655 C.3       3 GLC5        0.0000 
     96 CA          4.5980    8.6530    3.7440 C.3       9 GLL5        0.0000 
     97 CA          5.9424    6.3872    3.5270 C.3       3 GLC5        0.0000 
     98 CA         -0.9287    7.8945    4.7477 C.3       3 GLC5        0.0000 
     99 CA         -0.1110    6.2230    5.1760 C.3       9 GLL5        0.0000 
    100 CA         -0.2148    4.5695    4.2283 C.3       3 GLC5        0.0000 
    101 CA         -1.3700    6.0830    4.5790 C.3       9 GLL5        0.0000 
@<TRIPOS>BOND
@<TRIPOS>SUBSTRUCTURE
     1 ALC1        6 GROUP        1 X    ALC  0     ROOT ALC X 1
     2 SEC2       23 GROUP        1 X    SEC  0     **** SEC X 2
     3 GLC5        1 GROUP        1 X    GLC  0     **** GLC X 6
     4 ALP1        8 GROUP        1 Y    ALP  0     ROOT ALP Y 8
     5 SEP2       25 GROUP        1 Y    SEP  0     **** SEP Y 9
     6 GLP5        3 GROUP        1 Y    GLP  0     **** GLP Y 13
     7 ALL1        7 GROUP        1 Z    ALL  0     ROOT ALL Z 15
     8 SEL2       24 GROUP        1 Z    SEL  0     **** SEL Z 16
     9 GLL5        2 GROUP        1 Z    GLL  0     **** GLL Z 20
@<TRIPOS>SET

