#    Name: 2wot_ZZG_1_ligand
#    Modification time : Tue Mar 25 04:33:57 2014

@<TRIPOS>MOLECULE
2wot_ZZG_1_ligand
   60    63     1     0     0
SMALL
NO_CHARGES


@<TRIPOS>ATOM
      1 C1         -2.8880    5.9580    1.2510 C.3       1 ZZG1500     0.0000 
      2 O2         -2.7310    5.9440    2.6750 O.3       1 ZZG1500     0.0000 
      3 C3         -1.4730    6.1000    3.1800 C.ar      1 ZZG1500     0.0000 
      4 C4         -0.3270    6.2740    2.3960 C.ar      1 ZZG1500     0.0000 
      5 C5          0.9250    6.4250    2.9850 C.ar      1 ZZG1500     0.0000 
      6 N6          2.0400    6.5880    2.1330 N.pl3     1 ZZG1500     0.0000 
      7 C7          3.2800    7.1530    2.4490 C.ar      1 ZZG1500     0.0000 
      8 C8          3.3560    8.1050    3.4610 C.ar      1 ZZG1500     0.0000 
      9 C9          4.5980    8.6530    3.7440 C.ar      1 ZZG1500     0.0000 
     10 O10         4.7060    9.5910    4.7500 O.3       1 ZZG1500     0.0000 
     11 C11         5.9160   10.1870    4.9920 C.ar      1 ZZG1500     0.0000 
     12 C12         6.4100   11.1080    4.0880 C.ar      1 ZZG1500     0.0000 
     13 C13         7.6210   11.7310    4.3320 C.ar      1 ZZG1500     0.0000 
     14 C14         8.1870   12.7330    3.3440 C.3       1 ZZG1500     0.0000 
     15 C15         8.2830   11.3910    5.5220 C.ar      1 ZZG1500     0.0000 
     16 C16         9.6110   12.0100    5.8970 C.3       1 ZZG1500     0.0000 
     17 N17         7.7980   10.5110    6.4060 N.ar      1 ZZG1500     0.0000 
     18 C18         6.6270    9.9100    6.1510 C.ar      1 ZZG1500     0.0000 
     19 C19         6.1360    8.9740    7.2070 C.ar      1 ZZG1500     0.0000 
     20 C20         5.4370    7.8090    6.8780 C.ar      1 ZZG1500     0.0000 
     21 C21         4.9790    6.9850    7.8970 C.ar      1 ZZG1500     0.0000 
     22 C22         5.2410    7.3560    9.2110 C.ar      1 ZZG1500     0.0000 
     23 C23         5.9370    8.5320    9.4410 C.ar      1 ZZG1500     0.0000 
     24 N24         6.3730    9.3330    8.4780 N.ar      1 ZZG1500     0.0000 
     25 C25         5.7310    8.2490    3.0220 C.ar      1 ZZG1500     0.0000 
     26 C26         5.5310    7.3000    2.0290 C.ar      1 ZZG1500     0.0000 
     27 N27         4.3420    6.7570    1.7310 N.ar      1 ZZG1500     0.0000 
     28 C28         1.0210    6.3970    4.3770 C.ar      1 ZZG1500     0.0000 
     29 C29        -0.1110    6.2230    5.1760 C.ar      1 ZZG1500     0.0000 
     30 O30        -0.0310    6.2010    6.5440 O.3       1 ZZG1500     0.0000 
     31 C31         1.2610    6.3510    7.1450 C.3       1 ZZG1500     0.0000 
     32 C32        -1.3700    6.0830    4.5790 C.ar      1 ZZG1500     0.0000 
     33 O33        -2.4870    5.8950    5.3630 O.3       1 ZZG1500     0.0000 
     34 C34        -2.8500    7.0800    6.0860 C.3       1 ZZG1500     0.0000 
     35 H          -0.4148    6.2901    1.3671 H         1 ZZG1500     0.0000 
     36 H           1.9156    6.2340    1.1224 H         1 ZZG1500     0.0000 
     37 H           2.5282    8.3876    3.9740 H         1 ZZG1500     0.0000 
     38 H           5.8786   11.3307    3.2344 H         1 ZZG1500     0.0000 
     39 H           5.2677    7.5710    5.8992 H         1 ZZG1500     0.0000 
     40 H           4.4656    6.1327    7.6890 H         1 ZZG1500     0.0000 
     41 H           4.9272    6.7744    9.9867 H         1 ZZG1500     0.0000 
     42 H           6.1206    8.7866   10.4605 H         1 ZZG1500     0.0000 
     43 H           6.6375    8.6312    3.2190 H         1 ZZG1500     0.0000 
     44 H           6.3922    6.9951    1.4773 H         1 ZZG1500     0.0000 
     45 H           1.9470    6.5071    4.8253 H         1 ZZG1500     0.0000 
     46 H          -2.5778    6.8207    0.8516 H         1 ZZG1500     0.0000 
     47 H          -2.3649    5.2272    0.8125 H         1 ZZG1500     0.0000 
     48 H          -3.8434    5.8370    0.9815 H         1 ZZG1500     0.0000 
     49 H           9.0641   13.1025    3.6510 H         1 ZZG1500     0.0000 
     50 H           8.3404   12.3223    2.4452 H         1 ZZG1500     0.0000 
     51 H           7.5723   13.5103    3.2100 H         1 ZZG1500     0.0000 
     52 H           9.9504   11.6602    6.7702 H         1 ZZG1500     0.0000 
     53 H          10.3150   11.8218    5.2122 H         1 ZZG1500     0.0000 
     54 H           9.5458   13.0040    5.9848 H         1 ZZG1500     0.0000 
     55 H           1.8894    5.6271    6.8603 H         1 ZZG1500     0.0000 
     56 H           1.6863    7.2219    6.8988 H         1 ZZG1500     0.0000 
     57 H           1.2120    6.3207    8.1433 H         1 ZZG1500     0.0000 
     58 H          -2.1169    7.3827    6.6950 H         1 ZZG1500     0.0000 
     59 H          -3.0540    7.8421    5.4715 H         1 ZZG1500     0.0000 
     60 H          -3.6610    6.9354    6.6529 H         1 ZZG1500     0.0000 
@<TRIPOS>BOND
     1    2    1 1    
     2   46    1 1    
     3   47    1 1    
     4   48    1 1    
     5    3    2 1    
     6    4    3 ar   
     7   32    3 ar   
     8    5    4 ar   
     9   35    4 1    
    10    6    5 1    
    11   28    5 ar   
    12    7    6 1    
    13   36    6 1    
    14    8    7 ar   
    15   27    7 ar   
    16    9    8 ar   
    17   37    8 1    
    18   10    9 1    
    19   25    9 ar   
    20   11   10 1    
    21   12   11 ar   
    22   18   11 ar   
    23   13   12 ar   
    24   38   12 1    
    25   14   13 1    
    26   15   13 ar   
    27   49   14 1    
    28   50   14 1    
    29   51   14 1    
    30   16   15 1    
    31   17   15 ar   
    32   52   16 1    
    33   53   16 1    
    34   54   16 1    
    35   18   17 ar   
    36   19   18 1    
    37   20   19 ar   
    38   24   19 ar   
    39   21   20 ar   
    40   39   20 1    
    41   22   21 ar   
    42   40   21 1    
    43   23   22 ar   
    44   41   22 1    
    45   24   23 ar   
    46   42   23 1    
    47   26   25 ar   
    48   43   25 1    
    49   27   26 ar   
    50   44   26 1    
    51   29   28 ar   
    52   45   28 1    
    53   30   29 1    
    54   32   29 ar   
    55   31   30 1    
    56   55   31 1    
    57   56   31 1    
    58   57   31 1    
    59   33   32 1    
    60   34   33 1    
    61   58   34 1    
    62   59   34 1    
    63   60   34 1    
@<TRIPOS>SUBSTRUCTURE
     1 ZZG1500     1 GROUP   
@<TRIPOS>SET

