#    Name: 4nk5_NAD_4_INTS_M
#    Modification time : Tue Mar 25 13:12:59 2014

@<TRIPOS>MOLECULE
4nk5_NAD_4_INTS_M
   93     0     9     0     0
SMALL
NO_CHARGES


@<TRIPOS>ATOM
      1 N        -118.9620  -32.1375   12.9005 N.am      2 SEC2        0.0000 
      2 N        -118.4210  -31.3730   11.5880 N.am      8 SEL2        0.0000 
      3 N        -119.5030  -32.9020   14.2130 N.am      5 SEP2        0.0000 
      4 N        -119.4190  -33.2945   12.8580 N.am      2 SEC2        0.0000 
      5 N        -119.3350  -33.6870   11.5030 N.am      8 SEL2        0.0000 
      6 CA       -120.0885  -28.1150   10.3550 C.3       3 GLC5        0.0000 
      7 CA       -120.4810  -29.6950    9.1440 C.3       9 GLL5        0.0000 
      8 CA       -119.6960  -26.5350   11.5660 C.3       6 GLP5        0.0000 
      9 CA       -119.1480  -28.1905    8.1530 C.3       3 GLC5        0.0000 
     10 CA       -117.8150  -26.6860    7.1620 C.3       6 GLP5        0.0000 
     11 O        -121.0375  -29.0750   11.4285 O.2       1 ALC1        0.0000 
     12 O        -122.1320  -29.2890   10.8240 O.2       7 ALL1        0.0000 
     13 O        -119.9430  -28.8610   12.0330 O.2       4 ALP1        0.0000 
     14 CA       -120.8425  -26.9405    8.0880 C.3       3 GLC5        0.0000 
     15 CA       -122.0830  -28.6600    7.9970 C.3       9 GLL5        0.0000 
     16 CA       -119.6020  -25.2210    8.1790 C.3       6 GLP5        0.0000 
     17 CA       -125.6315  -27.6760    6.3160 C.3       3 GLC5        0.0000 
     18 CA       -123.8260  -27.3320    5.0600 C.3       9 GLL5        0.0000 
     19 CA       -127.4370  -28.0200    7.5720 C.3       6 GLP5        0.0000 
     20 CA       -123.3895  -24.6375    4.3645 C.3       3 GLC5        0.0000 
     21 CA       -124.4810  -26.2410    4.4560 C.3       9 GLL5        0.0000 
     22 CA       -122.2980  -23.0340    4.2730 C.3       6 GLP5        0.0000 
     23 O        -125.9685  -24.9650    3.1175 O.2       1 ALC1        0.0000 
     24 O        -125.0110  -26.4100    3.1160 O.2       7 ALL1        0.0000 
     25 O        -126.9260  -23.5200    3.1190 O.2       4 ALP1        0.0000 
     26 N        -124.8770  -23.5895    4.9830 N.am      2 SEC2        0.0000 
     27 N        -124.6200  -25.0660    5.1140 N.am      8 SEL2        0.0000 
     28 N        -125.1340  -22.1130    4.8520 N.am      5 SEP2        0.0000 
     29 CA       -125.4535  -26.2300    7.6090 C.3       3 GLC5        0.0000 
     30 CA       -124.1240  -24.9470    6.3590 C.3       9 GLL5        0.0000 
     31 CA       -126.7830  -27.5130    8.8590 C.3       6 GLP5        0.0000 
     32 CA       -125.7500  -23.7625    6.0420 C.3       3 GLC5        0.0000 
     33 CA       -127.3760  -22.5780    5.7250 C.3       6 GLP5        0.0000 
     34 CA       -123.2110  -23.9905    5.3160 C.3       3 GLC5        0.0000 
     35 CA       -122.2615  -24.4450    7.2465 C.3       3 GLC5        0.0000 
     36 CA       -120.3990  -23.9430    8.1340 C.3       6 GLP5        0.0000 
     37 CA       -125.0515  -27.3405    7.6045 C.3       3 GLC5        0.0000 
     38 CA       -123.3200  -27.1680    6.3500 C.3       9 GLL5        0.0000 
     39 CA       -121.4840  -26.4180    6.0400 C.3       3 GLC5        0.0000 
     40 CA       -119.6480  -25.6680    5.7300 C.3       6 GLP5        0.0000 
     41 N        -115.4340  -32.0900   12.8870 N.am      2 SEC2        0.0000 
     42 N        -115.8010  -32.1620   11.4010 N.am      8 SEL2        0.0000 
     43 N        -115.0670  -32.0180   14.3730 N.am      5 SEP2        0.0000 
     44 N        -115.6630  -35.1720    9.7055 N.am      2 SEC2        0.0000 
     45 N        -115.3500  -33.9610    9.6870 N.am      8 SEL2        0.0000 
     46 N        -115.9760  -36.3830    9.7240 N.am      5 SEP2        0.0000 
     47 CA       -115.0455  -28.5230   10.3200 C.3       3 GLC5        0.0000 
     48 CA       -114.9490  -30.3940    9.3260 C.3       9 GLL5        0.0000 
     49 CA       -115.1420  -26.6520   11.3140 C.3       6 GLP5        0.0000 
     50 CA       -114.7190  -27.8625    9.1615 C.3       3 GLC5        0.0000 
     51 CA       -114.0830  -29.7550    8.3620 C.3       9 GLL5        0.0000 
     52 CA       -115.3550  -25.9700    9.9610 C.3       6 GLP5        0.0000 
     53 CA       -112.6270  -28.5705    8.5830 C.3       3 GLC5        0.0000 
     54 CA       -111.1710  -27.3860    8.8040 C.3       6 GLP5        0.0000 
     55 N        -113.5320  -28.5185    5.0310 N.am      2 SEC2        0.0000 
     56 N        -114.4340  -28.8500    6.2590 N.am      8 SEL2        0.0000 
     57 N        -112.6300  -28.1870    3.8030 N.am      5 SEP2        0.0000 
     58 O        -115.5325  -27.7525    5.6660 O.2       1 ALC1        0.0000 
     59 O        -114.4340  -28.8500    6.2590 O.2       7 ALL1        0.0000 
     60 O        -116.6310  -26.6550    5.0730 O.2       4 ALP1        0.0000 
     61 CA       -112.8655  -30.0725    4.6200 C.3       3 GLC5        0.0000 
     62 CA       -113.7020  -31.0410    6.4530 C.3       9 GLL5        0.0000 
     63 CA       -112.0290  -29.1040    2.7870 C.3       6 GLP5        0.0000 
     64 N        -113.1240  -29.5770    4.4445 N.am      2 SEC2        0.0000 
     65 N        -113.6180  -30.9670    5.0860 N.am      8 SEL2        0.0000 
     66 CA       -112.2655  -31.4145    9.1585 C.3       3 GLC5        0.0000 
     67 CA       -112.4000  -30.7440    7.1180 C.3       9 GLL5        0.0000 
     68 CA       -112.1310  -32.0850   11.1990 C.3       6 GLP5        0.0000 
     69 CA       -111.7855  -29.0650    7.9610 C.3       3 GLC5        0.0000 
     70 N        -110.7385  -37.2100    9.5825 N.am      2 SEC2        0.0000 
     71 N        -111.4120  -36.3210    8.7080 N.am      8 SEL2        0.0000 
     72 N        -110.0650  -38.0990   10.4570 N.am      5 SEP2        0.0000 
     73 O        -113.1145  -36.5730    9.9030 O.2       1 ALC1        0.0000 
     74 O        -113.3020  -35.1020    9.0690 O.2       7 ALL1        0.0000 
     75 O        -112.9270  -38.0440   10.7370 O.2       4 ALP1        0.0000 
     76 O        -114.6390  -35.7425    9.3965 O.2       1 ALC1        0.0000 
     77 O        -115.9760  -36.3830    9.7240 O.2       4 ALP1        0.0000 
     78 CA       -122.5503  -31.1060   10.7130 C.3       3 GLC5        0.0000 
     79 CA       -121.7770  -30.0900    9.6840 C.3       9 GLL5        0.0000 
     80 CA       -122.8740  -32.2390   12.2610 C.3       6 GLP5        0.0000 
     81 CA       -122.7297  -26.6258    3.4580 C.3       3 GLC5        0.0000 
     82 CA       -121.3060  -26.4650    2.1580 C.3       6 GLP5        0.0000 
     83 CA       -113.3235  -31.0798   10.0215 C.3       3 GLC5        0.0000 
     84 CA       -115.3330  -30.1685    5.3870 C.3       3 GLC5        0.0000 
     85 CA       -114.5760  -29.9910    6.9870 C.3       9 GLL5        0.0000 
     86 CA       -116.5270  -29.8210    4.0540 C.3       6 GLP5        0.0000 
     87 CA       -111.9177  -32.8100    9.3705 C.3       3 GLC5        0.0000 
     88 CA       -112.0540  -32.8930    7.3710 C.3       9 GLL5        0.0000 
     89 CA       -108.8402  -32.3110    5.5700 C.3       3 GLC5        0.0000 
     90 CA       -109.9790  -31.7400    7.1900 C.3       9 GLL5        0.0000 
     91 CA       -108.0780  -32.2600    3.7810 C.3       6 GLP5        0.0000 
     92 CA       -108.4232  -32.1335    8.7520 C.3       3 GLC5        0.0000 
     93 CA       -107.2440  -31.9050   10.1450 C.3       6 GLP5        0.0000 
@<TRIPOS>BOND
@<TRIPOS>SUBSTRUCTURE
     1 ALC1       11 GROUP        1 X    ALC  0     ROOT ALC X 1
     2 SEC2        1 GROUP        1 X    SEC  0     **** SEC X 2
     3 GLC5        6 GROUP        1 X    GLC  0     **** GLC X 6
     4 ALP1       13 GROUP        1 Y    ALP  0     ROOT ALP Y 8
     5 SEP2        3 GROUP        1 Y    SEP  0     **** SEP Y 9
     6 GLP5        8 GROUP        1 Y    GLP  0     **** GLP Y 13
     7 ALL1       12 GROUP        1 Z    ALL  0     ROOT ALL Z 15
     8 SEL2        2 GROUP        1 Z    SEL  0     **** SEL Z 16
     9 GLL5        7 GROUP        1 Z    GLL  0     **** GLL Z 20
@<TRIPOS>SET

