#    Name: 4nk5_NAD_4_ligand
#    Modification time : Tue Mar 25 13:12:59 2014

@<TRIPOS>MOLECULE
4nk5_NAD_4_ligand
   70    74     1     0     0
SMALL
NO_CHARGES


@<TRIPOS>ATOM
      1 PA       -118.8370  -32.5050   10.6720 P.3       1 NAD300      0.0000 
      2 O1A      -118.4210  -31.3730   11.5880 O.co2     1 NAD300      0.0000 
      3 O2A      -119.3350  -33.6870   11.5030 O.co2     1 NAD300      0.0000 
      4 O5B      -119.9360  -31.9850    9.6970 O.3       1 NAD300      0.0000 
      5 C5B      -119.7140  -30.9240    8.8470 C.3       1 NAD300      0.0000 
      6 C4B      -120.4810  -29.6950    9.1440 C.3       1 NAD300      0.0000 
      7 O4B      -120.7080  -28.9430    7.9930 O.3       1 NAD300      0.0000 
      8 C3B      -121.7770  -30.0900    9.6840 C.3       1 NAD300      0.0000 
      9 O3B      -122.1320  -29.2890   10.8240 O.3       1 NAD300      0.0000 
     10 C2B      -122.6760  -29.8560    8.6460 C.3       1 NAD300      0.0000 
     11 O2B      -123.9880  -29.5950    9.1660 O.3       1 NAD300      0.0000 
     12 C1B      -122.0830  -28.6600    7.9970 C.3       1 NAD300      0.0000 
     13 N9A      -122.7320  -28.3510    6.6970 N.pl3     1 NAD300      0.0000 
     14 C8A      -122.8800  -29.2130    5.6800 C.2       1 NAD300      0.0000 
     15 N7A      -123.5390  -28.6000    4.6770 N.2       1 NAD300      0.0000 
     16 C5A      -123.8260  -27.3320    5.0600 C.ar      1 NAD300      0.0000 
     17 C6A      -124.4810  -26.2410    4.4560 C.ar      1 NAD300      0.0000 
     18 N6A      -125.0110  -26.4100    3.1160 N.pl3     1 NAD300      0.0000 
     19 N1A      -124.6200  -25.0660    5.1140 N.ar      1 NAD300      0.0000 
     20 C2A      -124.1240  -24.9470    6.3590 C.ar      1 NAD300      0.0000 
     21 N3A      -123.4860  -25.9680    6.9610 N.ar      1 NAD300      0.0000 
     22 C4A      -123.3200  -27.1680    6.3500 C.ar      1 NAD300      0.0000 
     23 O3       -117.6410  -33.0020    9.7610 O.3       1 NAD300      0.0000 
     24 PN       -116.1070  -32.6670    9.9800 P.3       1 NAD300      0.0000 
     25 O1N      -115.8010  -32.1620   11.4010 O.co2     1 NAD300      0.0000 
     26 O2N      -115.3500  -33.9610    9.6870 O.co2     1 NAD300      0.0000 
     27 O5D      -115.6650  -31.5440    8.9240 O.3       1 NAD300      0.0000 
     28 C5D      -114.9490  -30.3940    9.3260 C.3       1 NAD300      0.0000 
     29 C4D      -114.0830  -29.7550    8.3620 C.3       1 NAD300      0.0000 
     30 O4D      -112.7330  -30.3230    8.4210 O.3       1 NAD300      0.0000 
     31 C3D      -114.5760  -29.9910    6.9870 C.3       1 NAD300      0.0000 
     32 O3D      -114.4340  -28.8500    6.2590 O.3       1 NAD300      0.0000 
     33 C2D      -113.7020  -31.0410    6.4530 C.3       1 NAD300      0.0000 
     34 O2D      -113.6180  -30.9670    5.0860 O.3       1 NAD300      0.0000 
     35 C1D      -112.4000  -30.7440    7.1180 C.3       1 NAD300      0.0000 
     36 N1N      -111.3230  -31.7720    7.0910 N.pl3     1 NAD300      0.0000 
     37 C2N      -112.0540  -32.8930    7.3710 C.ar      1 NAD300      0.0000 
     38 C3N      -111.3550  -34.1770    7.7130 C.ar      1 NAD300      0.0000 
     39 C7N      -112.0080  -35.2660    8.5170 C.2       1 NAD300      0.0000 
     40 O7N      -111.4120  -36.3210    8.7080 O.2       1 NAD300      0.0000 
     41 N7N      -113.3020  -35.1020    9.0690 N.am      1 NAD300      0.0000 
     42 C4N      -109.9100  -34.2980    7.4140 C.ar      1 NAD300      0.0000 
     43 C5N      -109.2260  -32.9840    7.5280 C.ar      1 NAD300      0.0000 
     44 C6N      -109.9790  -31.7400    7.1900 C.ar      1 NAD300      0.0000 
     45 H        -119.9302  -31.2053    7.7717 H         1 NAD300      0.0000 
     46 H        -118.6183  -30.6399    8.8201 H         1 NAD300      0.0000 
     47 H        -119.9527  -29.1258    9.8957 H         1 NAD300      0.0000 
     48 H        -121.7487  -31.1325    9.9373 H         1 NAD300      0.0000 
     49 H        -122.6678  -30.6590    7.9451 H         1 NAD300      0.0000 
     50 H        -122.2767  -27.8187    8.7022 H         1 NAD300      0.0000 
     51 H        -122.5644  -30.1316    5.6653 H         1 NAD300      0.0000 
     52 H        -124.8527  -27.3004    2.6893 H         1 NAD300      0.0000 
     53 H        -125.4908  -25.6221    2.7300 H         1 NAD300      0.0000 
     54 H        -124.2372  -24.0355    6.8739 H         1 NAD300      0.0000 
     55 H        -114.3326  -30.6341   10.2583 H         1 NAD300      0.0000 
     56 H        -115.6784  -29.6108    9.7277 H         1 NAD300      0.0000 
     57 H        -114.0296  -28.6939    8.5332 H         1 NAD300      0.0000 
     58 H        -115.5741  -30.3564    7.0403 H         1 NAD300      0.0000 
     59 H        -114.0498  -31.9878    6.8237 H         1 NAD300      0.0000 
     60 H        -111.9959  -29.8197    6.5828 H         1 NAD300      0.0000 
     61 H        -113.0686  -32.9182    7.3635 H         1 NAD300      0.0000 
     62 H        -113.7435  -34.2206    8.9012 H         1 NAD300      0.0000 
     63 H        -113.6645  -35.8815    9.5798 H         1 NAD300      0.0000 
     64 H        -109.4820  -35.0946    7.1837 H         1 NAD300      0.0000 
     65 H        -108.2836  -32.9307    7.8238 H         1 NAD300      0.0000 
     66 H        -109.4185  -30.8997    7.0461 H         1 NAD300      0.0000 
     67 H        -121.3174  -28.7431   11.0203 H         1 NAD300      0.0000 
     68 H        -123.8472  -29.3972   10.1361 H         1 NAD300      0.0000 
     69 H        -115.3640  -28.5030    6.1379 H         1 NAD300      0.0000 
     70 H        -113.1051  -31.7812    4.8139 H         1 NAD300      0.0000 
@<TRIPOS>BOND
     1    2    1 ar   
     2    3    1 ar   
     3    4    1 1    
     4   23    1 1    
     5    5    4 1    
     6    6    5 1    
     7   45    5 1    
     8   46    5 1    
     9    7    6 1    
    10    8    6 1    
    11   47    6 1    
    12   12    7 1    
    13    9    8 1    
    14   10    8 1    
    15   48    8 1    
    16   67    9 1    
    17   11   10 1    
    18   12   10 1    
    19   49   10 1    
    20   68   11 1    
    21   13   12 1    
    22   50   12 1    
    23   14   13 1    
    24   22   13 1    
    25   15   14 2    
    26   51   14 1    
    27   16   15 1    
    28   17   16 ar   
    29   22   16 ar   
    30   18   17 1    
    31   19   17 ar   
    32   52   18 1    
    33   53   18 1    
    34   20   19 ar   
    35   21   20 ar   
    36   54   20 1    
    37   22   21 ar   
    38   24   23 1    
    39   25   24 ar   
    40   26   24 ar   
    41   27   24 1    
    42   28   27 1    
    43   29   28 1    
    44   55   28 1    
    45   56   28 1    
    46   30   29 1    
    47   31   29 1    
    48   57   29 1    
    49   35   30 1    
    50   32   31 1    
    51   33   31 1    
    52   58   31 1    
    53   69   32 1    
    54   34   33 1    
    55   35   33 1    
    56   59   33 1    
    57   70   34 1    
    58   36   35 1    
    59   60   35 1    
    60   37   36 ar   
    61   44   36 ar   
    62   38   37 ar   
    63   61   37 1    
    64   39   38 1    
    65   42   38 ar   
    66   40   39 2    
    67   41   39 am   
    68   62   41 1    
    69   63   41 1    
    70   43   42 ar   
    71   64   42 1    
    72   44   43 ar   
    73   65   43 1    
    74   66   44 1    
@<TRIPOS>SUBSTRUCTURE
     1 NAD300      1 GROUP   
@<TRIPOS>SET

