#    Name: 1uye_PU9_1_INTS_M
#    Modification time : Tue Mar 25 07:18:45 2014

@<TRIPOS>MOLECULE
1uye_PU9_1_INTS_M
   68     0     6     0     0
SMALL
NO_CHARGES


@<TRIPOS>ATOM
      1 CA          1.5665   13.7740   25.9525 C.3       2 GLC5        0.0000 
      2 CA          2.2560   13.9900   24.2570 C.3       6 GLL5        0.0000 
      3 CA          0.8770   13.5580   27.6480 C.3       4 GLP5        0.0000 
      4 CA          2.8730   14.9045   22.9175 C.3       2 GLC5        0.0000 
      5 CA          3.4900   15.8190   21.5780 C.3       4 GLP5        0.0000 
      6 CA          2.1525   16.0840   24.3510 C.3       2 GLC5        0.0000 
      7 CA          2.0490   18.1780   24.4450 C.3       4 GLP5        0.0000 
      8 CA          0.6415   15.1385   23.4155 C.3       2 GLC5        0.0000 
      9 CA         -0.9730   16.2870   22.5740 C.3       4 GLP5        0.0000 
     10 CA          4.7090   16.0300   27.7615 C.3       2 GLC5        0.0000 
     11 CA          5.1590   16.5150   25.7010 C.3       6 GLL5        0.0000 
     12 CA          4.2590   15.5450   29.8220 C.3       4 GLP5        0.0000 
     13 CA          4.8965   16.5075   23.8295 C.3       2 GLC5        0.0000 
     14 CA          4.6340   16.5000   21.9580 C.3       4 GLP5        0.0000 
     15 CA          3.6040   17.3465   25.0730 C.3       2 GLC5        0.0000 
     16 CA          5.6760   17.8610   25.9445 C.3       2 GLC5        0.0000 
     17 CA          6.1930   19.2070   26.1880 C.3       4 GLP5        0.0000 
     18 CA          7.1130   15.3580   23.2915 C.3       2 GLC5        0.0000 
     19 CA          8.3290   14.8030   24.7850 C.3       6 GLL5        0.0000 
     20 CA          5.8970   15.9130   21.7980 C.3       4 GLP5        0.0000 
     21 CA          9.2355   14.1710   23.1540 C.3       2 GLC5        0.0000 
     22 CA         10.1420   13.5390   21.5230 C.3       4 GLP5        0.0000 
     23 CA          8.1230   16.6660   24.6710 C.3       2 GLC5        0.0000 
     24 CA          7.9170   18.5290   24.5570 C.3       4 GLP5        0.0000 
     25 CA          7.1645   11.1900   26.0005 C.3       2 GLC5        0.0000 
     26 CA          6.4930   12.2180   24.2920 C.3       6 GLL5        0.0000 
     27 CA          7.8360   10.1620   27.7090 C.3       4 GLP5        0.0000 
     28 CA          8.0600   10.4090   25.6450 C.3       2 GLC5        0.0000 
     29 CA          8.2840   10.6560   23.5810 C.3       6 GLL5        0.0000 
     30 CA          9.9480    9.9010   23.3850 C.3       2 GLC5        0.0000 
     31 CA         11.6120    9.1460   23.1890 C.3       4 GLP5        0.0000 
     32 CA          9.1795   11.5565   22.1130 C.3       2 GLC5        0.0000 
     33 CA         10.0750   12.4570   20.6450 C.3       4 GLP5        0.0000 
     34 CA          1.3110   10.2905   21.8960 C.3       2 GLC5        0.0000 
     35 CA          3.0450   11.1730   22.9810 C.3       6 GLL5        0.0000 
     36 CA         -0.4230    9.4080   20.8110 C.3       4 GLP5        0.0000 
     37 CA          4.0245   11.8505   21.6130 C.3       2 GLC5        0.0000 
     38 CA          5.0040   12.5280   20.2450 C.3       4 GLP5        0.0000 
     39 CA         -0.2870   10.1445   22.7325 C.3       2 GLC5        0.0000 
     40 CA         -0.1510   10.8810   24.6540 C.3       6 GLL5        0.0000 
     41 CA         -2.6030    9.4110   25.5325 C.3       2 GLC5        0.0000 
     42 CA         -1.4770   10.9720   24.9820 C.3       6 GLL5        0.0000 
     43 CA         -3.7290    7.8500   26.0830 C.3       4 GLP5        0.0000 
     44 CA         -2.4140   12.5885   25.9025 C.3       2 GLC5        0.0000 
     45 CA         -3.3510   14.2050   26.8230 C.3       4 GLP5        0.0000 
     46 O          -3.8025   11.9110   24.2125 O.2       1 ALC1        0.0000 
     47 O          -2.4380   11.6520   24.1500 O.2       5 ALL1        0.0000 
     48 O          -5.1670   12.1700   24.2750 O.2       3 ALP1        0.0000 
     49 CA          1.4915   11.3355   26.7510 C.3       2 GLC5        0.0000 
     50 CA          0.6680   10.2330   25.5240 C.3       6 GLL5        0.0000 
     51 CA          2.3150   12.4380   27.9780 C.3       4 GLP5        0.0000 
     52 CA         -2.3760    8.8235   26.5160 C.3       2 GLC5        0.0000 
     53 CA         -1.0230    9.7970   26.9490 C.3       6 GLL5        0.0000 
     54 CA          0.3300   10.6785   28.1840 C.3       2 GLC5        0.0000 
     55 CA          1.6830   11.5600   29.4190 C.3       4 GLP5        0.0000 
     56 CA          2.6880   11.0080   26.8410 C.3       2 GLC5        0.0000 
     57 CA          3.0610    9.5780   25.7040 C.3       6 GLL5        0.0000 
     58 CA          4.2320   10.1110   27.0255 C.3       2 GLC5        0.0000 
     59 CA          5.4030   10.6440   28.3470 C.3       4 GLP5        0.0000 
     60 CA          4.5675    8.1880   26.6240 C.3       2 GLC5        0.0000 
     61 CA          3.0370    8.0610   25.4890 C.3       6 GLL5        0.0000 
     62 CA          6.0980    8.3150   27.7590 C.3       4 GLP5        0.0000 
     63 CA          3.3613   13.0215   26.2797 C.3       2 GLC5        0.0000 
     64 CA          3.8690   13.2630   24.2860 C.3       6 GLL5        0.0000 
     65 CA          4.5015   12.5815   22.1150 C.3       2 GLC5        0.0000 
     66 CA          5.4872   12.1943   22.1178 C.3       2 GLC5        0.0000 
     67 CA          5.4480   11.5030   23.6890 C.3       6 GLL5        0.0000 
     68 CA          0.0315   12.2423   26.2330 C.3       2 GLC5        0.0000 
@<TRIPOS>BOND
@<TRIPOS>SUBSTRUCTURE
     1 ALC1       46 GROUP        1 X    ALC  0     ROOT ALC X 1
     2 GLC5        1 GROUP        1 X    GLC  0     **** GLC X 6
     3 ALP1       48 GROUP        1 Y    ALP  0     ROOT ALP Y 8
     4 GLP5        3 GROUP        1 Y    GLP  0     **** GLP Y 13
     5 ALL1       47 GROUP        1 Z    ALL  0     ROOT ALL Z 15
     6 GLL5        2 GROUP        1 Z    GLL  0     **** GLL Z 20
@<TRIPOS>SET

