#    Name: 1uye_PU9_1_ligand
#    Modification time : Tue Mar 25 07:18:45 2014

@<TRIPOS>MOLECULE
1uye_PU9_1_ligand
   50    52     1     0     0
SMALL
NO_CHARGES


@<TRIPOS>ATOM
      1 CL          2.2560   13.9900   24.2570 Cl        1 PU91224     0.0000 
      2 C13         3.8690   13.2630   24.2860 C.ar      1 PU91224     0.0000 
      3 C15         4.9460   13.9470   24.8770 C.ar      1 PU91224     0.0000 
      4 O3          4.9810   15.2210   25.5140 O.3       1 PU91224     0.0000 
      5 C20         5.1590   16.5150   25.7010 C.3       1 PU91224     0.0000 
      6 C17         6.2210   13.4310   24.8810 C.ar      1 PU91224     0.0000 
      7 O2          7.2220   14.2270   25.5350 O.3       1 PU91224     0.0000 
      8 C19         8.3290   14.8030   24.7850 C.3       1 PU91224     0.0000 
      9 C16         6.4930   12.2180   24.2920 C.ar      1 PU91224     0.0000 
     10 O1          7.8040   11.7830   24.3480 O.3       1 PU91224     0.0000 
     11 C18         8.2840   10.6560   23.5810 C.3       1 PU91224     0.0000 
     12 C14         5.4480   11.5030   23.6890 C.ar      1 PU91224     0.0000 
     13 C12         4.1290   12.0070   23.6840 C.ar      1 PU91224     0.0000 
     14 C6          3.0450   11.1730   22.9810 C.3       1 PU91224     0.0000 
     15 C5          1.8530   10.8790   23.8830 C.2       1 PU91224     0.0000 
     16 N3          0.6050   11.3020   23.6430 N.2       1 PU91224     0.0000 
     17 C2         -0.1510   10.8810   24.6540 C.ar      1 PU91224     0.0000 
     18 C3         -1.4770   10.9720   24.9820 C.ar      1 PU91224     0.0000 
     19 N5         -2.4380   11.6520   24.1500 N.pl3     1 PU91224     0.0000 
     20 C1          0.6680   10.2330   25.5240 C.ar      1 PU91224     0.0000 
     21 N1          0.2850    9.6600   26.6660 N.ar      1 PU91224     0.0000 
     22 C4         -1.0230    9.7970   26.9490 C.ar      1 PU91224     0.0000 
     23 N2         -1.8770   10.4420   26.1350 N.ar      1 PU91224     0.0000 
     24 N4          1.9020   10.2070   25.0690 N.pl3     1 PU91224     0.0000 
     25 C7          3.0610    9.5780   25.7040 C.3       1 PU91224     0.0000 
     26 C8          3.0370    8.0610   25.4890 C.3       1 PU91224     0.0000 
     27 C9          3.1550    7.7060   24.0130 C.3       1 PU91224     0.0000 
     28 C10         4.5690    7.8510   23.4340 C.1       1 PU91224     0.0000 
     29 C11         5.6920    7.9600   23.0730 C.1       1 PU91224     0.0000 
     30 H           5.6414   10.5955   23.2416 H         1 PU91224     0.0000 
     31 H           3.4887   10.2281   22.6466 H         1 PU91224     0.0000 
     32 H           2.7026   11.7166   22.0929 H         1 PU91224     0.0000 
     33 H          -2.0895   12.0256   23.2904 H         1 PU91224     0.0000 
     34 H          -3.3732   11.6935   24.5017 H         1 PU91224     0.0000 
     35 H          -1.3954    9.3792   27.8508 H         1 PU91224     0.0000 
     36 H           3.0674    9.7694   26.7820 H         1 PU91224     0.0000 
     37 H           3.9948    9.9669   25.2850 H         1 PU91224     0.0000 
     38 H           2.1018    7.6606   25.8844 H         1 PU91224     0.0000 
     39 H           3.8665    7.6110   26.0374 H         1 PU91224     0.0000 
     40 H           2.4686    8.3470   23.4314 H         1 PU91224     0.0000 
     41 H           2.8182    6.6645   23.8640 H         1 PU91224     0.0000 
     42 H           6.1090   16.7855   25.5453 H         1 PU91224     0.0000 
     43 H           4.5937   17.0608   25.0826 H         1 PU91224     0.0000 
     44 H           4.9246   16.7913   26.6331 H         1 PU91224     0.0000 
     45 H           8.9419   15.3302   25.3736 H         1 PU91224     0.0000 
     46 H           8.8830   14.0988   24.3409 H         1 PU91224     0.0000 
     47 H           8.0093   15.4208   24.0666 H         1 PU91224     0.0000 
     48 H           9.2561   10.4846   23.7413 H         1 PU91224     0.0000 
     49 H           7.7959    9.8144   23.8123 H         1 PU91224     0.0000 
     50 H           8.1700   10.8002   22.5980 H         1 PU91224     0.0000 
@<TRIPOS>BOND
     1    2    1 1    
     2    3    2 ar   
     3   13    2 ar   
     4    4    3 1    
     5    6    3 ar   
     6    5    4 1    
     7   42    5 1    
     8   43    5 1    
     9   44    5 1    
    10    7    6 1    
    11    9    6 ar   
    12    8    7 1    
    13   45    8 1    
    14   46    8 1    
    15   47    8 1    
    16   10    9 1    
    17   12    9 ar   
    18   11   10 1    
    19   48   11 1    
    20   49   11 1    
    21   50   11 1    
    22   13   12 ar   
    23   30   12 1    
    24   14   13 1    
    25   15   14 1    
    26   31   14 1    
    27   32   14 1    
    28   16   15 2    
    29   24   15 1    
    30   17   16 1    
    31   18   17 ar   
    32   20   17 ar   
    33   19   18 1    
    34   23   18 ar   
    35   33   19 1    
    36   34   19 1    
    37   21   20 ar   
    38   24   20 1    
    39   22   21 ar   
    40   23   22 ar   
    41   35   22 1    
    42   25   24 1    
    43   26   25 1    
    44   36   25 1    
    45   37   25 1    
    46   27   26 1    
    47   38   26 1    
    48   39   26 1    
    49   28   27 1    
    50   40   27 1    
    51   41   27 1    
    52   29   28 3    
@<TRIPOS>SUBSTRUCTURE
     1 PU91224     1 GROUP   
@<TRIPOS>SET

