#    Name: 3owx_XRA_2_INTS_M
#    Modification time : Tue Mar 25 05:31:03 2014

@<TRIPOS>MOLECULE
3owx_XRA_2_INTS_M
   35     0     3     0     0
SMALL
NO_CHARGES


@<TRIPOS>ATOM
      1 CA         24.7370  -14.7335  -17.1160 C.3       1 GLC5        0.0000 
      2 CA         25.8200  -15.6040  -15.8750 C.3       3 GLL5        0.0000 
      3 CA         23.6540  -13.8630  -18.3570 C.3       2 GLP5        0.0000 
      4 CA         23.2170  -19.5865  -17.3280 C.3       1 GLC5        0.0000 
      5 CA         23.3940  -18.2650  -15.5580 C.3       3 GLL5        0.0000 
      6 CA         23.0400  -20.9080  -19.0980 C.3       2 GLP5        0.0000 
      7 CA         22.5170  -16.4370  -16.3415 C.3       1 GLC5        0.0000 
      8 CA         21.6400  -14.6090  -17.1250 C.3       2 GLP5        0.0000 
      9 CA         22.7255  -20.9080  -17.1740 C.3       1 GLC5        0.0000 
     10 CA         22.4110  -20.9080  -15.2500 C.3       3 GLL5        0.0000 
     11 CA         23.2210  -22.3980  -16.1375 C.3       1 GLC5        0.0000 
     12 CA         24.0310  -23.8880  -17.0250 C.3       2 GLP5        0.0000 
     13 CA         20.1270  -18.0470  -11.4845 C.3       1 GLC5        0.0000 
     14 CA         19.5440  -16.8640  -12.7530 C.3       3 GLL5        0.0000 
     15 CA         20.7100  -19.2300  -10.2160 C.3       2 GLP5        0.0000 
     16 CA         19.7030  -15.5745  -11.4900 C.3       1 GLC5        0.0000 
     17 CA         19.8620  -14.2850  -10.2270 C.3       2 GLP5        0.0000 
     18 CA         18.1810  -17.8255  -13.5415 C.3       1 GLC5        0.0000 
     19 CA         16.8180  -18.7870  -14.3300 C.3       2 GLP5        0.0000 
     20 CA         26.3215  -17.2550  -18.8135 C.3       1 GLC5        0.0000 
     21 CA         28.2410  -17.0920  -17.8230 C.3       3 GLL5        0.0000 
     22 CA         24.4020  -17.4180  -19.8040 C.3       2 GLP5        0.0000 
     23 CA         25.5415  -14.1745  -17.9260 C.3       1 GLC5        0.0000 
     24 CA         27.4290  -14.4860  -17.4950 C.3       3 GLL5        0.0000 
     25 CA         30.7140  -15.8715  -20.6205 C.3       1 GLC5        0.0000 
     26 CA         31.6660  -15.7840  -18.6630 C.3       3 GLL5        0.0000 
     27 CA         29.7620  -15.9590  -22.5780 C.3       2 GLP5        0.0000 
     28 CA         32.9250  -12.4000  -18.5610 C.3       1 GLC5        0.0000 
     29 CA         33.1430  -14.1010  -18.9190 C.3       3 GLL5        0.0000 
     30 CA         32.7070  -10.6990  -18.2030 C.3       2 GLP5        0.0000 
     31 CA         24.0495  -17.5337  -17.6382 C.3       1 GLC5        0.0000 
     32 CA         24.0000  -17.0340  -15.3870 C.3       3 GLL5        0.0000 
     33 CA         22.7794  -15.1043  -15.9180 C.3       1 GLC5        0.0000 
     34 CA         21.7462  -15.7305  -15.5623 C.3       1 GLC5        0.0000 
     35 CA         22.1670  -16.2290  -13.9140 C.3       3 GLL5        0.0000 
@<TRIPOS>BOND
@<TRIPOS>SUBSTRUCTURE
     1 GLC5        1 GROUP        1 X    GLC  0     ROOT GLC X 6
     2 GLP5        3 GROUP        1 Y    GLP  0     ROOT GLP Y 13
     3 GLL5        2 GROUP        1 Z    GLL  0     ROOT GLL Z 20
@<TRIPOS>SET

