#    Name: 3owx_XRA_2_ligand
#    Modification time : Tue Mar 25 05:31:03 2014

@<TRIPOS>MOLECULE
3owx_XRA_2_ligand
   49    52     1     0     0
SMALL
NO_CHARGES


@<TRIPOS>ATOM
      1 N1         25.1720  -16.7920  -15.9910 N.ar      1 XRA233      0.0000 
      2 O1         21.5940  -19.7420  -15.1050 O.3       1 XRA233      0.0000 
      3 C2         24.0000  -17.0340  -15.3870 C.ar      1 XRA233      0.0000 
      4 N2         25.3270  -14.5760  -15.1160 N.ar      1 XRA233      0.0000 
      5 O2         20.3370  -17.7900  -13.4920 O.3       1 XRA233      0.0000 
      6 C3         23.3870  -15.9780  -14.5510 C.ar      1 XRA233      0.0000 
      7 N3         23.6630  -13.6660  -13.7120 N.pl3     1 XRA233      0.0000 
      8 O3         30.3650  -17.4850  -19.5450 O.2       1 XRA233      0.0000 
      9 C4         24.1440  -14.6930  -14.4530 C.ar      1 XRA233      0.0000 
     10 N4         27.0410  -15.5570  -16.5750 N.3       1 XRA233      0.0000 
     11 O4         31.7650  -14.5400  -19.2250 O.3       1 XRA233      0.0000 
     12 N5         29.2280  -16.0950  -18.2150 N.am      1 XRA233      0.0000 
     13 C6         25.8200  -15.6040  -15.8750 C.ar      1 XRA233      0.0000 
     14 C7         23.3940  -18.2650  -15.5580 C.ar      1 XRA233      0.0000 
     15 C8         22.1810  -18.5200  -14.9340 C.ar      1 XRA233      0.0000 
     16 C9         21.5380  -17.4750  -14.0850 C.ar      1 XRA233      0.0000 
     17 C10        22.1670  -16.2290  -13.9140 C.ar      1 XRA233      0.0000 
     18 C12        22.4110  -20.9080  -15.2500 C.3       1 XRA233      0.0000 
     19 C14        19.5440  -16.8640  -12.7530 C.3       1 XRA233      0.0000 
     20 C17        27.9370  -16.6920  -16.3900 C.3       1 XRA233      0.0000 
     21 C18        28.2410  -17.0920  -17.8230 C.3       1 XRA233      0.0000 
     22 C20        28.9100  -14.6950  -17.8770 C.3       1 XRA233      0.0000 
     23 C21        27.4290  -14.4860  -17.4950 C.3       1 XRA233      0.0000 
     24 C22        30.3570  -16.4920  -18.8310 C.2       1 XRA233      0.0000 
     25 C23        31.6660  -15.7840  -18.6630 C.2       1 XRA233      0.0000 
     26 C25        33.1430  -14.1010  -18.9190 C.2       1 XRA233      0.0000 
     27 C26        33.7550  -15.1220  -18.2090 C.2       1 XRA233      0.0000 
     28 C27        32.8550  -16.1620  -18.0540 C.2       1 XRA233      0.0000 
     29 H          22.7857  -13.8236  -13.2586 H         1 XRA233      0.0000 
     30 H          24.2278  -12.8413  -13.6840 H         1 XRA233      0.0000 
     31 H          23.8354  -18.9850  -16.1406 H         1 XRA233      0.0000 
     32 H          21.7333  -15.5139  -13.3278 H         1 XRA233      0.0000 
     33 H          27.4491  -17.4994  -15.9001 H         1 XRA233      0.0000 
     34 H          28.8408  -16.4026  -15.9111 H         1 XRA233      0.0000 
     35 H          28.6514  -18.0730  -17.8299 H         1 XRA233      0.0000 
     36 H          27.3525  -17.0119  -18.4016 H         1 XRA233      0.0000 
     37 H          29.1353  -14.0311  -18.7284 H         1 XRA233      0.0000 
     38 H          29.5280  -14.3518  -17.0304 H         1 XRA233      0.0000 
     39 H          27.3358  -13.5129  -17.0284 H         1 XRA233      0.0000 
     40 H          26.8397  -14.5144  -18.4035 H         1 XRA233      0.0000 
     41 H          33.4863  -13.2795  -19.1790 H         1 XRA233      0.0000 
     42 H          34.6516  -15.1090  -17.8807 H         1 XRA233      0.0000 
     43 H          33.0182  -16.9833  -17.6130 H         1 XRA233      0.0000 
     44 H          23.0150  -20.8419  -16.0443 H         1 XRA233      0.0000 
     45 H          22.9933  -21.0553  -14.4505 H         1 XRA233      0.0000 
     46 H          21.8608  -21.7346  -15.3681 H         1 XRA233      0.0000 
     47 H          20.0385  -16.4978  -11.9647 H         1 XRA233      0.0000 
     48 H          19.2659  -16.0835  -13.3129 H         1 XRA233      0.0000 
     49 H          18.7078  -17.2870  -12.4038 H         1 XRA233      0.0000 
@<TRIPOS>BOND
     1    3    1 ar   
     2   13    1 ar   
     3   15    2 1    
     4   18    2 1    
     5    6    3 ar   
     6   14    3 ar   
     7    9    4 ar   
     8   13    4 ar   
     9   16    5 1    
    10   19    5 1    
    11    9    6 ar   
    12   17    6 ar   
    13    9    7 1    
    14   29    7 1    
    15   30    7 1    
    16   24    8 2    
    17   13   10 1    
    18   20   10 1    
    19   23   10 1    
    20   25   11 1    
    21   26   11 1    
    22   21   12 1    
    23   22   12 1    
    24   24   12 am   
    25   15   14 ar   
    26   31   14 1    
    27   16   15 ar   
    28   17   16 ar   
    29   32   17 1    
    30   44   18 1    
    31   45   18 1    
    32   46   18 1    
    33   47   19 1    
    34   48   19 1    
    35   49   19 1    
    36   21   20 1    
    37   33   20 1    
    38   34   20 1    
    39   35   21 1    
    40   36   21 1    
    41   23   22 1    
    42   37   22 1    
    43   38   22 1    
    44   39   23 1    
    45   40   23 1    
    46   25   24 1    
    47   28   25 2    
    48   27   26 2    
    49   41   26 1    
    50   28   27 1    
    51   42   27 1    
    52   43   28 1    
@<TRIPOS>SUBSTRUCTURE
     1 XRA233      1 GROUP   
@<TRIPOS>SET

