#    Name: 4btm_F8E_2_INTS_M
#    Modification time : Tue Mar 25 08:21:37 2014

@<TRIPOS>MOLECULE
4btm_F8E_2_INTS_M
   61     0     9     0     0
SMALL
NO_CHARGES


@<TRIPOS>ATOM
      1 CA         30.1415   38.5380    0.6940 C.3       3 GLC5        0.0000 
      2 CA         30.1710   36.5430    0.2850 C.3       9 GLL5        0.0000 
      3 CA         30.1120   40.5330    1.1030 C.3       6 GLP5        0.0000 
      4 CA         28.9150   36.2605    1.5530 C.3       3 GLC5        0.0000 
      5 CA         27.6590   35.9780    2.8210 C.3       6 GLP5        0.0000 
      6 CA         31.8980   37.7945    0.2950 C.3       3 GLC5        0.0000 
      7 CA         33.6250   39.0460    0.3050 C.3       6 GLP5        0.0000 
      8 CA         30.5155   34.4540   -0.0975 C.3       3 GLC5        0.0000 
      9 CA         30.8600   32.3650   -0.4800 C.3       6 GLP5        0.0000 
     10 CA         35.9300   39.2090   -3.2245 C.3       3 GLC5        0.0000 
     11 CA         34.0230   38.2680   -3.4680 C.3       9 GLL5        0.0000 
     12 CA         37.8370   40.1500   -2.9810 C.3       6 GLP5        0.0000 
     13 CA         36.9720   38.1040   -3.1585 C.3       3 GLC5        0.0000 
     14 CA         36.1070   36.0580   -3.3360 C.3       9 GLL5        0.0000 
     15 CA         36.1105   37.3165   -1.6295 C.3       3 GLC5        0.0000 
     16 CA         36.1140   38.5750    0.0770 C.3       6 GLP5        0.0000 
     17 CA         35.0365   35.1760   -4.6460 C.3       3 GLC5        0.0000 
     18 CA         33.9660   34.2940   -5.9560 C.3       6 GLP5        0.0000 
     19 CA         37.6725   34.1075   -0.1695 C.3       3 GLC5        0.0000 
     20 CA         36.9280   34.1210   -1.8710 C.3       9 GLL5        0.0000 
     21 CA         38.4170   34.0940    1.5320 C.3       6 GLP5        0.0000 
     22 CA         38.4670   31.8620   -2.7355 C.3       3 GLC5        0.0000 
     23 CA         38.0820   33.3860   -1.9880 C.3       9 GLL5        0.0000 
     24 CA         38.8520   30.3380   -3.4830 C.3       6 GLP5        0.0000 
     25 CA         38.8890   32.6245   -0.6345 C.3       3 GLC5        0.0000 
     26 CA         39.6960   31.8630    0.7190 C.3       6 GLP5        0.0000 
     27 O          39.9860   33.3735   -2.8795 O.2       1 ALC1        0.0000 
     28 O          38.8020   33.8660   -3.0450 O.2       7 ALL1        0.0000 
     29 O          41.1700   32.8810   -2.7140 O.2       4 ALP1        0.0000 
     30 CA         40.1455   35.0005   -3.8920 C.3       3 GLC5        0.0000 
     31 CA         38.1250   34.8960   -3.6310 C.3       9 GLL5        0.0000 
     32 CA         42.1660   35.1050   -4.1530 C.3       6 GLP5        0.0000 
     33 CA         38.8625   33.5955   -5.1910 C.3       3 GLC5        0.0000 
     34 CA         39.6000   32.2950   -6.7510 C.3       6 GLP5        0.0000 
     35 N          39.6735   35.2875   -5.4565 N.am      2 SEC2        0.0000 
     36 N          38.5200   35.5960   -4.6960 N.am      8 SEL2        0.0000 
     37 N          40.8270   34.9790   -6.2170 N.am      5 SEP2        0.0000 
     38 CA         37.7260   38.3395   -3.9890 C.3       3 GLC5        0.0000 
     39 CA         37.6150   36.5290   -4.9970 C.3       9 GLL5        0.0000 
     40 CA         39.3415   37.3515   -4.4615 C.3       3 GLC5        0.0000 
     41 CA         41.0680   38.1740   -3.9260 C.3       6 GLP5        0.0000 
     42 CA         39.0710   35.5640   -6.3020 C.3       3 GLC5        0.0000 
     43 CA         40.5270   34.5990   -7.6070 C.3       6 GLP5        0.0000 
     44 CA         35.7905   35.4115   -5.4765 C.3       3 GLC5        0.0000 
     45 CA         32.8762   38.0277   -1.0700 C.3       3 GLC5        0.0000 
     46 CA         31.5750   37.4070   -2.5330 C.3       9 GLL5        0.0000 
     47 CA         33.6275   35.5628   -4.2733 C.3       3 GLC5        0.0000 
     48 CA         32.6800   36.6120   -2.3570 C.3       9 GLL5        0.0000 
     49 CA         33.7927   38.3528   -1.4205 C.3       3 GLC5        0.0000 
     50 CA         33.8980   37.0510   -2.8240 C.3       9 GLL5        0.0000 
     51 CA         32.0845   40.8424   -2.4086 C.3       3 GLC5        0.0000 
     52 CA         32.9150   39.0620   -3.6550 C.3       9 GLL5        0.0000 
     53 CA         32.2380   42.5550   -1.3260 C.3       6 GLP5        0.0000 
     54 CA         32.9637   38.9455   -1.5572 C.3       3 GLC5        0.0000 
     55 CA         36.9862   36.0835   -0.8922 C.3       3 GLC5        0.0000 
     56 CA         36.9670   35.0750   -2.9140 C.3       9 GLL5        0.0000 
     57 CA         37.0250   37.5690    0.6080 C.3       6 GLP5        0.0000 
     58 CA         38.9964   35.3140   -1.8163 C.3       3 GLC5        0.0000 
     59 CA         40.1730   36.1840   -0.7220 C.3       6 GLP5        0.0000 
     60 CA         36.7819   33.5280   -4.2978 C.3       3 GLC5        0.0000 
     61 CA         35.7440   32.6120   -5.6850 C.3       6 GLP5        0.0000 
@<TRIPOS>BOND
@<TRIPOS>SUBSTRUCTURE
     1 ALC1       27 GROUP        1 X    ALC  0     ROOT ALC X 1
     2 SEC2       35 GROUP        1 X    SEC  0     **** SEC X 2
     3 GLC5        1 GROUP        1 X    GLC  0     **** GLC X 6
     4 ALP1       29 GROUP        1 Y    ALP  0     ROOT ALP Y 8
     5 SEP2       37 GROUP        1 Y    SEP  0     **** SEP Y 9
     6 GLP5        3 GROUP        1 Y    GLP  0     **** GLP Y 13
     7 ALL1       28 GROUP        1 Z    ALL  0     ROOT ALL Z 15
     8 SEL2       36 GROUP        1 Z    SEL  0     **** SEL Z 16
     9 GLL5        2 GROUP        1 Z    GLL  0     **** GLL Z 20
@<TRIPOS>SET

