#    Name: 4btm_F8E_2_ligand
#    Modification time : Tue Mar 25 08:21:37 2014

@<TRIPOS>MOLECULE
4btm_F8E_2_ligand
   32    34     1     0     0
SMALL
NO_CHARGES


@<TRIPOS>ATOM
      1 BR         30.2040   39.7670   -3.4710 Br        1 F8E1341     0.0000 
      2 C1         30.1710   36.5430    0.2850 C.3       1 F8E1341     0.0000 
      3 O2         30.0570   37.4620   -0.7960 O.3       1 F8E1341     0.0000 
      4 C3         30.3060   36.8740   -2.0110 C.2       1 F8E1341     0.0000 
      5 O4         29.6390   36.0450   -2.6190 O.2       1 F8E1341     0.0000 
      6 C5         31.5750   37.4070   -2.5330 C.ar      1 F8E1341     0.0000 
      7 C6         32.6800   36.6120   -2.3570 C.ar      1 F8E1341     0.0000 
      8 C7         33.8980   37.0510   -2.8240 C.ar      1 F8E1341     0.0000 
      9 C8         34.0230   38.2680   -3.4680 C.ar      1 F8E1341     0.0000 
     10 C9         32.9150   39.0620   -3.6550 C.ar      1 F8E1341     0.0000 
     11 C10        31.6900   38.6280   -3.1840 C.ar      1 F8E1341     0.0000 
     12 N12        34.9470   36.1770   -2.5830 N.pl3     1 F8E1341     0.0000 
     13 C13        36.1070   36.0580   -3.3360 C.ar      1 F8E1341     0.0000 
     14 C14        36.9670   35.0750   -2.9140 C.ar      1 F8E1341     0.0000 
     15 C15        36.9280   34.1210   -1.8710 C.2       1 F8E1341     0.0000 
     16 C16        38.0820   33.3860   -1.9880 C.2       1 F8E1341     0.0000 
     17 N17        38.8020   33.8660   -3.0450 N.pl3     1 F8E1341     0.0000 
     18 C19        38.1250   34.8960   -3.6310 C.ar      1 F8E1341     0.0000 
     19 N20        38.5200   35.5960   -4.6960 N.ar      1 F8E1341     0.0000 
     20 C21        37.6150   36.5290   -4.9970 C.ar      1 F8E1341     0.0000 
     21 N22        36.4490   36.7950   -4.4010 N.ar      1 F8E1341     0.0000 
     22 H          32.6010   35.7041   -1.8847 H         1 F8E1341     0.0000 
     23 H          34.9467   38.5776   -3.8066 H         1 F8E1341     0.0000 
     24 H          32.9938   39.9641   -4.1369 H         1 F8E1341     0.0000 
     25 H          34.8536   35.5291   -1.7314 H         1 F8E1341     0.0000 
     26 H          36.2449   34.0294   -1.2426 H         1 F8E1341     0.0000 
     27 H          38.3369   32.6563   -1.4191 H         1 F8E1341     0.0000 
     28 H          39.6608   33.5270   -3.3336 H         1 F8E1341     0.0000 
     29 H          37.8649   37.1749   -5.8634 H         1 F8E1341     0.0000 
     30 H          31.0874   36.1465    0.3403 H         1 F8E1341     0.0000 
     31 H          29.9872   36.9804    1.1653 H         1 F8E1341     0.0000 
     32 H          29.5276   35.7827    0.1955 H         1 F8E1341     0.0000 
@<TRIPOS>BOND
     1   11    1 1    
     2    3    2 1    
     3   30    2 1    
     4   31    2 1    
     5   32    2 1    
     6    4    3 1    
     7    5    4 2    
     8    6    4 1    
     9    7    6 ar   
    10   11    6 ar   
    11    8    7 ar   
    12   22    7 1    
    13    9    8 ar   
    14   12    8 1    
    15   10    9 ar   
    16   23    9 1    
    17   11   10 ar   
    18   24   10 1    
    19   13   12 1    
    20   25   12 1    
    21   14   13 ar   
    22   21   13 ar   
    23   15   14 1    
    24   18   14 ar   
    25   16   15 2    
    26   26   15 1    
    27   17   16 1    
    28   27   16 1    
    29   18   17 1    
    30   28   17 1    
    31   19   18 ar   
    32   20   19 ar   
    33   21   20 ar   
    34   29   20 1    
@<TRIPOS>SUBSTRUCTURE
     1 F8E1341     1 GROUP   
@<TRIPOS>SET

