#    Name: 1q3g_UDA_8_INTS_M
#    Modification time : Mon Mar 24 22:53:33 2014

@<TRIPOS>MOLECULE
1q3g_UDA_8_INTS_M
  112     0    12     0     0
SMALL
NO_CHARGES


@<TRIPOS>ATOM
      1 O         -24.2145   34.1945   48.2790 O.2       1 ALC1        0.0000 
      2 O         -22.8860   34.2160   48.0040 O.2       9 ALL1        0.0000 
      3 O         -25.5430   34.1730   48.5540 O.2       5 ALP1        0.0000 
      4 CA        -23.1635   31.6255   46.6455 C.3       4 GLC5        0.0000 
      5 CA        -21.3660   32.9300   46.6230 C.3      12 GLL5        0.0000 
      6 CA        -24.9610   30.3210   46.6680 C.3       8 GLP5        0.0000 
      7 CA        -21.8055   34.9290   46.1530 C.3       4 GLC5        0.0000 
      8 CA        -22.2450   36.9280   45.6830 C.3       8 GLP5        0.0000 
      9 CA        -22.0665   31.9020   45.0075 C.3       4 GLC5        0.0000 
     10 CA        -22.7670   30.8740   43.3920 C.3       8 GLP5        0.0000 
     11 N         -24.6860   33.8565   45.5600 N.am      2 SEC2        0.0000 
     12 N         -23.6670   33.2460   46.1020 N.am     10 SEL2        0.0000 
     13 N         -25.7050   34.4670   45.0180 N.am      6 SEP2        0.0000 
     14 CA        -14.8945   34.1410   49.8035 C.3       4 GLC5        0.0000 
     15 CA        -16.3240   34.0210   48.6300 C.3      12 GLL5        0.0000 
     16 CA        -13.4650   34.2610   50.9770 C.3       8 GLP5        0.0000 
     17 O         -16.7970   34.3370   52.8375 O.2       1 ALC1        0.0000 
     18 O         -17.9930   34.2580   52.2950 O.2       9 ALL1        0.0000 
     19 O         -15.6010   34.4160   53.3800 O.2       5 ALP1        0.0000 
     20 N         -19.7135   31.5980   52.5405 N.am      2 SEC2        0.0000 
     21 N         -19.7770   32.2140   51.1960 N.am     10 SEL2        0.0000 
     22 N         -19.6500   30.9820   53.8850 N.am      6 SEP2        0.0000 
     23 N         -15.7600   33.7820   44.6825 N.am      2 SEC2        0.0000 
     24 N         -15.6050   33.4260   45.9990 N.am     10 SEL2        0.0000 
     25 N         -15.9150   34.1380   43.3660 N.am      6 SEP2        0.0000 
     26 N         -18.4245   33.1470   44.8910 N.am      2 SEC2        0.0000 
     27 N         -17.7020   32.3420   45.6470 N.am     10 SEL2        0.0000 
     28 N         -19.1470   33.9520   44.1350 N.am      6 SEP2        0.0000 
     29 N         -17.3425   32.0300   44.0910 N.am      2 SEC2        0.0000 
     30 N         -16.9830   31.7180   42.5350 N.am      6 SEP2        0.0000 
     31 NZ        -16.4060   28.1460   47.7330 N.4       3 LYC4        0.0000 
     32 NZ        -16.9580   29.1460   46.7910 N.4      11 LYL4        0.0000 
     33 NZ        -16.3540   26.7810   49.8490 N.4       7 LYP4        0.0000 
     34 N         -16.4060   28.1460   47.7330 N.am      2 SEC2        0.0000 
     35 N         -16.9580   29.1460   46.7910 N.am     10 SEL2        0.0000 
     36 N         -15.8540   27.1460   48.6750 N.am      6 SEP2        0.0000 
     37 CA        -13.7370   30.8460   44.1220 C.3       4 GLC5        0.0000 
     38 CA        -13.3720   29.1790   45.3420 C.3      12 GLL5        0.0000 
     39 CA        -14.1020   32.5130   42.9020 C.3       8 GLP5        0.0000 
     40 CA        -12.3370   30.0410   49.4115 C.3       4 GLC5        0.0000 
     41 CA        -11.3570   29.4290   47.5110 C.3      12 GLL5        0.0000 
     42 CA        -13.3170   30.6530   51.3120 C.3       8 GLP5        0.0000 
     43 CA        -13.4700   30.4550   48.9520 C.3       4 GLC5        0.0000 
     44 CA        -12.3920   30.5820   47.1650 C.3      12 GLL5        0.0000 
     45 CA        -14.5480   30.3280   50.7390 C.3       8 GLP5        0.0000 
     46 CA        -12.4100   32.6895   45.4260 C.3       4 GLC5        0.0000 
     47 CA        -11.8230   31.9890   47.3870 C.3      12 GLL5        0.0000 
     48 CA        -12.9970   33.3900   43.4650 C.3       8 GLP5        0.0000 
     49 CA        -10.8270   32.1235   49.0970 C.3       4 GLC5        0.0000 
     50 CA         -9.8310   32.2580   50.8070 C.3       8 GLP5        0.0000 
     51 CA        -12.5700   31.3210   49.3495 C.3       4 GLC5        0.0000 
     52 N         -10.1310   26.6735   46.1060 N.am      2 SEC2        0.0000 
     53 N         -11.0300   26.9320   47.5730 N.am     10 SEL2        0.0000 
     54 N          -9.2320   26.4150   44.6390 N.am      6 SEP2        0.0000 
     55 CA        -13.3180   23.2665   43.0275 C.3       4 GLC5        0.0000 
     56 CA        -13.7310   25.0090   43.9040 C.3      12 GLL5        0.0000 
     57 CA        -12.9050   21.5240   42.1510 C.3       8 GLP5        0.0000 
     58 CA        -15.4880   23.6935   43.5405 C.3       4 GLC5        0.0000 
     59 CA        -17.2450   22.3780   43.1770 C.3       8 GLP5        0.0000 
     60 CA        -14.5785   25.7655   42.4480 C.3       4 GLC5        0.0000 
     61 CA        -15.4260   26.5220   40.9920 C.3       8 GLP5        0.0000 
     62 CA        -12.6665   26.7125   51.6215 C.3       4 GLC5        0.0000 
     63 CA        -11.6850   26.1590   49.9000 C.3      12 GLL5        0.0000 
     64 CA        -13.6480   27.2660   53.3430 C.3       8 GLP5        0.0000 
     65 NZ        -11.6995   23.0560   46.6485 N.4       3 LYC4        0.0000 
     66 NZ        -12.7750   23.0620   47.4250 N.4      11 LYL4        0.0000 
     67 NZ        -10.6240   23.0500   45.8720 N.4       7 LYP4        0.0000 
     68 NZ        -12.7930   21.6790   47.7405 N.4       3 LYC4        0.0000 
     69 NZ        -12.6590   20.0520   49.3470 N.4       7 LYP4        0.0000 
     70 N         -11.6995   23.0560   46.6485 N.am      2 SEC2        0.0000 
     71 N         -12.7750   23.0620   47.4250 N.am     10 SEL2        0.0000 
     72 N         -10.6240   23.0500   45.8720 N.am      6 SEP2        0.0000 
     73 N         -12.7930   21.6790   47.7405 N.am      2 SEC2        0.0000 
     74 N         -12.8110   20.2960   48.0560 N.am      6 SEP2        0.0000 
     75 N         -12.6505   22.0635   48.8065 N.am      2 SEC2        0.0000 
     76 N         -12.5260   21.0650   50.1880 N.am      6 SEP2        0.0000 
     77 NZ        -15.0940   26.0495   48.0110 N.4       3 LYC4        0.0000 
     78 NZ        -14.3340   24.9530   47.3470 N.4      11 LYL4        0.0000 
     79 N         -15.0940   26.0495   48.0110 N.am      2 SEC2        0.0000 
     80 N         -14.3340   24.9530   47.3470 N.am     10 SEL2        0.0000 
     81 NZ        -12.9985   22.4380   49.7990 N.4       3 LYC4        0.0000 
     82 NZ        -13.4710   23.8110   49.4100 N.4      11 LYL4        0.0000 
     83 N         -14.6510   24.7825   49.9565 N.am      2 SEC2        0.0000 
     84 N         -13.4710   23.8110   49.4100 N.am     10 SEL2        0.0000 
     85 N         -15.8310   25.7540   50.5030 N.am      6 SEP2        0.0000 
     86 N         -12.9985   22.4380   49.7990 N.am      2 SEC2        0.0000 
     87 NZ         -9.8540   23.9325   46.9565 N.4       3 LYC4        0.0000 
     88 NZ         -9.0840   24.8150   48.0410 N.4      11 LYL4        0.0000 
     89 NZ         -7.8060   24.5670   47.6830 N.4       3 LYC4        0.0000 
     90 NZ         -5.8800   24.1530   48.4700 N.4       7 LYP4        0.0000 
     91 N          -9.8540   23.9325   46.9565 N.am      2 SEC2        0.0000 
     92 N          -9.0840   24.8150   48.0410 N.am     10 SEL2        0.0000 
     93 N          -7.7230   24.7525   48.8170 N.am      2 SEC2        0.0000 
     94 N          -6.3620   24.6900   49.5930 N.am      6 SEP2        0.0000 
     95 N          -7.8060   24.5670   47.6830 N.am      2 SEC2        0.0000 
     96 N          -6.5280   24.3190   47.3250 N.am      6 SEP2        0.0000 
     97 NZ         -9.0550   26.6565   50.9750 N.4       3 LYC4        0.0000 
     98 NZ         -8.8430   26.3430   49.6130 N.4      11 LYL4        0.0000 
     99 NZ         -9.6680   28.0550   52.9960 N.4       7 LYP4        0.0000 
    100 NZ         -7.7230   24.7525   48.8170 N.4       3 LYC4        0.0000 
    101 N          -9.0550   26.6565   50.9750 N.am      2 SEC2        0.0000 
    102 N          -8.8430   26.3430   49.6130 N.am     10 SEL2        0.0000 
    103 N          -9.2670   26.9700   52.3370 N.am      6 SEP2        0.0000 
    104 N          -7.6025   25.5165   49.6030 N.am      2 SEC2        0.0000 
    105 CA        -19.9105   34.2015   45.7477 C.3       4 GLC5        0.0000 
    106 CA        -20.3440   33.2160   47.5460 C.3      12 GLL5        0.0000 
    107 CA        -18.9660   35.3300   44.4110 C.3       8 GLP5        0.0000 
    108 CA        -16.9680   31.8552   51.0948 C.3       4 GLC5        0.0000 
    109 CA        -18.8950   33.1200   50.3680 C.3      12 GLL5        0.0000 
    110 CA        -15.6820   30.2920   51.5340 C.3       8 GLP5        0.0000 
    111 CA        -15.4422   34.2238   50.6550 C.3       4 GLC5        0.0000 
    112 CA        -17.6130   33.7170   50.9430 C.3      12 GLL5        0.0000 
@<TRIPOS>BOND
@<TRIPOS>SUBSTRUCTURE
     1 ALC1        1 GROUP        1 X    ALC  0     ROOT ALC X 1
     2 SEC2       11 GROUP        1 X    SEC  0     **** SEC X 2
     3 LYC4       31 GROUP        1 X    LYC  0     **** LYC X 4
     4 GLC5        4 GROUP        1 X    GLC  0     **** GLC X 6
     5 ALP1        3 GROUP        1 Y    ALP  0     ROOT ALP Y 8
     6 SEP2       13 GROUP        1 Y    SEP  0     **** SEP Y 9
     7 LYP4       33 GROUP        1 Y    LYP  0     **** LYP Y 11
     8 GLP5        6 GROUP        1 Y    GLP  0     **** GLP Y 13
     9 ALL1        2 GROUP        1 Z    ALL  0     ROOT ALL Z 15
    10 SEL2       12 GROUP        1 Z    SEL  0     **** SEL Z 16
    11 LYL4       32 GROUP        1 Z    LYL  0     **** LYL Z 18
    12 GLL5        5 GROUP        1 Z    GLL  0     **** GLL Z 20
@<TRIPOS>SET

