#    Name: 1q3g_UDA_8_ligand
#    Modification time : Mon Mar 24 22:53:33 2014

@<TRIPOS>MOLECULE
1q3g_UDA_8_ligand
   76    78     1     0     0
SMALL
NO_CHARGES


@<TRIPOS>ATOM
      1 C1        -22.7270   33.4550   46.8540 C.2       1 UDA1457     0.0000 
      2 N1        -22.8860   34.2160   48.0040 N.am      1 UDA1457     0.0000 
      3 C3        -21.9330   34.5150   48.9150 C.2       1 UDA1457     0.0000 
      4 N2        -20.6110   34.0180   48.7120 N.am      1 UDA1457     0.0000 
      5 C5        -20.3440   33.2160   47.5460 C.2       1 UDA1457     0.0000 
      6 C6        -21.3660   32.9300   46.6230 C.2       1 UDA1457     0.0000 
      7 O1        -23.6670   33.2460   46.1020 O.2       1 UDA1457     0.0000 
      8 O2        -22.2430   35.2030   49.8950 O.2       1 UDA1457     0.0000 
      9 C9        -18.8950   33.1200   50.3680 C.3       1 UDA1457     0.0000 
     10 C2        -19.5170   34.3090   49.7080 C.3       1 UDA1457     0.0000 
     11 O3        -18.4510   34.9630   49.0410 O.3       1 UDA1457     0.0000 
     12 C4        -17.2260   34.6560   49.7230 C.3       1 UDA1457     0.0000 
     13 C15       -17.6130   33.7170   50.9430 C.3       1 UDA1457     0.0000 
     14 C12       -16.3240   34.0210   48.6300 C.3       1 UDA1457     0.0000 
     15 O14       -17.9930   34.2580   52.2950 O.3       1 UDA1457     0.0000 
     16 O11       -19.7770   32.2140   51.1960 O.3       1 UDA1457     0.0000 
     17 O4        -16.8740   32.8050   47.9840 O.3       1 UDA1457     0.0000 
     18 P1        -16.5200   32.4060   46.5240 P.3       1 UDA1457     0.0000 
     19 O5        -15.6050   33.4260   45.9990 O.co2     1 UDA1457     0.0000 
     20 O6        -17.7020   32.3420   45.6470 O.co2     1 UDA1457     0.0000 
     21 O7        -15.6070   31.2240   46.4510 O.3       1 UDA1457     0.0000 
     22 P2        -15.9270   29.7880   45.9820 P.3       1 UDA1457     0.0000 
     23 O8        -14.6240   28.9070   46.0470 O.3       1 UDA1457     0.0000 
     24 O9        -16.3350   29.8010   44.6420 O.co2     1 UDA1457     0.0000 
     25 O10       -16.9580   29.1460   46.7910 O.co2     1 UDA1457     0.0000 
     26 C10       -13.3720   29.1790   45.3420 C.3       1 UDA1457     0.0000 
     27 C18       -12.3340   28.0400   45.6830 C.3       1 UDA1457     0.0000 
     28 C13       -12.0060   28.0120   47.2230 C.3       1 UDA1457     0.0000 
     29 C20       -11.3570   29.4290   47.5110 C.3       1 UDA1457     0.0000 
     30 C16       -12.3920   30.5820   47.1650 C.3       1 UDA1457     0.0000 
     31 C17       -11.8230   31.9890   47.3870 C.3       1 UDA1457     0.0000 
     32 C7        -13.1230   26.3910   44.0340 C.2       1 UDA1457     0.0000 
     33 N3        -12.9130   26.7550   45.2830 N.am      1 UDA1457     0.0000 
     34 O21       -11.0300   26.9320   47.5730 O.3       1 UDA1457     0.0000 
     35 O22       -10.9660   29.6880   48.9130 O.3       1 UDA1457     0.0000 
     36 O23       -12.7730   30.4300   45.7410 O.3       1 UDA1457     0.0000 
     37 O24       -10.6030   32.3680   46.6030 O.3       1 UDA1457     0.0000 
     38 O12       -12.8300   27.1510   43.0980 O.2       1 UDA1457     0.0000 
     39 C8        -13.7310   25.0090   43.9040 C.3       1 UDA1457     0.0000 
     40 C11       -11.1200   26.0520   48.4990 C.3       1 UDA1457     0.0000 
     41 C19       -11.6850   26.1590   49.9000 C.3       1 UDA1457     0.0000 
     42 O13       -11.8010   24.9310   47.7820 O.3       1 UDA1457     0.0000 
     43 P3        -13.1950   24.2720   48.0640 P.3       1 UDA1457     0.0000 
     44 O15       -12.7750   23.0620   47.4250 O.co2     1 UDA1457     0.0000 
     45 O16       -14.3340   24.9530   47.3470 O.co2     1 UDA1457     0.0000 
     46 O17       -13.4710   23.8110   49.4100 O.co2     1 UDA1457     0.0000 
     47 C14        -9.5580   25.7810   48.8090 C.2       1 UDA1457     0.0000 
     48 O18        -9.0840   24.8150   48.0410 O.co2     1 UDA1457     0.0000 
     49 O19        -8.8430   26.3430   49.6130 O.co2     1 UDA1457     0.0000 
     50 H         -23.8819   34.6043   48.1771 H         1 UDA1457     0.0000 
     51 H         -19.3977   32.8579   47.4009 H         1 UDA1457     0.0000 
     52 H         -21.2020   32.3723   45.7981 H         1 UDA1457     0.0000 
     53 H         -18.5061   32.4967   49.4659 H         1 UDA1457     0.0000 
     54 H         -19.9077   34.9684   50.4827 H         1 UDA1457     0.0000 
     55 H         -16.7724   35.5372   50.0930 H         1 UDA1457     0.0000 
     56 H         -16.9170   32.9186   50.9862 H         1 UDA1457     0.0000 
     57 H         -15.3422   33.7960   49.0978 H         1 UDA1457     0.0000 
     58 H         -16.1240   34.8033   47.8674 H         1 UDA1457     0.0000 
     59 H         -13.5131   29.1400   44.2765 H         1 UDA1457     0.0000 
     60 H         -11.4343   28.2412   45.1486 H         1 UDA1457     0.0000 
     61 H         -12.9010   27.9518   47.7607 H         1 UDA1457     0.0000 
     62 H         -10.5227   29.5737   46.8481 H         1 UDA1457     0.0000 
     63 H         -13.2544   30.4392   47.7872 H         1 UDA1457     0.0000 
     64 H         -11.6098   32.1051   48.4802 H         1 UDA1457     0.0000 
     65 H         -12.6393   32.7268   47.1788 H         1 UDA1457     0.0000 
     66 H         -13.1592   26.1179   46.0944 H         1 UDA1457     0.0000 
     67 H         -13.8800   24.7573   42.9477 H         1 UDA1457     0.0000 
     68 H         -13.1435   24.3056   44.3041 H         1 UDA1457     0.0000 
     69 H         -14.6165   24.9480   44.3646 H         1 UDA1457     0.0000 
     70 H         -11.6188   25.2923   50.3944 H         1 UDA1457     0.0000 
     71 H         -11.2013   26.8445   50.4442 H         1 UDA1457     0.0000 
     72 H         -12.6506   26.4190   49.8922 H         1 UDA1457     0.0000 
     73 H         -17.2840   33.9238   52.9159 H         1 UDA1457     0.0000 
     74 H         -20.3896   32.8306   51.6904 H         1 UDA1457     0.0000 
     75 H         -10.1444   30.2548   48.8519 H         1 UDA1457     0.0000 
     76 H         -10.5493   33.3641   46.6736 H         1 UDA1457     0.0000 
@<TRIPOS>BOND
     1    2    1 1    
     2    6    1 1    
     3    7    1 2    
     4    3    2 1    
     5   50    2 1    
     6    4    3 1    
     7    8    3 2    
     8    5    4 1    
     9   10    4 1    
    10    6    5 2    
    11   51    5 1    
    12   52    6 1    
    13   10    9 1    
    14   13    9 1    
    15   16    9 1    
    16   53    9 1    
    17   11   10 1    
    18   54   10 1    
    19   12   11 1    
    20   13   12 1    
    21   14   12 1    
    22   55   12 1    
    23   15   13 1    
    24   56   13 1    
    25   17   14 1    
    26   57   14 1    
    27   58   14 1    
    28   73   15 1    
    29   74   16 1    
    30   18   17 1    
    31   19   18 ar   
    32   20   18 ar   
    33   21   18 1    
    34   22   21 1    
    35   23   22 1    
    36   24   22 ar   
    37   25   22 ar   
    38   26   23 1    
    39   27   26 1    
    40   36   26 1    
    41   59   26 1    
    42   28   27 1    
    43   33   27 1    
    44   60   27 1    
    45   29   28 1    
    46   34   28 1    
    47   61   28 1    
    48   30   29 1    
    49   35   29 1    
    50   62   29 1    
    51   31   30 1    
    52   36   30 1    
    53   63   30 1    
    54   37   31 1    
    55   64   31 1    
    56   65   31 1    
    57   33   32 am   
    58   38   32 2    
    59   39   32 1    
    60   66   33 1    
    61   40   34 1    
    62   75   35 1    
    63   76   37 1    
    64   67   39 1    
    65   68   39 1    
    66   69   39 1    
    67   41   40 1    
    68   42   40 1    
    69   47   40 1    
    70   70   41 1    
    71   71   41 1    
    72   72   41 1    
    73   43   42 1    
    74   44   43 ar   
    75   45   43 ar   
    76   46   43 ar   
    77   48   47 ar   
    78   49   47 ar   
@<TRIPOS>SUBSTRUCTURE
     1 UDA1457     1 GROUP   
@<TRIPOS>SET

