#    Name: 1qyw_5SD_1_INTS_M
#    Modification time : Tue Mar 25 00:08:23 2014

@<TRIPOS>MOLECULE
1qyw_5SD_1_INTS_M
   53     0     6     0     0
SMALL
NO_CHARGES


@<TRIPOS>ATOM
      1 CA         14.5865    7.1630   -9.6785 C.3       2 GLC5        0.0000 
      2 CA         12.8410    6.1580  -10.0690 C.3       6 GLL5        0.0000 
      3 CA         16.3320    8.1680   -9.2880 C.3       4 GLP5        0.0000 
      4 CA          9.3740    7.8180   -9.9795 C.3       2 GLC5        0.0000 
      5 CA         11.5320    8.3350   -9.9070 C.3       6 GLL5        0.0000 
      6 CA          7.2160    7.3010  -10.0520 C.3       4 GLP5        0.0000 
      7 CA         11.8490   11.4430  -10.4050 C.3       2 GLC5        0.0000 
      8 CA         11.1020    9.5900  -10.6590 C.3       6 GLL5        0.0000 
      9 CA         12.5960   13.2960  -10.1510 C.3       4 GLP5        0.0000 
     10 CA          8.8005    8.2775  -11.0230 C.3       2 GLC5        0.0000 
     11 CA         10.3850    9.2540  -11.9940 C.3       6 GLL5        0.0000 
     12 CA         12.6065   10.0950  -13.6360 C.3       2 GLC5        0.0000 
     13 CA         11.3370    8.4230  -12.8630 C.3       6 GLL5        0.0000 
     14 CA         13.8760   11.7670  -14.4090 C.3       4 GLP5        0.0000 
     15 CA          9.0535    7.1395  -15.2655 C.3       2 GLC5        0.0000 
     16 CA         10.6730    8.1810  -14.2440 C.3       6 GLL5        0.0000 
     17 CA          7.4340    6.0980  -16.2870 C.3       4 GLP5        0.0000 
     18 CA         11.2020    7.2590  -15.8490 C.3       2 GLC5        0.0000 
     19 CA         11.7310    6.3370  -17.4540 C.3       4 GLP5        0.0000 
     20 CA         11.3015    8.5690  -16.4570 C.3       2 GLC5        0.0000 
     21 CA         10.2970    9.4500  -15.0070 C.3       6 GLL5        0.0000 
     22 CA         12.3060    7.6880  -17.9070 C.3       4 GLP5        0.0000 
     23 CA         11.4970   10.8645  -15.7660 C.3       2 GLC5        0.0000 
     24 CA         12.6970   12.2790  -16.5250 C.3       4 GLP5        0.0000 
     25 CA         11.9205   11.1705  -13.5870 C.3       2 GLC5        0.0000 
     26 CA          9.9650   10.5740  -12.7650 C.3       6 GLL5        0.0000 
     27 CA          7.4245   10.4195  -11.4825 C.3       2 GLC5        0.0000 
     28 CA          8.9260   11.4920  -12.1020 C.3       6 GLL5        0.0000 
     29 CA          5.9230    9.3470  -10.8630 C.3       4 GLP5        0.0000 
     30 N           9.3490   12.4470  -16.8485 N.am      1 SEC2        0.0000 
     31 N           9.0090   12.2570  -15.6270 N.am      5 SEL2        0.0000 
     32 N           9.6890   12.6370  -18.0700 N.am      3 SEP2        0.0000 
     33 CA          6.9455    9.4750  -12.4430 C.3       2 GLC5        0.0000 
     34 CA          7.9680    9.6030  -14.0230 C.3       6 GLL5        0.0000 
     35 CA          7.7010    7.8505  -15.1550 C.3       2 GLC5        0.0000 
     36 CA          6.4045   11.1310  -13.9280 C.3       2 GLC5        0.0000 
     37 CA          4.8410   12.6590  -13.8330 C.3       4 GLP5        0.0000 
     38 CA          6.7855   10.2400  -15.5135 C.3       2 GLC5        0.0000 
     39 CA          5.6030   10.8770  -17.0040 C.3       4 GLP5        0.0000 
     40 CA          8.8205    6.7980  -10.9575 C.3       2 GLC5        0.0000 
     41 CA         10.4250    6.2950  -11.8630 C.3       6 GLL5        0.0000 
     42 CA         10.7505    9.3758   -8.7930 C.3       2 GLC5        0.0000 
     43 CA         10.1840    9.7890   -7.3030 C.3       4 GLP5        0.0000 
     44 CA         13.3036    9.4886   -9.9971 C.3       2 GLC5        0.0000 
     45 CA         15.0640   10.2350   -9.4880 C.3       4 GLP5        0.0000 
     46 CA          9.6890   10.5973  -16.4622 C.3       2 GLC5        0.0000 
     47 CA          9.3830   10.3390  -14.1120 C.3       6 GLL5        0.0000 
     48 CA          9.5380   11.3000  -18.3650 C.3       4 GLP5        0.0000 
     49 CA          6.9865   12.6307  -12.4043 C.3       2 GLC5        0.0000 
     50 CA          5.0610   13.2290  -12.1540 C.3       4 GLP5        0.0000 
     51 CA         10.2639   12.8205  -11.6376 C.3       2 GLC5        0.0000 
     52 CA          8.8980   12.5730  -13.2070 C.3       6 GLL5        0.0000 
     53 CA         11.3560   13.8380  -10.4550 C.3       4 GLP5        0.0000 
@<TRIPOS>BOND
@<TRIPOS>SUBSTRUCTURE
     1 SEC2       30 GROUP        1 X    SEC  0     ROOT SEC X 2
     2 GLC5        1 GROUP        1 X    GLC  0     **** GLC X 6
     3 SEP2       32 GROUP        1 Y    SEP  0     ROOT SEP Y 9
     4 GLP5        3 GROUP        1 Y    GLP  0     **** GLP Y 13
     5 SEL2       31 GROUP        1 Z    SEL  0     ROOT SEL Z 16
     6 GLL5        2 GROUP        1 Z    GLL  0     **** GLL Z 20
@<TRIPOS>SET

