#    Name: 1qyw_5SD_1_ligand
#    Modification time : Tue Mar 25 00:08:23 2014

@<TRIPOS>MOLECULE
1qyw_5SD_1_ligand
   49    52     1     0     0
SMALL
NO_CHARGES


@<TRIPOS>ATOM
      1 C1         12.7190    6.2570  -12.9660 C.3       1 5SD500      0.0000 
      2 C2         13.0360    4.9030  -12.3450 C.3       1 5SD500      0.0000 
      3 C3         13.5480    5.1830  -10.9220 C.2       1 5SD500      0.0000 
      4 O3         14.5380    4.5470  -10.5830 O.2       1 5SD500      0.0000 
      5 C4         12.8410    6.1580  -10.0690 C.3       1 5SD500      0.0000 
      6 C5         12.4370    7.4540  -10.8000 C.3       1 5SD500      0.0000 
      7 C6         11.5320    8.3350   -9.9070 C.3       1 5SD500      0.0000 
      8 C7         11.1020    9.5900  -10.6590 C.3       1 5SD500      0.0000 
      9 C8         10.3850    9.2540  -11.9940 C.3       1 5SD500      0.0000 
     10 C9         11.3370    8.4230  -12.8630 C.3       1 5SD500      0.0000 
     11 C10        11.7290    7.0950  -12.1420 C.3       1 5SD500      0.0000 
     12 C11        10.6730    8.1810  -14.2440 C.3       1 5SD500      0.0000 
     13 C12        10.2970    9.4500  -15.0070 C.3       1 5SD500      0.0000 
     14 C13         9.3830   10.3390  -14.1120 C.3       1 5SD500      0.0000 
     15 C14         9.9650   10.5740  -12.7650 C.3       1 5SD500      0.0000 
     16 C15         8.9260   11.4920  -12.1020 C.3       1 5SD500      0.0000 
     17 C16         8.8980   12.5730  -13.2070 C.3       1 5SD500      0.0000 
     18 C17         9.0990   11.7820  -14.5130 C.2       1 5SD500      0.0000 
     19 O17         9.0090   12.2570  -15.6270 O.2       1 5SD500      0.0000 
     20 C18         7.9680    9.6030  -14.0230 C.3       1 5SD500      0.0000 
     21 C19        10.4250    6.2950  -11.8630 C.3       1 5SD500      0.0000 
     22 H          12.2999    6.1049  -13.9719 H         1 5SD500      0.0000 
     23 H          13.6517    6.8287  -13.0839 H         1 5SD500      0.0000 
     24 H          13.8045    4.4146  -12.9079 H         1 5SD500      0.0000 
     25 H          12.1467    4.3096  -12.2907 H         1 5SD500      0.0000 
     26 H          13.4713    6.4410   -9.2041 H         1 5SD500      0.0000 
     27 H          11.9214    5.7067   -9.6494 H         1 5SD500      0.0000 
     28 H          13.3355    8.0065  -11.0356 H         1 5SD500      0.0000 
     29 H          12.0853    8.6144   -9.0161 H         1 5SD500      0.0000 
     30 H          10.6558    7.7610   -9.6229 H         1 5SD500      0.0000 
     31 H          11.9785   10.2022  -10.8809 H         1 5SD500      0.0000 
     32 H          10.4206   10.1741  -10.0370 H         1 5SD500      0.0000 
     33 H           9.5074    8.6878  -11.7880 H         1 5SD500      0.0000 
     34 H          12.2401    9.0036  -13.0216 H         1 5SD500      0.0000 
     35 H           9.7676    7.5685  -14.0900 H         1 5SD500      0.0000 
     36 H          11.3639    7.5789  -14.8594 H         1 5SD500      0.0000 
     37 H           9.7560    9.1919  -15.9046 H         1 5SD500      0.0000 
     38 H          11.1876   10.0079  -15.2530 H         1 5SD500      0.0000 
     39 H          10.8748   11.1890  -12.9118 H         1 5SD500      0.0000 
     40 H           9.3113   11.8933  -11.2324 H         1 5SD500      0.0000 
     41 H           8.0106   11.0168  -12.0569 H         1 5SD500      0.0000 
     42 H           9.7051   13.2430  -13.0667 H         1 5SD500      0.0000 
     43 H           7.9506   13.0444  -13.2164 H         1 5SD500      0.0000 
     44 H           8.0482    8.6916  -13.6193 H         1 5SD500      0.0000 
     45 H           7.3174   10.1156  -13.4627 H         1 5SD500      0.0000 
     46 H           7.5516    9.4885  -14.9249 H         1 5SD500      0.0000 
     47 H          10.6073    5.4529  -11.3555 H         1 5SD500      0.0000 
     48 H           9.7714    6.8264  -11.3240 H         1 5SD500      0.0000 
     49 H           9.9620    6.0326  -12.7096 H         1 5SD500      0.0000 
@<TRIPOS>BOND
     1    2    1 1    
     2   11    1 1    
     3   22    1 1    
     4   23    1 1    
     5    3    2 1    
     6   24    2 1    
     7   25    2 1    
     8    4    3 2    
     9    5    3 1    
    10    6    5 1    
    11   26    5 1    
    12   27    5 1    
    13    7    6 1    
    14   11    6 1    
    15   28    6 1    
    16    8    7 1    
    17   29    7 1    
    18   30    7 1    
    19    9    8 1    
    20   31    8 1    
    21   32    8 1    
    22   10    9 1    
    23   15    9 1    
    24   33    9 1    
    25   11   10 1    
    26   12   10 1    
    27   34   10 1    
    28   21   11 1    
    29   13   12 1    
    30   35   12 1    
    31   36   12 1    
    32   14   13 1    
    33   37   13 1    
    34   38   13 1    
    35   15   14 1    
    36   18   14 1    
    37   20   14 1    
    38   16   15 1    
    39   39   15 1    
    40   17   16 1    
    41   40   16 1    
    42   41   16 1    
    43   18   17 1    
    44   42   17 1    
    45   43   17 1    
    46   19   18 2    
    47   44   20 1    
    48   45   20 1    
    49   46   20 1    
    50   47   21 1    
    51   48   21 1    
    52   49   21 1    
@<TRIPOS>SUBSTRUCTURE
     1 5SD500      1 GROUP   
@<TRIPOS>SET

