#    Name: 3qp0_NI8_1_INTS_M
#    Modification time : Mon Apr  7 19:45:47 2014

@<TRIPOS>MOLECULE
3qp0_NI8_1_INTS_M
   74     0    12     0     0
SMALL
NO_CHARGES


@<TRIPOS>ATOM
      1 CA        -16.6875   20.2895   -7.8960 C.3       4 GLC5        0.0000 
      2 CA        -16.2190   19.8250   -5.7530 C.3      12 GLL5        0.0000 
      3 CA        -17.1560   20.7540  -10.0390 C.3       8 GLP5        0.0000 
      4 CA        -21.4650   13.2310   -9.5880 C.3       4 GLC5        0.0000 
      5 CA        -21.5580   14.9780   -8.9860 C.3      12 GLL5        0.0000 
      6 CA        -21.3720   11.4840  -10.1900 C.3       8 GLP5        0.0000 
      7 CA        -22.9905   15.4880  -10.1975 C.3       4 GLC5        0.0000 
      8 CA        -24.4230   15.9980  -11.4090 C.3       8 GLP5        0.0000 
      9 CA        -16.6035   15.8180   -9.5685 C.3       4 GLC5        0.0000 
     10 CA        -18.2920   16.8650   -9.2960 C.3      12 GLL5        0.0000 
     11 CA        -14.9150   14.7710   -9.8410 C.3       8 GLP5        0.0000 
     12 N         -17.5595   23.3240   -8.0055 N.am      2 SEC2        0.0000 
     13 N         -17.6700   22.9890   -6.4910 N.am     10 SEL2        0.0000 
     14 N         -17.4490   23.6590   -9.5200 N.am      6 SEP2        0.0000 
     15 CA        -15.7920   23.6620   -7.0360 C.3       4 GLC5        0.0000 
     16 CA        -15.0630   21.9760   -6.0040 C.3      12 GLL5        0.0000 
     17 CA        -16.5210   25.3480   -8.0680 C.3       8 GLP5        0.0000 
     18 CA         -9.6725   24.3745   -3.2855 C.3       4 GLC5        0.0000 
     19 CA        -11.6490   24.6710   -3.6820 C.3      12 GLL5        0.0000 
     20 CA         -7.6960   24.0780   -2.8890 C.3       8 GLP5        0.0000 
     21 CA        -12.6015   26.6550   -3.6225 C.3       4 GLC5        0.0000 
     22 CA        -13.5540   28.6390   -3.5630 C.3       8 GLP5        0.0000 
     23 CA        -14.5510   26.1540   -2.1235 C.3       4 GLC5        0.0000 
     24 CA        -13.8280   24.1340   -2.4970 C.3      12 GLL5        0.0000 
     25 CA        -15.2740   28.1740   -1.7500 C.3       8 GLP5        0.0000 
     26 CA        -16.6460   16.3520   -3.5090 C.3       4 GLC5        0.0000 
     27 CA        -17.2090   17.9610   -4.7360 C.3      12 GLL5        0.0000 
     28 CA        -16.0830   14.7430   -2.2820 C.3       8 GLP5        0.0000 
     29 CA        -17.5050   15.9270   -5.1520 C.3       4 GLC5        0.0000 
     30 CA        -17.8010   13.8930   -5.5680 C.3       8 GLP5        0.0000 
     31 OD1       -14.8765   16.8175   -4.5640 O.co2     3 ASC3        0.0000 
     32 OD1       -15.7990   18.0830   -4.3350 O.co2    11 ASL3        0.0000 
     33 OD1       -13.9540   15.5520   -4.7930 O.co2     7 ASP3        0.0000 
     34 OD1       -14.9995   17.3700   -5.5025 O.co2     3 ASC3        0.0000 
     35 OD1       -14.2000   16.6570   -6.6700 O.co2     7 ASP3        0.0000 
     36 OD1       -14.6995   17.5825   -3.3285 O.co2     3 ASC3        0.0000 
     37 OD1       -13.6000   17.0820   -2.3220 O.co2     7 ASP3        0.0000 
     38 OD1       -15.5770   18.1335   -2.9685 O.co2     3 ASC3        0.0000 
     39 OD1       -15.3550   18.1840   -1.6020 O.co2     7 ASP3        0.0000 
     40 CA        -13.1985   18.4750   -4.6885 C.3       4 GLC5        0.0000 
     41 CA        -15.2120   19.3770   -4.6940 C.3      12 GLL5        0.0000 
     42 CA        -11.1850   17.5730   -4.6830 C.3       8 GLP5        0.0000 
     43 N         -10.0760   23.0915   -3.5760 N.am      2 SEC2        0.0000 
     44 N         -10.7960   23.9010   -4.5530 N.am     10 SEL2        0.0000 
     45 N          -9.3560   22.2820   -2.5990 N.am      6 SEP2        0.0000 
     46 N         -20.7860   12.6460   -8.0345 N.am      2 SEC2        0.0000 
     47 N         -21.4530   13.9590   -7.9890 N.am     10 SEL2        0.0000 
     48 N         -20.1190   11.3330   -8.0800 N.am      6 SEP2        0.0000 
     49 O         -22.3805   13.1200   -8.5080 O.2       1 ALC1        0.0000 
     50 O         -21.4530   13.9590   -7.9890 O.2       9 ALL1        0.0000 
     51 O         -23.3080   12.2810   -9.0270 O.2       5 ALP1        0.0000 
     52 CA        -18.5520   15.7040   -7.2140 C.3       4 GLC5        0.0000 
     53 CA        -20.5230   16.8310   -7.6540 C.3      12 GLL5        0.0000 
     54 CA        -17.0960   14.1280   -6.9030 C.3       8 GLP5        0.0000 
     55 CA        -18.4868   15.0442   -8.0185 C.3       4 GLC5        0.0000 
     56 CA        -20.4360   15.9530   -8.7230 C.3      12 GLL5        0.0000 
     57 CA        -20.8403   16.5682  -10.8015 C.3       4 GLC5        0.0000 
     58 CA        -19.3190   15.9680   -9.5450 C.3      12 GLL5        0.0000 
     59 CA        -21.8030   17.1760  -12.4690 C.3       8 GLP5        0.0000 
     60 CA        -18.2888   16.2538  -11.2242 C.3       4 GLC5        0.0000 
     61 CA        -17.7720   16.0910  -13.0280 C.3       8 GLP5        0.0000 
     62 CA        -17.7153   15.7182   -7.8317 C.3       4 GLC5        0.0000 
     63 CA        -17.7452   19.0312   -9.3998 C.3       4 GLC5        0.0000 
     64 CA        -11.8415   22.4536   -3.2435 C.3       4 GLC5        0.0000 
     65 CA        -13.4610   23.3310   -4.7320 C.3      12 GLL5        0.0000 
     66 CA        -11.2380   20.7290   -2.5560 C.3       8 GLP5        0.0000 
     67 CA        -14.6085   24.7407   -0.5345 C.3       4 GLC5        0.0000 
     68 CA        -14.7600   25.6470    1.4280 C.3       8 GLP5        0.0000 
     69 CA        -16.8773   24.3365   -3.4980 C.3       4 GLC5        0.0000 
     70 CA        -15.0860   23.5350   -2.4970 C.3      12 GLL5        0.0000 
     71 CA        -18.4460   25.4960   -3.9400 C.3       8 GLP5        0.0000 
     72 CA        -13.6185   22.0829   -2.2385 C.3       4 GLC5        0.0000 
     73 CA        -15.5310   22.8190   -3.6150 C.3      12 GLL5        0.0000 
     74 CA        -12.2430   20.8390   -1.4210 C.3       8 GLP5        0.0000 
@<TRIPOS>BOND
@<TRIPOS>SUBSTRUCTURE
     1 ALC1       49 GROUP        1 X    ALC  0     ROOT ALC X 1
     2 SEC2       12 GROUP        1 X    SEC  0     **** SEC X 2
     3 ASC3       31 GROUP        1 X    ASC  0     **** ASC X 3
     4 GLC5        1 GROUP        1 X    GLC  0     **** GLC X 6
     5 ALP1       51 GROUP        1 Y    ALP  0     ROOT ALP Y 8
     6 SEP2       14 GROUP        1 Y    SEP  0     **** SEP Y 9
     7 ASP3       33 GROUP        1 Y    ASP  0     **** ASP Y 10
     8 GLP5        3 GROUP        1 Y    GLP  0     **** GLP Y 13
     9 ALL1       50 GROUP        1 Z    ALL  0     ROOT ALL Z 15
    10 SEL2       13 GROUP        1 Z    SEL  0     **** SEL Z 16
    11 ASL3       32 GROUP        1 Z    ASL  0     **** ASL Z 17
    12 GLL5        2 GROUP        1 Z    GLL  0     **** GLL Z 20
@<TRIPOS>SET

