#    Name: 3qp0_NI8_1_ligand
#    Modification time : Mon Apr  7 19:45:47 2014

@<TRIPOS>MOLECULE
3qp0_NI8_1_ligand
   53    56     1     0     0
SMALL
NO_CHARGES


@<TRIPOS>ATOM
      1 C1        -16.2190   19.8250   -5.7530 C.3       1 NI8102      0.0000 
      2 C2        -17.5200   19.4090   -5.1000 C.3       1 NI8102      0.0000 
      3 N3        -18.5880   19.6690   -6.0670 N.am      1 NI8102      0.0000 
      4 C5        -19.6340   18.6610   -6.2070 C.3       1 NI8102      0.0000 
      5 C6        -19.4930   17.7290   -7.3960 C.ar      1 NI8102      0.0000 
      6 C7        -20.5230   16.8310   -7.6540 C.ar      1 NI8102      0.0000 
      7 C8        -20.4360   15.9530   -8.7230 C.ar      1 NI8102      0.0000 
      8 C9        -21.5580   14.9780   -8.9860 C.3       1 NI8102      0.0000 
      9 C10       -19.3190   15.9680   -9.5450 C.ar      1 NI8102      0.0000 
     10 C11       -18.2920   16.8650   -9.2960 C.ar      1 NI8102      0.0000 
     11 C12       -18.3770   17.7520   -8.2250 C.ar      1 NI8102      0.0000 
     12 C13       -18.6130   20.8690   -6.6380 C.2       1 NI8102      0.0000 
     13 O14       -19.5350   21.2250   -7.3630 O.2       1 NI8102      0.0000 
     14 C15       -17.5060   21.7840   -6.3510 C.2       1 NI8102      0.0000 
     15 O16       -17.6700   22.9890   -6.4910 O.2       1 NI8102      0.0000 
     16 N17       -16.3290   21.2620   -5.9970 N.am      1 NI8102      0.0000 
     17 C18       -15.0630   21.9760   -6.0040 C.3       1 NI8102      0.0000 
     18 C19       -14.7030   22.7180   -4.7370 C.ar      1 NI8102      0.0000 
     19 C20       -13.4610   23.3310   -4.7320 C.ar      1 NI8102      0.0000 
     20 C21       -13.0210   24.0400   -3.6280 C.ar      1 NI8102      0.0000 
     21 C22       -11.6490   24.6710   -3.6820 C.3       1 NI8102      0.0000 
     22 C23       -13.8280   24.1340   -2.4970 C.ar      1 NI8102      0.0000 
     23 C24       -15.0860   23.5350   -2.4970 C.ar      1 NI8102      0.0000 
     24 C25       -15.5310   22.8190   -3.6150 C.ar      1 NI8102      0.0000 
     25 C26       -17.2090   17.9610   -4.7360 C.3       1 NI8102      0.0000 
     26 N27       -15.7990   18.0830   -4.3350 N.4       1 NI8102      0.0000 
     27 C28       -15.2120   19.3770   -4.6940 C.3       1 NI8102      0.0000 
     28 O29       -10.7960   23.9010   -4.5530 O.3       1 NI8102      0.0000 
     29 O30       -21.4530   13.9590   -7.9890 O.3       1 NI8102      0.0000 
     30 H         -16.1036   19.2510   -6.6233 H         1 NI8102      0.0000 
     31 H         -17.6113   19.9828   -4.2088 H         1 NI8102      0.0000 
     32 H         -20.6360   19.1537   -6.2750 H         1 NI8102      0.0000 
     33 H         -19.6879   18.0321   -5.2834 H         1 NI8102      0.0000 
     34 H         -21.3557   16.8198   -7.0451 H         1 NI8102      0.0000 
     35 H         -21.4383   14.5764   -9.9865 H         1 NI8102      0.0000 
     36 H         -22.5005   15.5109   -8.9196 H         1 NI8102      0.0000 
     37 H         -19.2532   15.3153  -10.3369 H         1 NI8102      0.0000 
     38 H         -17.4599   16.8783   -9.9044 H         1 NI8102      0.0000 
     39 H         -17.6176   18.4198   -8.0496 H         1 NI8102      0.0000 
     40 H         -15.0420   22.7138   -6.8507 H         1 NI8102      0.0000 
     41 H         -14.2229   21.2675   -6.2364 H         1 NI8102      0.0000 
     42 H         -12.8520   23.2573   -5.5683 H         1 NI8102      0.0000 
     43 H         -11.2453   24.7085   -2.6643 H         1 NI8102      0.0000 
     44 H         -11.7557   25.7005   -4.0411 H         1 NI8102      0.0000 
     45 H         -13.4988   24.6407   -1.6693 H         1 NI8102      0.0000 
     46 H         -15.6947   23.6176   -1.6710 H         1 NI8102      0.0000 
     47 H         -16.4503   22.3759   -3.6099 H         1 NI8102      0.0000 
     48 H         -17.3144   17.3574   -5.5948 H         1 NI8102      0.0000 
     49 H         -17.8165   17.6695   -3.9243 H         1 NI8102      0.0000 
     50 H         -15.2382   20.0521   -3.8880 H         1 NI8102      0.0000 
     51 H         -14.2682   19.2636   -5.1440 H         1 NI8102      0.0000 
     52 H         -10.5339   24.5324   -5.2828 H         1 NI8102      0.0000 
     53 H         -22.1137   13.2601   -8.2629 H         1 NI8102      0.0000 
@<TRIPOS>BOND
     1    2    1 1    
     2   16    1 1    
     3   27    1 1    
     4   30    1 1    
     5    3    2 1    
     6   25    2 1    
     7   31    2 1    
     8    4    3 1    
     9   12    3 am   
    10    5    4 1    
    11   32    4 1    
    12   33    4 1    
    13    6    5 ar   
    14   11    5 ar   
    15    7    6 ar   
    16   34    6 1    
    17    8    7 1    
    18    9    7 ar   
    19   29    8 1    
    20   35    8 1    
    21   36    8 1    
    22   10    9 ar   
    23   37    9 1    
    24   11   10 ar   
    25   38   10 1    
    26   39   11 1    
    27   13   12 2    
    28   14   12 1    
    29   15   14 2    
    30   16   14 am   
    31   17   16 1    
    32   18   17 1    
    33   40   17 1    
    34   41   17 1    
    35   19   18 ar   
    36   24   18 ar   
    37   20   19 ar   
    38   42   19 1    
    39   21   20 1    
    40   22   20 ar   
    41   28   21 1    
    42   43   21 1    
    43   44   21 1    
    44   23   22 ar   
    45   45   22 1    
    46   24   23 ar   
    47   46   23 1    
    48   47   24 1    
    49   26   25 1    
    50   48   25 1    
    51   49   25 1    
    52   27   26 1    
    53   50   27 1    
    54   51   27 1    
    55   52   28 1    
    56   53   29 1    
@<TRIPOS>SUBSTRUCTURE
     1 NI8102      1 GROUP   
@<TRIPOS>SET

