#    Name: 3zt0_ZT0_1_INTS_M
#    Modification time : Tue Mar 25 03:57:57 2014

@<TRIPOS>MOLECULE
3zt0_ZT0_1_INTS_M
   60     0     9     0     0
SMALL
NO_CHARGES


@<TRIPOS>ATOM
      1 CA         13.0620    5.0535    3.8735 C.3       3 GLC5        0.0000 
      2 CA         13.4800    3.8120    2.1000 C.3       9 GLL5        0.0000 
      3 CA         12.6440    6.2950    5.6470 C.3       6 GLP5        0.0000 
      4 CA         13.7845    2.0180    3.2785 C.3       3 GLC5        0.0000 
      5 CA         14.0890    0.2240    4.4570 C.3       6 GLP5        0.0000 
      6 CA         17.2920    2.4905    2.2235 C.3       3 GLC5        0.0000 
      7 CA         15.5290    3.1000    2.2020 C.3       9 GLL5        0.0000 
      8 CA         19.0550    1.8810    2.2450 C.3       6 GLP5        0.0000 
      9 CA         15.3680    1.1910    2.2775 C.3       3 GLC5        0.0000 
     10 CA         15.2070   -0.7180    2.3530 C.3       6 GLP5        0.0000 
     11 CA         11.7675    7.5470    2.6365 C.3       3 GLC5        0.0000 
     12 CA         11.5300    7.8200    0.5930 C.3       9 GLL5        0.0000 
     13 CA         12.0050    7.2740    4.6800 C.3       6 GLP5        0.0000 
     14 CA         11.8995    1.0680   -0.1185 C.3       3 GLC5        0.0000 
     15 CA         10.6080    1.1310    1.5140 C.3       9 GLL5        0.0000 
     16 CA         13.1910    1.0050   -1.7510 C.3       6 GLP5        0.0000 
     17 CA          9.8750    1.5610    3.2370 C.3       3 GLC5        0.0000 
     18 CA          9.1420    1.9910    4.9600 C.3       6 GLP5        0.0000 
     19 CA         11.6750    0.2865    2.9920 C.3       3 GLC5        0.0000 
     20 CA         12.7420   -0.5580    4.4700 C.3       6 GLP5        0.0000 
     21 CA         11.1935   -0.7985    0.6195 C.3       3 GLC5        0.0000 
     22 CA         11.7790   -2.7280   -0.2750 C.3       6 GLP5        0.0000 
     23 CA          8.7620    0.4400    2.2570 C.3       3 GLC5        0.0000 
     24 CA          6.9160   -0.2510    3.0000 C.3       6 GLP5        0.0000 
     25 O           9.3200    4.5445   -4.3155 O.2       1 ALC1        0.0000 
     26 O           8.6070    5.5330   -3.5110 O.2       7 ALL1        0.0000 
     27 O          10.0330    3.5560   -5.1200 O.2       4 ALP1        0.0000 
     28 N          16.0565    4.7620   -2.7465 N.am      2 SEC2        0.0000 
     29 N          15.0380    4.4870   -1.7610 N.am      8 SEL2        0.0000 
     30 N          17.0750    5.0370   -3.7320 N.am      5 SEP2        0.0000 
     31 N          15.2210    3.1680   -1.3675 N.am      2 SEC2        0.0000 
     32 N          15.4040    1.8490   -0.9740 N.am      5 SEP2        0.0000 
     33 N          14.1060    6.1020   -3.4280 N.am      2 SEC2        0.0000 
     34 N          13.6880    6.2490   -2.0810 N.am      8 SEL2        0.0000 
     35 N          14.5240    5.9550   -4.7750 N.am      5 SEP2        0.0000 
     36 CA         13.9525    8.1107   -4.3625 C.3       3 GLC5        0.0000 
     37 CA         12.1150    8.2320   -5.3240 C.3       9 GLL5        0.0000 
     38 CA         15.8120    7.8580   -4.0790 C.3       6 GLP5        0.0000 
     39 CA         11.4060    5.7867   -4.8752 C.3       3 GLC5        0.0000 
     40 CA         10.0180    7.3380   -3.8630 C.3       9 GLL5        0.0000 
     41 CA         12.7780    4.3700   -5.2080 C.3       6 GLP5        0.0000 
     42 CA         12.3110    6.2781   -5.0066 C.3       3 GLC5        0.0000 
     43 CA         11.9075    5.8515    3.2642 C.3       3 GLC5        0.0000 
     44 CA         11.4600    4.7710    1.3480 C.3       9 GLL5        0.0000 
     45 CA         10.1510    4.8300    2.8682 C.3       3 GLC5        0.0000 
     46 CA         12.1600    4.0870    2.3490 C.3       9 GLL5        0.0000 
     47 CA          8.4920    5.2310    3.8880 C.3       6 GLP5        0.0000 
     48 CA          5.8792    3.6675    0.3930 C.3       3 GLC5        0.0000 
     49 CA          7.9190    3.2390    0.5610 C.3       9 GLL5        0.0000 
     50 CA          4.0430    3.7210    0.7610 C.3       6 GLP5        0.0000 
     51 CA         11.3675    1.8828   -1.5060 C.3       3 GLC5        0.0000 
     52 CA          9.3330    3.1450   -1.7990 C.3       9 GLL5        0.0000 
     53 CA          9.5930    1.2288   -2.6065 C.3       3 GLC5        0.0000 
     54 CA          9.7550    2.3760   -0.7230 C.3       9 GLL5        0.0000 
     55 CA          9.6420   -0.3030   -3.9520 C.3       6 GLP5        0.0000 
     56 CA          8.4808    4.0343    2.2005 C.3       3 GLC5        0.0000 
     57 CA          9.0200    2.4360    0.4650 C.3       9 GLL5        0.0000 
     58 CA          7.6928    1.2933    1.7565 C.3       3 GLC5        0.0000 
     59 CA         13.4758    2.7637   -0.6623 C.3       3 GLC5        0.0000 
     60 CA         13.4240    4.8630   -0.0820 C.3       9 GLL5        0.0000 
@<TRIPOS>BOND
@<TRIPOS>SUBSTRUCTURE
     1 ALC1       25 GROUP        1 X    ALC  0     ROOT ALC X 1
     2 SEC2       28 GROUP        1 X    SEC  0     **** SEC X 2
     3 GLC5        1 GROUP        1 X    GLC  0     **** GLC X 6
     4 ALP1       27 GROUP        1 Y    ALP  0     ROOT ALP Y 8
     5 SEP2       30 GROUP        1 Y    SEP  0     **** SEP Y 9
     6 GLP5        3 GROUP        1 Y    GLP  0     **** GLP Y 13
     7 ALL1       26 GROUP        1 Z    ALL  0     ROOT ALL Z 15
     8 SEL2       29 GROUP        1 Z    SEL  0     **** SEL Z 16
     9 GLL5        2 GROUP        1 Z    GLL  0     **** GLL Z 20
@<TRIPOS>SET

