#    Name: 3zt0_ZT0_1_ligand
#    Modification time : Tue Mar 25 03:57:57 2014

@<TRIPOS>MOLECULE
3zt0_ZT0_1_ligand
   60    63     1     0     0
SMALL
NO_CHARGES


@<TRIPOS>ATOM
      1 C1         11.1190    7.5230   -5.9610 C.ar      1 ZT01213     0.0000 
      2 C2         12.1150    8.2320   -5.3240 C.ar      1 ZT01213     0.0000 
      3 C3         10.0500    7.0690   -5.2220 C.ar      1 ZT01213     0.0000 
      4 C4         12.0710    8.4950   -3.9680 C.ar      1 ZT01213     0.0000 
      5 C5         11.4600    4.7710    1.3480 C.ar      1 ZT01213     0.0000 
      6 C6          7.5120    3.9890   -0.5110 C.ar      1 ZT01213     0.0000 
      7 C7          9.3330    3.1450   -1.7990 C.ar      1 ZT01213     0.0000 
      8 C8         12.1600    4.0870    2.3490 C.ar      1 ZT01213     0.0000 
      9 C9          7.9190    3.2390    0.5610 C.ar      1 ZT01213     0.0000 
     10 C10         9.7550    2.3760   -0.7230 C.ar      1 ZT01213     0.0000 
     11 C11        10.0180    7.3380   -3.8630 C.ar      1 ZT01213     0.0000 
     12 C12        13.4240    4.8630   -0.0820 C.ar      1 ZT01213     0.0000 
     13 C13         8.2070    3.9530   -1.6900 C.ar      1 ZT01213     0.0000 
     14 C14        11.0100    8.0430   -3.2180 C.ar      1 ZT01213     0.0000 
     15 C15        12.0790    5.1420    0.1470 C.ar      1 ZT01213     0.0000 
     16 C16        13.4800    3.8120    2.1000 C.ar      1 ZT01213     0.0000 
     17 C17        14.0970    4.1820    0.9350 C.ar      1 ZT01213     0.0000 
     18 C18         9.0200    2.4360    0.4650 C.ar      1 ZT01213     0.0000 
     19 C19         8.8490    6.8090   -3.1340 C.2       1 ZT01213     0.0000 
     20 C20        14.0990    5.2540   -1.3960 C.2       1 ZT01213     0.0000 
     21 C21        15.5290    3.1000    2.2020 C.3       1 ZT01213     0.0000 
     22 C22        11.5300    7.8200    0.5930 C.3       1 ZT01213     0.0000 
     23 C23        10.6080    1.1310    1.5140 C.3       1 ZT01213     0.0000 
     24 C24         7.6440    4.8040   -2.7820 C.3       1 ZT01213     0.0000 
     25 C25        11.0040    8.3460   -1.7440 C.3       1 ZT01213     0.0000 
     26 C26        11.2830    5.8820   -0.9100 C.3       1 ZT01213     0.0000 
     27 N27         8.6070    5.5330   -3.5110 N.am      1 ZT01213     0.0000 
     28 N28        11.6510    7.3400   -0.8100 N.4       1 ZT01213     0.0000 
     29 O29        15.0380    4.4870   -1.7610 O.co2     1 ZT01213     0.0000 
     30 O30         8.2110    7.4490   -2.3060 O.2       1 ZT01213     0.0000 
     31 O31        13.6880    6.2490   -2.0810 O.co2     1 ZT01213     0.0000 
     32 O32        14.3290    3.1960    2.9630 O.3       1 ZT01213     0.0000 
     33 O33        15.4360    3.8250    0.9680 O.3       1 ZT01213     0.0000 
     34 O34         9.3150    1.7440    1.6410 O.3       1 ZT01213     0.0000 
     35 H          11.1743    7.3376   -6.9673 H         1 ZT01213     0.0000 
     36 H          12.9271    8.5812   -5.8811 H         1 ZT01213     0.0000 
     37 H           9.2922    6.5432   -5.6633 H         1 ZT01213     0.0000 
     38 H          12.8323    9.0285   -3.5225 H         1 ZT01213     0.0000 
     39 H          10.4637    5.0080    1.4978 H         1 ZT01213     0.0000 
     40 H           6.6684    4.5902   -0.4280 H         1 ZT01213     0.0000 
     41 H           9.8586    3.1172   -2.6869 H         1 ZT01213     0.0000 
     42 H          11.7038    3.8162    3.2053 H         1 ZT01213     0.0000 
     43 H           7.3860    3.2825    1.4513 H         1 ZT01213     0.0000 
     44 H          10.5769    1.7829   -0.7923 H         1 ZT01213     0.0000 
     45 H          15.7655    2.0309    1.9927 H         1 ZT01213     0.0000 
     46 H          16.3915    3.4803    2.7971 H         1 ZT01213     0.0000 
     47 H           6.8837    5.4891   -2.3229 H         1 ZT01213     0.0000 
     48 H           7.0460    4.1388   -3.4588 H         1 ZT01213     0.0000 
     49 H           9.9420    8.5024   -1.4117 H         1 ZT01213     0.0000 
     50 H          11.4922    9.3445   -1.5785 H         1 ZT01213     0.0000 
     51 H          10.2292    5.7558   -0.7218 H         1 ZT01213     0.0000 
     52 H          11.5414    5.5044   -1.8859 H         1 ZT01213     0.0000 
     53 H           9.0876    5.0895   -4.2887 H         1 ZT01213     0.0000 
     54 H          12.7785    7.3999   -1.0292 H         1 ZT01213     0.0000 
     55 H          11.9435    7.1806    1.2412 H         1 ZT01213     0.0000 
     56 H          11.9813    8.7028    0.7237 H         1 ZT01213     0.0000 
     57 H          10.5747    7.9361    0.8647 H         1 ZT01213     0.0000 
     58 H          11.3262    1.8085    1.3554 H         1 ZT01213     0.0000 
     59 H          10.8608    0.6232    2.3376 H         1 ZT01213     0.0000 
     60 H          10.6398    0.4859    0.7506 H         1 ZT01213     0.0000 
@<TRIPOS>BOND
     1    2    1 ar   
     2    3    1 ar   
     3   35    1 1    
     4    4    2 ar   
     5   36    2 1    
     6   11    3 ar   
     7   37    3 1    
     8   14    4 ar   
     9   38    4 1    
    10    8    5 ar   
    11   15    5 ar   
    12   39    5 1    
    13    9    6 ar   
    14   13    6 ar   
    15   40    6 1    
    16   10    7 ar   
    17   13    7 ar   
    18   41    7 1    
    19   16    8 ar   
    20   42    8 1    
    21   18    9 ar   
    22   43    9 1    
    23   18   10 ar   
    24   44   10 1    
    25   14   11 ar   
    26   19   11 1    
    27   15   12 ar   
    28   17   12 ar   
    29   20   12 1    
    30   24   13 1    
    31   25   14 1    
    32   26   15 1    
    33   17   16 ar   
    34   32   16 1    
    35   33   17 1    
    36   34   18 1    
    37   27   19 am   
    38   30   19 2    
    39   29   20 ar   
    40   31   20 ar   
    41   32   21 1    
    42   33   21 1    
    43   45   21 1    
    44   46   21 1    
    45   28   22 1    
    46   55   22 1    
    47   56   22 1    
    48   57   22 1    
    49   34   23 1    
    50   58   23 1    
    51   59   23 1    
    52   60   23 1    
    53   27   24 1    
    54   47   24 1    
    55   48   24 1    
    56   28   25 1    
    57   49   25 1    
    58   50   25 1    
    59   28   26 1    
    60   51   26 1    
    61   52   26 1    
    62   53   27 1    
    63   54   28 1    
@<TRIPOS>SUBSTRUCTURE
     1 ZT01213     1 GROUP   
@<TRIPOS>SET

