#    Name: 4fv5_EK9_1_INTS_M
#    Modification time : Mon Mar 24 20:50:40 2014

@<TRIPOS>MOLECULE
4fv5_EK9_1_INTS_M
   81     0     9     0     0
SMALL
NO_CHARGES


@<TRIPOS>ATOM
      1 N          -8.7095    3.0025   11.8230 N.am      2 SEC2        0.0000 
      2 N          -9.7500    2.7520   12.6860 N.am      8 SEL2        0.0000 
      3 N          -7.6690    3.2530   10.9600 N.am      5 SEP2        0.0000 
      4 CA         -7.8760    7.0770   15.6180 C.3       3 GLC5        0.0000 
      5 CA         -8.0260    4.9530   15.9700 C.3       9 GLL5        0.0000 
      6 CA         -7.7260    9.2010   15.2660 C.3       6 GLP5        0.0000 
      7 O          -7.2445    3.2475   16.7440 O.2       1 ALC1        0.0000 
      8 O          -8.3400    3.9960   16.9340 O.2       7 ALL1        0.0000 
      9 O          -6.1490    2.4990   16.5540 O.2       4 ALP1        0.0000 
     10 CA        -13.3105    4.5740   13.7505 C.3       3 GLC5        0.0000 
     11 CA        -13.7090    2.7740   15.0370 C.3       9 GLL5        0.0000 
     12 CA        -12.9120    6.3740   12.4640 C.3       6 GLP5        0.0000 
     13 CA        -14.5095    1.2620   15.8560 C.3       3 GLC5        0.0000 
     14 CA        -15.3100   -0.2500   16.6750 C.3       6 GLP5        0.0000 
     15 CA        -14.2795   -1.4555   10.8130 C.3       3 GLC5        0.0000 
     16 CA        -14.7450    0.5040   11.1130 C.3       9 GLL5        0.0000 
     17 CA        -13.8140   -3.4150   10.5130 C.3       6 GLP5        0.0000 
     18 CA        -14.7525   -0.0845    9.2555 C.3       3 GLC5        0.0000 
     19 CA        -14.7600   -0.6730    7.3980 C.3       6 GLP5        0.0000 
     20 CA        -18.8725    0.3250   11.0575 C.3       3 GLC5        0.0000 
     21 CA        -17.0510    0.8280   12.0220 C.3       9 GLL5        0.0000 
     22 CA        -20.6940   -0.1780   10.0930 C.3       6 GLP5        0.0000 
     23 CA        -17.8720   -0.9545   12.8625 C.3       3 GLC5        0.0000 
     24 CA        -18.6930   -2.7370   13.7030 C.3       6 GLP5        0.0000 
     25 N         -19.2980    0.2255   12.6465 N.am      2 SEC2        0.0000 
     26 N         -18.0110    1.2200   12.8460 N.am      8 SEL2        0.0000 
     27 N         -20.5850   -0.7690   12.4470 N.am      5 SEP2        0.0000 
     28 CA        -22.1285    1.0385   16.1235 C.3       3 GLC5        0.0000 
     29 CA        -20.7850    2.6910   15.8290 C.3       9 GLL5        0.0000 
     30 CA        -23.4720   -0.6140   16.4180 C.3       6 GLP5        0.0000 
     31 CA        -20.6175    2.5200   13.0030 C.3       3 GLC5        0.0000 
     32 CA        -19.9080    2.2890   14.8430 C.3       9 GLL5        0.0000 
     33 CA        -21.3270    2.7510   11.1630 C.3       6 GLP5        0.0000 
     34 CA        -20.4205    0.4005   14.2540 C.3       3 GLC5        0.0000 
     35 CA        -20.9330   -1.4880   13.6650 C.3       6 GLP5        0.0000 
     36 CA         -7.6848    2.6530   15.3920 C.3       3 GLC5        0.0000 
     37 CA         -8.4190    4.4710   14.5440 C.3       9 GLL5        0.0000 
     38 CA         -7.1470    0.5940   15.5270 C.3       6 GLP5        0.0000 
     39 CA         -7.5783    7.4600   14.3520 C.3       3 GLC5        0.0000 
     40 CA         -8.1060    5.6170   13.6090 C.3       9 GLL5        0.0000 
     41 CA         -7.3670    5.3665   11.4922 C.3       3 GLC5        0.0000 
     42 CA         -6.7550    5.8210   13.2670 C.3       9 GLL5        0.0000 
     43 CA         -8.1600    4.3770   10.1250 C.3       6 GLP5        0.0000 
     44 CA         -7.3033    8.2640   13.7342 C.3       3 GLC5        0.0000 
     45 CA         -6.3930    6.8910   12.4520 C.3       9 GLL5        0.0000 
     46 CA         -8.0882    9.4312   11.4115 C.3       3 GLC5        0.0000 
     47 CA         -7.3680    7.7630   11.9530 C.3       9 GLL5        0.0000 
     48 CA         -8.1330   11.1990   10.7120 C.3       6 GLP5        0.0000 
     49 CA         -8.1017    6.0202   11.1180 C.3       3 GLC5        0.0000 
     50 CA         -8.3155    8.1167   13.9748 C.3       3 GLC5        0.0000 
     51 CA         -8.7190    7.5640   12.2690 C.3       9 GLL5        0.0000 
     52 CA        -10.9085    6.7032   12.5738 C.3       3 GLC5        0.0000 
     53 CA         -7.2349    7.4093   10.3824 C.3       3 GLC5        0.0000 
     54 CA         -6.6700    7.3730    8.5290 C.3       6 GLP5        0.0000 
     55 CA         -8.4184    5.0747   11.8561 C.3       3 GLC5        0.0000 
     56 CA         -9.0910    6.5010   13.0980 C.3       9 GLL5        0.0000 
     57 CA        -12.5665    4.4108   13.0015 C.3       3 GLC5        0.0000 
     58 CA        -11.7510    2.7700   13.9460 C.3       9 GLL5        0.0000 
     59 CA        -14.7825    3.6795   12.4748 C.3       3 GLC5        0.0000 
     60 CA        -13.9390    2.1320   13.7970 C.3       9 GLL5        0.0000 
     61 CA        -14.9530    5.4480   11.3620 C.3       6 GLP5        0.0000 
     62 CA        -14.7955    0.1610   14.0808 C.3       3 GLC5        0.0000 
     63 CA        -14.9790   -1.5890   14.5740 C.3       6 GLP5        0.0000 
     64 CA        -16.8485    1.6427   10.4842 C.3       3 GLC5        0.0000 
     65 CA        -15.6330    1.0100   12.1570 C.3       9 GLL5        0.0000 
     66 CA        -17.5770    2.4930    9.1400 C.3       6 GLP5        0.0000 
     67 CA        -15.5495   -0.3982   13.2012 C.3       3 GLC5        0.0000 
     68 CA        -18.8450    0.1425   14.4990 C.3       3 GLC5        0.0000 
     69 CA        -17.5750    1.8960   14.0410 C.3       9 GLL5        0.0000 
     70 CA        -19.6650   -1.8370   14.4680 C.3       6 GLP5        0.0000 
     71 CA        -16.6715    1.1160   16.0515 C.3       3 GLC5        0.0000 
     72 CA        -19.4102    4.4315   18.8097 C.3       3 GLC5        0.0000 
     73 CA        -20.3380    3.1700   17.0730 C.3       9 GLL5        0.0000 
     74 CA        -19.1790    5.6660   20.4380 C.3       6 GLP5        0.0000 
     75 CA        -20.6586    1.6965   17.8806 C.3       3 GLC5        0.0000 
     76 CA        -18.9450    3.2240   17.2900 C.3       9 GLL5        0.0000 
     77 CA        -21.1040    0.4490   19.2560 C.3       6 GLP5        0.0000 
     78 CA        -18.7718    3.6532   13.4718 C.3       3 GLC5        0.0000 
     79 CA        -18.5770    5.1010   12.2570 C.3       6 GLP5        0.0000 
     80 CA        -12.2683    0.9261   14.8660 C.3       3 GLC5        0.0000 
     81 CA        -11.5140   -0.5980   15.7540 C.3       6 GLP5        0.0000 
@<TRIPOS>BOND
@<TRIPOS>SUBSTRUCTURE
     1 ALC1        7 GROUP        1 X    ALC  0     ROOT ALC X 1
     2 SEC2        1 GROUP        1 X    SEC  0     **** SEC X 2
     3 GLC5        4 GROUP        1 X    GLC  0     **** GLC X 6
     4 ALP1        9 GROUP        1 Y    ALP  0     ROOT ALP Y 8
     5 SEP2        3 GROUP        1 Y    SEP  0     **** SEP Y 9
     6 GLP5        6 GROUP        1 Y    GLP  0     **** GLP Y 13
     7 ALL1        8 GROUP        1 Z    ALL  0     ROOT ALL Z 15
     8 SEL2        2 GROUP        1 Z    SEL  0     **** SEL Z 16
     9 GLL5        5 GROUP        1 Z    GLL  0     **** GLL Z 20
@<TRIPOS>SET

