#    Name: 4fv5_EK9_1_ligand
#    Modification time : Mon Mar 24 20:50:40 2014

@<TRIPOS>MOLECULE
4fv5_EK9_1_ligand
   52    55     1     0     0
SMALL
NO_CHARGES


@<TRIPOS>ATOM
      1 O2         -9.7500    2.7520   12.6860 O.2       1 EK9401      0.0000 
      2 C3        -10.3940    3.1850   13.6560 C.2       1 EK9401      0.0000 
      3 N1         -9.8250    4.1070   14.5720 N.am      1 EK9401      0.0000 
      4 C2         -8.4190    4.4710   14.5440 C.3       1 EK9401      0.0000 
      5 C19        -8.1060    5.6170   13.6090 C.ar      1 EK9401      0.0000 
      6 C24        -6.7550    5.8210   13.2670 C.ar      1 EK9401      0.0000 
      7 C23        -6.3930    6.8910   12.4520 C.ar      1 EK9401      0.0000 
      8 C22        -7.3680    7.7630   11.9530 C.ar      1 EK9401      0.0000 
      9 C21        -8.7190    7.5640   12.2690 C.ar      1 EK9401      0.0000 
     10 C20        -9.0910    6.5010   13.0980 C.ar      1 EK9401      0.0000 
     11 C1         -8.0260    4.9530   15.9700 C.3       1 EK9401      0.0000 
     12 O1         -8.3400    3.9960   16.9340 O.3       1 EK9401      0.0000 
     13 C4        -11.7510    2.7700   13.9460 C.2       1 EK9401      0.0000 
     14 C7        -12.6910    2.1250   13.1320 C.2       1 EK9401      0.0000 
     15 C6        -13.9390    2.1320   13.7970 C.2       1 EK9401      0.0000 
     16 C5        -13.7090    2.7740   15.0370 C.2       1 EK9401      0.0000 
     17 N2        -12.4090    3.1420   15.1250 N.pl3     1 EK9401      0.0000 
     18 C8        -15.2850    1.6900   13.3780 C.ar      1 EK9401      0.0000 
     19 C11       -15.6330    1.0100   12.1570 C.ar      1 EK9401      0.0000 
     20 C12       -14.7450    0.5040   11.1130 C.3       1 EK9401      0.0000 
     21 C10       -17.0510    0.8280   12.0220 C.ar      1 EK9401      0.0000 
     22 N4        -18.0110    1.2200   12.8460 N.ar      1 EK9401      0.0000 
     23 C9        -17.5750    1.8960   14.0410 C.ar      1 EK9401      0.0000 
     24 N3        -16.1960    2.0840   14.2720 N.ar      1 EK9401      0.0000 
     25 C13       -18.4750    2.3480   15.0190 C.ar      1 EK9401      0.0000 
     26 C18       -18.0410    2.8420   16.3260 C.ar      1 EK9401      0.0000 
     27 C17       -18.9450    3.2240   17.2900 C.ar      1 EK9401      0.0000 
     28 C16       -20.3380    3.1700   17.0730 C.ar      1 EK9401      0.0000 
     29 C15       -20.7850    2.6910   15.8290 C.ar      1 EK9401      0.0000 
     30 C14       -19.9080    2.2890   14.8430 C.ar      1 EK9401      0.0000 
     31 H         -10.4218    4.5440   15.2919 H         1 EK9401      0.0000 
     32 H          -7.7913    3.6382   14.3162 H         1 EK9401      0.0000 
     33 H          -6.0407    5.1758   13.6227 H         1 EK9401      0.0000 
     34 H          -5.4037    7.0442   12.2134 H         1 EK9401      0.0000 
     35 H          -7.0937    8.5499   11.3545 H         1 EK9401      0.0000 
     36 H          -9.4312    8.1966   11.8928 H         1 EK9401      0.0000 
     37 H         -10.0739    6.3528   13.3419 H         1 EK9401      0.0000 
     38 H          -8.5515    5.9115   16.1305 H         1 EK9401      0.0000 
     39 H          -6.9467    5.1864   15.9333 H         1 EK9401      0.0000 
     40 H         -12.5270    1.7475   12.2832 H         1 EK9401      0.0000 
     41 H         -14.3953    2.9115   15.6948 H         1 EK9401      0.0000 
     42 H         -11.9837    3.5850   15.8608 H         1 EK9401      0.0000 
     43 H         -17.3323    0.2948   11.1120 H         1 EK9401      0.0000 
     44 H         -17.0244    2.8911   16.4925 H         1 EK9401      0.0000 
     45 H         -18.6055    3.5659   18.2137 H         1 EK9401      0.0000 
     46 H         -20.9856    3.4639   17.7835 H         1 EK9401      0.0000 
     47 H         -21.8112    2.6426   15.6577 H         1 EK9401      0.0000 
     48 H         -20.2608    1.9290   13.9373 H         1 EK9401      0.0000 
     49 H         -14.1986    1.2348   10.7039 H         1 EK9401      0.0000 
     50 H         -14.1047   -0.1771   11.4680 H         1 EK9401      0.0000 
     51 H         -15.2546    0.0685   10.3709 H         1 EK9401      0.0000 
     52 H          -7.6063    3.3191   16.8751 H         1 EK9401      0.0000 
@<TRIPOS>BOND
     1    2    1 2    
     2    3    2 am   
     3   13    2 1    
     4    4    3 1    
     5   31    3 1    
     6    5    4 1    
     7   11    4 1    
     8   32    4 1    
     9    6    5 ar   
    10   10    5 ar   
    11    7    6 ar   
    12   33    6 1    
    13    8    7 ar   
    14   34    7 1    
    15    9    8 ar   
    16   35    8 1    
    17   10    9 ar   
    18   36    9 1    
    19   37   10 1    
    20   12   11 1    
    21   38   11 1    
    22   39   11 1    
    23   52   12 1    
    24   14   13 2    
    25   17   13 1    
    26   15   14 1    
    27   40   14 1    
    28   16   15 2    
    29   18   15 1    
    30   17   16 1    
    31   41   16 1    
    32   42   17 1    
    33   19   18 ar   
    34   24   18 ar   
    35   20   19 1    
    36   21   19 ar   
    37   49   20 1    
    38   50   20 1    
    39   51   20 1    
    40   22   21 ar   
    41   43   21 1    
    42   23   22 ar   
    43   24   23 ar   
    44   25   23 1    
    45   26   25 ar   
    46   30   25 ar   
    47   27   26 ar   
    48   44   26 1    
    49   28   27 ar   
    50   45   27 1    
    51   29   28 ar   
    52   46   28 1    
    53   30   29 ar   
    54   47   29 1    
    55   48   30 1    
@<TRIPOS>SUBSTRUCTURE
     1 EK9401      1 GROUP   
@<TRIPOS>SET

