#    Name: 3nd1_SAH_2_INTS_M
#    Modification time : Tue Mar 25 01:18:32 2014

@<TRIPOS>MOLECULE
3nd1_SAH_2_INTS_M
   75     0     9     0     0
SMALL
NO_CHARGES


@<TRIPOS>ATOM
      1 O          54.0840   70.4490   30.2765 O.2       1 ALC1        0.0000 
      2 O          55.0830   70.0320   29.2660 O.2       7 ALL1        0.0000 
      3 O          53.0850   70.8660   31.2870 O.2       4 ALP1        0.0000 
      4 O          55.0445   68.7635   29.7850 O.2       1 ALC1        0.0000 
      5 O          55.0060   67.4950   30.3040 O.2       4 ALP1        0.0000 
      6 O          56.2790   70.7305   29.6155 O.2       1 ALC1        0.0000 
      7 O          57.4750   71.4290   29.9650 O.2       4 ALP1        0.0000 
      8 CA         54.4475   71.7980   27.6690 C.3       3 GLC5        0.0000 
      9 CA         55.3030   69.9560   27.7870 C.3       9 GLL5        0.0000 
     10 CA         53.5920   73.6400   27.5510 C.3       6 GLP5        0.0000 
     11 CA         55.3685   67.3460   26.4130 C.3       3 GLC5        0.0000 
     12 CA         56.0860   68.6870   27.4370 C.3       9 GLL5        0.0000 
     13 CA         54.6510   66.0050   25.3890 C.3       6 GLP5        0.0000 
     14 CA         57.5210   65.9320   28.6195 C.3       3 GLC5        0.0000 
     15 CA         58.4480   67.3390   27.5150 C.3       9 GLL5        0.0000 
     16 CA         56.5940   64.5250   29.7240 C.3       6 GLP5        0.0000 
     17 N          52.6120   71.4245   28.5035 N.am      2 SEC2        0.0000 
     18 N          52.9240   70.2580   27.7210 N.am      8 SEL2        0.0000 
     19 N          52.3000   72.5910   29.2860 N.am      5 SEP2        0.0000 
     20 N          52.9710   70.0260   24.8125 N.am      2 SEC2        0.0000 
     21 N          53.9010   69.8000   25.8800 N.am      8 SEL2        0.0000 
     22 N          52.0410   70.2520   23.7450 N.am      5 SEP2        0.0000 
     23 CA         56.5905   66.4970   25.0970 C.3       3 GLC5        0.0000 
     24 CA         58.5300   66.9890   24.8050 C.3       9 GLL5        0.0000 
     25 CA         59.5055   65.6415   26.0495 C.3       3 GLC5        0.0000 
     26 CA         60.4810   64.2940   27.2940 C.3       6 GLP5        0.0000 
     27 CA         59.7820   64.7920   24.1155 C.3       3 GLC5        0.0000 
     28 CA         59.4010   66.9260   23.5590 C.3       9 GLL5        0.0000 
     29 CA         60.1630   62.6580   24.6720 C.3       6 GLP5        0.0000 
     30 CA         60.3575   68.7615   23.3160 C.3       3 GLC5        0.0000 
     31 CA         61.3140   70.5970   23.0730 C.3       6 GLP5        0.0000 
     32 N          59.5615   64.3730   23.8740 N.am      2 SEC2        0.0000 
     33 N          60.3110   65.8210   23.6040 N.am      8 SEL2        0.0000 
     34 N          58.8120   62.9250   24.1440 N.am      5 SEP2        0.0000 
     35 CA         59.8000   68.1880   21.4525 C.3       3 GLC5        0.0000 
     36 CA         58.3980   66.7760   22.4340 C.3       9 GLL5        0.0000 
     37 CA         61.2020   69.6000   20.4710 C.3       6 GLP5        0.0000 
     38 N          58.3290   64.1900   23.2520 N.am      2 SEC2        0.0000 
     39 N          57.8460   65.4550   22.3600 N.am      8 SEL2        0.0000 
     40 O          58.1900   65.3380   20.9715 O.2       1 ALC1        0.0000 
     41 O          57.8460   65.4550   22.3600 O.2       7 ALL1        0.0000 
     42 O          58.5340   65.2210   19.5830 O.2       4 ALP1        0.0000 
     43 O          58.0535   64.0875   21.5635 O.2       1 ALC1        0.0000 
     44 O          58.2610   62.7200   20.7670 O.2       4 ALP1        0.0000 
     45 CA         55.5795   68.4520   22.7140 C.3       3 GLC5        0.0000 
     46 CA         57.2620   67.6240   22.9410 C.3       9 GLL5        0.0000 
     47 CA         53.8970   69.2800   22.4870 C.3       6 GLP5        0.0000 
     48 CA         55.9565   66.8145   24.1650 C.3       3 GLC5        0.0000 
     49 CA         59.0505   71.5370   21.7935 C.3       3 GLC5        0.0000 
     50 CA         57.2350   70.8770   21.1840 C.3       9 GLL5        0.0000 
     51 CA         60.8660   72.1970   22.4030 C.3       6 GLP5        0.0000 
     52 CA         58.0860   72.1060   18.0555 C.3       3 GLC5        0.0000 
     53 CA         57.1650   71.5600   19.8780 C.3       9 GLL5        0.0000 
     54 CA         59.0070   72.6520   16.2330 C.3       6 GLP5        0.0000 
     55 CA         55.7305   71.6275   18.3205 C.3       3 GLC5        0.0000 
     56 CA         54.2960   71.6950   16.7630 C.3       6 GLP5        0.0000 
     57 O          56.2555   73.6900   18.8865 O.2       1 ALC1        0.0000 
     58 O          57.1570   72.9160   19.7850 O.2       7 ALL1        0.0000 
     59 O          55.3540   74.4640   17.9880 O.2       4 ALP1        0.0000 
     60 N          56.8620   71.6285   17.6020 N.am      2 SEC2        0.0000 
     61 N          57.1060   70.7810   18.7790 N.am      8 SEL2        0.0000 
     62 N          56.6180   72.4760   16.4250 N.am      5 SEP2        0.0000 
     63 CA         55.8865   69.8870   17.4835 C.3       3 GLC5        0.0000 
     64 CA         57.1070   69.4320   18.8450 C.3       9 GLL5        0.0000 
     65 CA         54.6660   70.3420   16.1220 C.3       6 GLP5        0.0000 
     66 CA         59.1545   69.5160   19.6580 C.3       3 GLC5        0.0000 
     67 CA         58.1650   67.9660   18.2540 C.3       3 GLC5        0.0000 
     68 CA         59.2230   66.5000   17.6630 C.3       6 GLP5        0.0000 
     69 CA         55.7660   68.1495   18.7335 C.3       3 GLC5        0.0000 
     70 CA         54.4250   66.8670   18.6220 C.3       6 GLP5        0.0000 
     71 CA         59.2160   69.5030   20.8230 C.3       3 GLC5        0.0000 
     72 CA         57.2300   69.4060   21.1750 C.3       9 GLL5        0.0000 
     73 CA         59.6423   65.9262   27.0132 C.3       3 GLC5        0.0000 
     74 CA         59.1590   67.7780   25.9500 C.3       9 GLL5        0.0000 
     75 CA         55.5648   69.7107   21.8332 C.3       3 GLC5        0.0000 
@<TRIPOS>BOND
@<TRIPOS>SUBSTRUCTURE
     1 ALC1        1 GROUP        1 X    ALC  0     ROOT ALC X 1
     2 SEC2       17 GROUP        1 X    SEC  0     **** SEC X 2
     3 GLC5        8 GROUP        1 X    GLC  0     **** GLC X 6
     4 ALP1        3 GROUP        1 Y    ALP  0     ROOT ALP Y 8
     5 SEP2       19 GROUP        1 Y    SEP  0     **** SEP Y 9
     6 GLP5       10 GROUP        1 Y    GLP  0     **** GLP Y 13
     7 ALL1        2 GROUP        1 Z    ALL  0     ROOT ALL Z 15
     8 SEL2       18 GROUP        1 Z    SEL  0     **** SEL Z 16
     9 GLL5        9 GROUP        1 Z    GLL  0     **** GLL Z 20
@<TRIPOS>SET

