#    Name: 3nd1_SAH_2_ligand
#    Modification time : Tue Mar 25 01:18:32 2014

@<TRIPOS>MOLECULE
3nd1_SAH_2_ligand
   46    48     1     0     0
SMALL
NO_CHARGES


@<TRIPOS>ATOM
      1 N          55.0830   70.0320   29.2660 N.4       1 SAH300      0.0000 
      2 CA         55.3030   69.9560   27.7870 C.3       1 SAH300      0.0000 
      3 CB         56.0860   68.6870   27.4370 C.3       1 SAH300      0.0000 
      4 CG         57.5260   68.7820   27.9350 C.3       1 SAH300      0.0000 
      5 SD         58.4480   67.3390   27.5150 S.3       1 SAH300      0.0000 
      6 C          53.9660   70.0030   27.0960 C.2       1 SAH300      0.0000 
      7 O          52.9240   70.2580   27.7210 O.co2     1 SAH300      0.0000 
      8 OXT        53.9010   69.8000   25.8800 O.co2     1 SAH300      0.0000 
      9 C5'        59.1590   67.7780   25.9500 C.3       1 SAH300      0.0000 
     10 C4'        58.5300   66.9890   24.8050 C.3       1 SAH300      0.0000 
     11 O4'        57.3520   67.6630   24.3690 O.3       1 SAH300      0.0000 
     12 C3'        59.4010   66.9260   23.5590 C.3       1 SAH300      0.0000 
     13 O3'        60.3110   65.8210   23.6040 O.3       1 SAH300      0.0000 
     14 C2'        58.3980   66.7760   22.4340 C.3       1 SAH300      0.0000 
     15 O2'        57.8460   65.4550   22.3600 O.3       1 SAH300      0.0000 
     16 C1'        57.2620   67.6240   22.9410 C.3       1 SAH300      0.0000 
     17 N9         57.3020   69.0260   22.4540 N.pl3     1 SAH300      0.0000 
     18 C8         57.3260   70.1330   23.2250 C.2       1 SAH300      0.0000 
     19 N7         57.2930   71.2600   22.4710 N.2       1 SAH300      0.0000 
     20 C5         57.2350   70.8770   21.1840 C.ar      1 SAH300      0.0000 
     21 C6         57.1650   71.5600   19.8780 C.ar      1 SAH300      0.0000 
     22 N6         57.1570   72.9160   19.7850 N.pl3     1 SAH300      0.0000 
     23 N1         57.1060   70.7810   18.7790 N.ar      1 SAH300      0.0000 
     24 C2         57.1070   69.4320   18.8450 C.ar      1 SAH300      0.0000 
     25 N3         57.1680   68.7470   19.9970 N.ar      1 SAH300      0.0000 
     26 C4         57.2300   69.4060   21.1750 C.ar      1 SAH300      0.0000 
     27 H          55.8875   70.8153   27.4795 H         1 SAH300      0.0000 
     28 H          56.0861   68.5540   26.3566 H         1 SAH300      0.0000 
     29 H          55.6005   67.8291   27.8988 H         1 SAH300      0.0000 
     30 H          57.5957   68.8228   29.0024 H         1 SAH300      0.0000 
     31 H          58.0755   69.5750   27.4714 H         1 SAH300      0.0000 
     32 H          60.1999   67.5649   26.0839 H         1 SAH300      0.0000 
     33 H          58.9766   68.8311   25.8834 H         1 SAH300      0.0000 
     34 H          58.3049   65.9988   25.1208 H         1 SAH300      0.0000 
     35 H          59.8864   67.8694   23.4483 H         1 SAH300      0.0000 
     36 H          58.7514   67.1605   21.5584 H         1 SAH300      0.0000 
     37 H          56.3272   67.1673   22.6492 H         1 SAH300      0.0000 
     38 H          57.3627   70.1276   24.2074 H         1 SAH300      0.0000 
     39 H          57.6034   73.4108   20.5306 H         1 SAH300      0.0000 
     40 H          56.7054   73.2991   18.9792 H         1 SAH300      0.0000 
     41 H          57.0565   68.8852   17.9301 H         1 SAH300      0.0000 
     42 H          54.2335   70.5091   29.4911 H         1 SAH300      0.0000 
     43 H          55.0276   69.1236   29.6804 H         1 SAH300      0.0000 
     44 H          55.8241   70.5199   29.7271 H         1 SAH300      0.0000 
     45 H          59.7489   65.0152   23.4172 H         1 SAH300      0.0000 
     46 H          58.0098   65.1585   21.4191 H         1 SAH300      0.0000 
@<TRIPOS>BOND
     1    2    1 1    
     2   42    1 1    
     3   43    1 1    
     4   44    1 1    
     5    3    2 1    
     6    6    2 1    
     7   27    2 1    
     8    4    3 1    
     9   28    3 1    
    10   29    3 1    
    11    5    4 1    
    12   30    4 1    
    13   31    4 1    
    14    9    5 1    
    15    7    6 ar   
    16    8    6 ar   
    17   10    9 1    
    18   32    9 1    
    19   33    9 1    
    20   11   10 1    
    21   12   10 1    
    22   34   10 1    
    23   16   11 1    
    24   13   12 1    
    25   14   12 1    
    26   35   12 1    
    27   45   13 1    
    28   15   14 1    
    29   16   14 1    
    30   36   14 1    
    31   46   15 1    
    32   17   16 1    
    33   37   16 1    
    34   18   17 1    
    35   26   17 1    
    36   19   18 2    
    37   38   18 1    
    38   20   19 1    
    39   21   20 ar   
    40   26   20 ar   
    41   22   21 1    
    42   23   21 ar   
    43   39   22 1    
    44   40   22 1    
    45   24   23 ar   
    46   25   24 ar   
    47   41   24 1    
    48   26   25 ar   
@<TRIPOS>SUBSTRUCTURE
     1 SAH300      1 GROUP   
@<TRIPOS>SET

