#    Name: 2p3l_SAH_1_INTS_M
#    Modification time : Mon Mar 24 18:16:59 2014

@<TRIPOS>MOLECULE
2p3l_SAH_1_INTS_M
   55     0    12     0     0
SMALL
NO_CHARGES


@<TRIPOS>ATOM
      1 OD1        33.3980  -29.8340   19.6210 O.co2     3 ASC3        0.0000 
      2 OD1        33.2890  -30.1250   21.0610 O.co2    11 ASL3        0.0000 
      3 OD1        33.5070  -29.5430   18.1810 O.co2     7 ASP3        0.0000 
      4 O          33.3980  -29.8340   19.6210 O.2       1 ALC1        0.0000 
      5 O          33.2890  -30.1250   21.0610 O.2       9 ALL1        0.0000 
      6 O          33.5070  -29.5430   18.1810 O.2       5 ALP1        0.0000 
      7 CA         34.4920  -29.9205   21.7685 C.3       4 GLC5        0.0000 
      8 CA         33.1410  -31.5870   21.2630 C.3      12 GLL5        0.0000 
      9 CA         35.8430  -28.2540   22.2740 C.3       8 GLP5        0.0000 
     10 CA         31.6840  -30.0635   18.8230 C.3       4 GLC5        0.0000 
     11 CA         31.8220  -31.8600   19.1750 C.3      12 GLL5        0.0000 
     12 CA         31.5460  -28.2670   18.4710 C.3       8 GLP5        0.0000 
     13 N          35.5715  -33.7995   22.6510 N.am      2 SEC2        0.0000 
     14 N          34.2840  -33.3640   22.4880 N.am     10 SEL2        0.0000 
     15 N          36.8590  -34.2350   22.8140 N.am      6 SEP2        0.0000 
     16 N          34.3985  -32.9250   24.1115 N.am      2 SEC2        0.0000 
     17 N          34.5130  -32.4860   25.7350 N.am      6 SEP2        0.0000 
     18 CA         27.4050  -31.7785   19.9630 C.3       4 GLC5        0.0000 
     19 CA         28.2780  -33.2840   18.9510 C.3      12 GLL5        0.0000 
     20 CA         26.5320  -30.2730   20.9750 C.3       8 GLP5        0.0000 
     21 CA         28.8995  -34.0310   20.9375 C.3       4 GLC5        0.0000 
     22 CA         29.5210  -34.7780   22.9240 C.3       8 GLP5        0.0000 
     23 CA         26.2775  -31.9395   19.8355 C.3       4 GLC5        0.0000 
     24 CA         26.0230  -33.6060   18.6960 C.3      12 GLL5        0.0000 
     25 CA         21.9685  -33.6660   17.1535 C.3       4 GLC5        0.0000 
     26 CA         22.8480  -32.1580   17.7020 C.3      12 GLL5        0.0000 
     27 CA         21.0890  -35.1740   16.6050 C.3       8 GLP5        0.0000 
     28 CA         21.6200  -33.5060   18.6145 C.3       4 GLC5        0.0000 
     29 CA         21.6410  -31.6290   18.1670 C.3      12 GLL5        0.0000 
     30 CA         21.5990  -35.3830   19.0620 C.3       8 GLP5        0.0000 
     31 CA         19.8480  -31.7625   19.4520 C.3       4 GLC5        0.0000 
     32 CA         18.0550  -31.8960   20.7370 C.3       8 GLP5        0.0000 
     33 CA         21.5060  -29.8215   18.8210 C.3       4 GLC5        0.0000 
     34 CA         21.3710  -28.0140   19.4750 C.3       8 GLP5        0.0000 
     35 O          19.2485  -31.0595   17.7615 O.2       1 ALC1        0.0000 
     36 O          20.6890  -31.2250   17.3440 O.2       9 ALL1        0.0000 
     37 O          17.8080  -30.8940   18.1790 O.2       5 ALP1        0.0000 
     38 N          20.3065  -30.6390   20.0980 N.am      2 SEC2        0.0000 
     39 N          21.4190  -31.5330   19.5270 N.am     10 SEL2        0.0000 
     40 N          19.1940  -29.7450   20.6690 N.am      6 SEP2        0.0000 
     41 CA         23.2840  -32.5255   21.9145 C.3       4 GLC5        0.0000 
     42 CA         22.3580  -31.9410   20.4390 C.3      12 GLL5        0.0000 
     43 CA         24.2100  -33.1100   23.3900 C.3       8 GLP5        0.0000 
     44 CA         21.9785  -33.6620   19.7505 C.3       4 GLC5        0.0000 
     45 CA         20.2065  -31.9185   20.5880 C.3       4 GLC5        0.0000 
     46 CA         22.0705  -30.2885   21.1810 C.3       4 GLC5        0.0000 
     47 CA         21.7830  -28.6360   21.9230 C.3       8 GLP5        0.0000 
     48 N          23.3180  -33.5830   20.9495 N.am      2 SEC2        0.0000 
     49 N          23.5440  -32.4740   19.9870 N.am     10 SEL2        0.0000 
     50 N          23.0920  -34.6920   21.9120 N.am      6 SEP2        0.0000 
     51 CA         25.1555  -31.4210   19.8130 C.3       4 GLC5        0.0000 
     52 CA         23.7790  -32.5690   18.6510 C.3      12 GLL5        0.0000 
     53 CA         22.6890  -33.9760   18.8565 C.3       4 GLC5        0.0000 
     54 CA         23.8889  -30.4431   18.1634 C.3       4 GLC5        0.0000 
     55 CA         24.7660  -28.6550   18.0340 C.3       8 GLP5        0.0000 
@<TRIPOS>BOND
@<TRIPOS>SUBSTRUCTURE
     1 ALC1        4 GROUP        1 X    ALC  0     ROOT ALC X 1
     2 SEC2       13 GROUP        1 X    SEC  0     **** SEC X 2
     3 ASC3        1 GROUP        1 X    ASC  0     **** ASC X 3
     4 GLC5        7 GROUP        1 X    GLC  0     **** GLC X 6
     5 ALP1        6 GROUP        1 Y    ALP  0     ROOT ALP Y 8
     6 SEP2       15 GROUP        1 Y    SEP  0     **** SEP Y 9
     7 ASP3        3 GROUP        1 Y    ASP  0     **** ASP Y 10
     8 GLP5        9 GROUP        1 Y    GLP  0     **** GLP Y 13
     9 ALL1        5 GROUP        1 Z    ALL  0     ROOT ALL Z 15
    10 SEL2       14 GROUP        1 Z    SEL  0     **** SEL Z 16
    11 ASL3        2 GROUP        1 Z    ASL  0     **** ASL Z 17
    12 GLL5        8 GROUP        1 Z    GLL  0     **** GLL Z 20
@<TRIPOS>SET

