#    Name: 2p3l_SAH_1_ligand
#    Modification time : Mon Mar 24 18:16:59 2014

@<TRIPOS>MOLECULE
2p3l_SAH_1_ligand
   46    48     1     0     0
SMALL
NO_CHARGES


@<TRIPOS>ATOM
      1 N          33.2890  -30.1250   21.0610 N.4       1 SAH1001     0.0000 
      2 CA         33.1410  -31.5870   21.2630 C.3       1 SAH1001     0.0000 
      3 CB         33.0970  -32.2540   19.9080 C.3       1 SAH1001     0.0000 
      4 CG         31.8220  -31.8600   19.1750 C.3       1 SAH1001     0.0000 
      5 SD         30.9810  -33.3750   18.7260 S.3       1 SAH1001     0.0000 
      6 C          34.2670  -32.1670   22.1100 C.2       1 SAH1001     0.0000 
      7 O          35.1770  -31.4010   22.4260 O.co2     1 SAH1001     0.0000 
      8 OXT        34.2840  -33.3640   22.4880 O.co2     1 SAH1001     0.0000 
      9 C5'        29.4260  -32.5390   18.2590 C.3       1 SAH1001     0.0000 
     10 C4'        28.2780  -33.2840   18.9510 C.3       1 SAH1001     0.0000 
     11 O4'        27.0370  -32.6240   18.7880 O.3       1 SAH1001     0.0000 
     12 C3'        28.0990  -34.7070   18.4320 C.3       1 SAH1001     0.0000 
     13 O3'        28.4010  -35.6010   19.4800 O.3       1 SAH1001     0.0000 
     14 C2'        26.6420  -34.8300   18.0370 C.3       1 SAH1001     0.0000 
     15 O2'        26.1040  -36.0260   18.5500 O.3       1 SAH1001     0.0000 
     16 C1'        26.0230  -33.6060   18.6960 C.3       1 SAH1001     0.0000 
     17 N9         24.8430  -33.0770   17.9770 N.pl3     1 SAH1001     0.0000 
     18 C8         24.5860  -32.9680   16.6250 C.2       1 SAH1001     0.0000 
     19 N7         23.3640  -32.4140   16.4740 N.2       1 SAH1001     0.0000 
     20 C5         22.8480  -32.1580   17.7020 C.ar      1 SAH1001     0.0000 
     21 C6         21.6410  -31.6290   18.1670 C.ar      1 SAH1001     0.0000 
     22 N6         20.6890  -31.2250   17.3440 N.pl3     1 SAH1001     0.0000 
     23 N1         21.4190  -31.5330   19.5270 N.ar      1 SAH1001     0.0000 
     24 C2         22.3580  -31.9410   20.4390 C.ar      1 SAH1001     0.0000 
     25 N3         23.5440  -32.4740   19.9870 N.ar      1 SAH1001     0.0000 
     26 C4         23.7790  -32.5690   18.6510 C.ar      1 SAH1001     0.0000 
     27 H          32.1958  -31.7844   21.7635 H         1 SAH1001     0.0000 
     28 H          33.1196  -33.3345   20.0309 H         1 SAH1001     0.0000 
     29 H          33.9580  -31.9448   19.3196 H         1 SAH1001     0.0000 
     30 H          31.9948  -31.4007   18.2449 H         1 SAH1001     0.0000 
     31 H          31.1187  -31.3708   19.7849 H         1 SAH1001     0.0000 
     32 H          29.4261  -32.6351   17.2145 H         1 SAH1001     0.0000 
     33 H          29.5791  -31.5659   18.6193 H         1 SAH1001     0.0000 
     34 H          28.5231  -33.3638   20.0176 H         1 SAH1001     0.0000 
     35 H          28.7066  -34.8321   17.5781 H         1 SAH1001     0.0000 
     36 H          26.5700  -34.7225   16.9915 H         1 SAH1001     0.0000 
     37 H          25.7193  -33.9098   19.7076 H         1 SAH1001     0.0000 
     38 H          25.1827  -33.2429   15.9286 H         1 SAH1001     0.0000 
     39 H          20.9874  -30.9339   16.4351 H         1 SAH1001     0.0000 
     40 H          19.7567  -31.2472   17.7050 H         1 SAH1001     0.0000 
     41 H          22.1811  -31.8511   21.4475 H         1 SAH1001     0.0000 
     42 H          34.1241  -29.7742   21.4848 H         1 SAH1001     0.0000 
     43 H          33.3301  -29.8864   20.0907 H         1 SAH1001     0.0000 
     44 H          32.5240  -29.6162   21.4558 H         1 SAH1001     0.0000 
     45 H          27.5581  -36.1178   19.6300 H         1 SAH1001     0.0000 
     46 H          25.3613  -35.7373   19.1542 H         1 SAH1001     0.0000 
@<TRIPOS>BOND
     1    2    1 1    
     2   42    1 1    
     3   43    1 1    
     4   44    1 1    
     5    3    2 1    
     6    6    2 1    
     7   27    2 1    
     8    4    3 1    
     9   28    3 1    
    10   29    3 1    
    11    5    4 1    
    12   30    4 1    
    13   31    4 1    
    14    9    5 1    
    15    7    6 ar   
    16    8    6 ar   
    17   10    9 1    
    18   32    9 1    
    19   33    9 1    
    20   11   10 1    
    21   12   10 1    
    22   34   10 1    
    23   16   11 1    
    24   13   12 1    
    25   14   12 1    
    26   35   12 1    
    27   45   13 1    
    28   15   14 1    
    29   16   14 1    
    30   36   14 1    
    31   46   15 1    
    32   17   16 1    
    33   37   16 1    
    34   18   17 1    
    35   26   17 1    
    36   19   18 2    
    37   38   18 1    
    38   20   19 1    
    39   21   20 ar   
    40   26   20 ar   
    41   22   21 1    
    42   23   21 ar   
    43   39   22 1    
    44   40   22 1    
    45   24   23 ar   
    46   25   24 ar   
    47   41   24 1    
    48   26   25 ar   
@<TRIPOS>SUBSTRUCTURE
     1 SAH1001     1 GROUP   
@<TRIPOS>SET

