#    Name: 4upj_U04_1_INTS_M
#    Modification time : Tue Mar 25 13:43:26 2014

@<TRIPOS>MOLECULE
4upj_U04_1_INTS_M
   85     0     9     0     0
SMALL
NO_CHARGES


@<TRIPOS>ATOM
      1 CA          1.0530   16.8725   22.3420 C.3       3 GLC5        0.0000 
      2 CA          1.8360   17.0350   20.3450 C.3       9 GLL5        0.0000 
      3 CA          0.2700   16.7100   24.3390 C.3       6 GLP5        0.0000 
      4 CA          6.2560   17.2495   20.6720 C.3       3 GLC5        0.0000 
      5 CA          4.5010   16.7050   19.4670 C.3       9 GLL5        0.0000 
      6 CA          8.0110   17.7940   21.8770 C.3       6 GLP5        0.0000 
      7 CA          5.8740   19.0465   19.3980 C.3       3 GLC5        0.0000 
      8 CA          4.0090   18.0010   19.6990 C.3       9 GLL5        0.0000 
      9 CA          7.7390   20.0920   19.0970 C.3       6 GLP5        0.0000 
     10 CA          3.3815   18.3025   22.2500 C.3       3 GLC5        0.0000 
     11 CA          2.6670   18.1600   20.1320 C.3       9 GLL5        0.0000 
     12 CA          4.0960   18.4450   24.3680 C.3       6 GLP5        0.0000 
     13 CA         -2.3705   20.2885   23.3085 C.3       3 GLC5        0.0000 
     14 CA         -0.7630   21.8120   23.3350 C.3       9 GLL5        0.0000 
     15 CA         -3.9780   18.7650   23.2820 C.3       6 GLP5        0.0000 
     16 CA         -0.3575   23.8290   18.3845 C.3       3 GLC5        0.0000 
     17 CA         -0.5230   21.7570   19.0640 C.3       9 GLL5        0.0000 
     18 CA         -0.1920   25.9010   17.7050 C.3       6 GLP5        0.0000 
     19 CA         -2.3320   22.1475   18.0480 C.3       3 GLC5        0.0000 
     20 CA         -4.1410   22.5380   17.0320 C.3       6 GLP5        0.0000 
     21 CA         -0.6380   21.2115   17.5295 C.3       3 GLC5        0.0000 
     22 CA         -0.7530   20.6660   15.9950 C.3       6 GLP5        0.0000 
     23 CA         -1.4550   26.5060   24.7030 C.3       3 GLC5        0.0000 
     24 CA         -2.4350   24.8150   23.8110 C.3       9 GLL5        0.0000 
     25 CA         -0.4750   28.1970   25.5950 C.3       6 GLP5        0.0000 
     26 CA         -4.7085   20.4770   22.1075 C.3       3 GLC5        0.0000 
     27 CA         -5.4390   22.1890   20.9330 C.3       9 GLL5        0.0000 
     28 CA         -4.8860   20.1225   20.2685 C.3       3 GLC5        0.0000 
     29 CA         -4.3330   18.0560   19.6040 C.3       6 GLP5        0.0000 
     30 CA         -6.6505   21.2500   19.3600 C.3       3 GLC5        0.0000 
     31 CA         -7.8620   20.3110   17.7870 C.3       6 GLP5        0.0000 
     32 CA         -4.7900   22.3635   18.9825 C.3       3 GLC5        0.0000 
     33 CA         -7.0020   21.4185   23.7835 C.3       3 GLC5        0.0000 
     34 CA         -7.6440   22.4190   21.9500 C.3       9 GLL5        0.0000 
     35 CA         -6.3600   20.4180   25.6170 C.3       6 GLP5        0.0000 
     36 CA         -8.9400   21.5570   23.2390 C.3       3 GLC5        0.0000 
     37 CA        -10.2360   20.6950   24.5280 C.3       6 GLP5        0.0000 
     38 CA         -5.2815   24.8735   19.0195 C.3       3 GLC5        0.0000 
     39 CA         -6.8070   24.2180   20.4740 C.3       9 GLL5        0.0000 
     40 CA         -3.7560   25.5290   17.5650 C.3       6 GLP5        0.0000 
     41 O          -3.2705   22.0380   24.6695 O.2       1 ALC1        0.0000 
     42 O          -1.9470   22.8330   25.0940 O.2       7 ALL1        0.0000 
     43 O          -4.5940   21.2430   24.2450 O.2       4 ALP1        0.0000 
     44 N          -2.4770   18.3675   21.1665 N.am      2 SEC2        0.0000 
     45 N          -1.0960   18.5020   21.3720 N.am      8 SEL2        0.0000 
     46 N          -3.8580   18.2330   20.9610 N.am      5 SEP2        0.0000 
     47 N          -0.2430   16.0085   21.5950 N.am      2 SEC2        0.0000 
     48 N           0.5030   17.1370   20.7830 N.am      8 SEL2        0.0000 
     49 N          -0.9890   14.8800   22.4070 N.am      5 SEP2        0.0000 
     50 N           3.9900   20.6220   20.9050 N.am      2 SEC2        0.0000 
     51 N           2.9040   20.5790   20.1950 N.am      8 SEL2        0.0000 
     52 N           5.0760   20.6650   21.6150 N.am      5 SEP2        0.0000 
     53 O           2.9410   21.3000   19.0645 O.2       1 ALC1        0.0000 
     54 O           2.9040   20.5790   20.1950 O.2       7 ALL1        0.0000 
     55 O           2.9780   22.0210   17.9340 O.2       4 ALP1        0.0000 
     56 N           0.0805   25.5955   25.1310 N.am      2 SEC2        0.0000 
     57 N          -0.8740   24.7050   25.6240 N.am      8 SEL2        0.0000 
     58 N           1.0350   26.4860   24.6380 N.am      5 SEP2        0.0000 
     59 N           0.1995   25.4035   26.4315 N.am      2 SEC2        0.0000 
     60 N           1.2730   26.1020   27.2390 N.am      5 SEP2        0.0000 
     61 N          -4.2490   26.8585   21.2480 N.am      2 SEC2        0.0000 
     62 N          -4.3730   25.3070   21.7190 N.am      8 SEL2        0.0000 
     63 N          -4.1250   28.4100   20.7770 N.am      5 SEP2        0.0000 
     64 N          -3.5050   26.1025   20.8085 N.am      2 SEC2        0.0000 
     65 N          -2.6370   26.8980   19.8980 N.am      5 SEP2        0.0000 
     66 CA          0.8057   15.0585   20.2707 C.3       3 GLC5        0.0000 
     67 CA         -0.4840   13.7330   20.3180 C.3       6 GLP5        0.0000 
     68 CA          4.7494   15.2732   20.9209 C.3       3 GLC5        0.0000 
     69 CA          5.7400   14.3660   22.1650 C.3       6 GLP5        0.0000 
     70 CA          5.1225   17.8210   17.9165 C.3       3 GLC5        0.0000 
     71 CA          5.9900   18.2890   16.2500 C.3       6 GLP5        0.0000 
     72 CA          1.7277   22.2135   23.6547 C.3       3 GLC5        0.0000 
     73 CA          1.2700   20.5090   23.6330 C.3       9 GLL5        0.0000 
     74 CA          2.6740   23.6330   24.1050 C.3       6 GLP5        0.0000 
     75 CA          2.6535   19.5225   24.3525 C.3       3 GLC5        0.0000 
     76 CA          0.7405   18.6550   24.3380 C.3       3 GLC5        0.0000 
     77 CA          1.6452   22.3490   24.7110 C.3       3 GLC5        0.0000 
     78 CA          1.1520   20.6910   25.0410 C.3       9 GLL5        0.0000 
     79 CA          1.2243   20.3065   27.1565 C.3       3 GLC5        0.0000 
     80 CA          1.8320   19.5480   28.9960 C.3       6 GLP5        0.0000 
     81 CA         -1.6125   21.4608   26.5605 C.3       3 GLC5        0.0000 
     82 CA          0.0810   21.4390   25.5930 C.3       9 GLL5        0.0000 
     83 CA         -2.8230   21.1990   27.9670 C.3       6 GLP5        0.0000 
     84 CA          0.9250   22.7710   24.0650 C.3       3 GLC5        0.0000 
     85 CA         -0.8850   22.0060   24.7150 C.3       9 GLL5        0.0000 
@<TRIPOS>BOND
@<TRIPOS>SUBSTRUCTURE
     1 ALC1       41 GROUP        1 X    ALC  0     ROOT ALC X 1
     2 SEC2       44 GROUP        1 X    SEC  0     **** SEC X 2
     3 GLC5        1 GROUP        1 X    GLC  0     **** GLC X 6
     4 ALP1       43 GROUP        1 Y    ALP  0     ROOT ALP Y 8
     5 SEP2       46 GROUP        1 Y    SEP  0     **** SEP Y 9
     6 GLP5        3 GROUP        1 Y    GLP  0     **** GLP Y 13
     7 ALL1       42 GROUP        1 Z    ALL  0     ROOT ALL Z 15
     8 SEL2       45 GROUP        1 Z    SEL  0     **** SEL Z 16
     9 GLL5        2 GROUP        1 Z    GLL  0     **** GLL Z 20
@<TRIPOS>SET

