#    Name: 4upj_U04_1_ligand
#    Modification time : Tue Mar 25 13:43:26 2014

@<TRIPOS>MOLECULE
4upj_U04_1_ligand
   61    63     1     0     0
SMALL
NO_CHARGES


@<TRIPOS>ATOM
      1 CA          0.8650   19.5620   20.8380 C.2       1 U04100      0.0000 
      2 CA2         0.0520   18.3950   21.0230 C.2       1 U04100      0.0000 
      3 CA3         1.8360   17.0350   20.3450 C.ar      1 U04100      0.0000 
      4 CA4         2.3550   15.7330   20.1020 C.ar      1 U04100      0.0000 
      5 CA5         3.6780   15.5790   19.6710 C.ar      1 U04100      0.0000 
      6 CA6         4.5010   16.7050   19.4670 C.ar      1 U04100      0.0000 
      7 CA7         4.0090   18.0010   19.6990 C.ar      1 U04100      0.0000 
      8 CA8         2.6670   18.1600   20.1320 C.ar      1 U04100      0.0000 
      9 CA9         2.1690   19.4360   20.3910 C.2       1 U04100      0.0000 
     10 CB          0.3890   20.9390   21.2690 C.3       1 U04100      0.0000 
     11 CB1         0.2930   21.0790   22.7760 C.ar      1 U04100      0.0000 
     12 CB2         1.2700   20.5090   23.6330 C.ar      1 U04100      0.0000 
     13 CB3         1.1520   20.6910   25.0410 C.ar      1 U04100      0.0000 
     14 CB4         0.0810   21.4390   25.5930 C.ar      1 U04100      0.0000 
     15 CB5        -0.8850   22.0060   24.7150 C.ar      1 U04100      0.0000 
     16 CB6        -0.7630   21.8120   23.3350 C.ar      1 U04100      0.0000 
     17 CB7        -0.8500   21.4480   20.4990 C.3       1 U04100      0.0000 
     18 CB8        -0.5230   21.7570   19.0640 C.3       1 U04100      0.0000 
     19 CG1        -1.6690   24.1180   24.9460 C.2       1 U04100      0.0000 
     20 CG2        -2.4350   24.8150   23.8110 C.3       1 U04100      0.0000 
     21 CG3        -4.6170   24.5680   22.6420 C.2       1 U04100      0.0000 
     22 CG4        -6.3910   23.2020   21.5680 C.3       1 U04100      0.0000 
     23 CG5        -5.4390   22.1890   20.9330 C.3       1 U04100      0.0000 
     24 CG6        -7.6440   22.4190   21.9500 C.3       1 U04100      0.0000 
     25 CG7        -6.8070   24.2180   20.4740 C.3       1 U04100      0.0000 
     26 NB5        -1.9470   22.8330   25.0940 N.am      1 U04100      0.0000 
     27 NG2        -3.8360   24.3450   23.7130 N.am      1 U04100      0.0000 
     28 OA2        -1.0960   18.5020   21.3720 O.2       1 U04100      0.0000 
     29 OA3         0.5030   17.1370   20.7830 O.3       1 U04100      0.0000 
     30 OA9         2.9040   20.5790   20.1950 O.3       1 U04100      0.0000 
     31 OG1        -0.8740   24.7050   25.6240 O.2       1 U04100      0.0000 
     32 OG3        -4.3730   25.3070   21.7190 O.2       1 U04100      0.0000 
     33 OG4        -5.8060   23.8580   22.7210 O.3       1 U04100      0.0000 
     34 H           1.7560   14.9191   20.2445 H         1 U04100      0.0000 
     35 H           4.0563   14.6389   19.5007 H         1 U04100      0.0000 
     36 H           5.4675   16.5756   19.1463 H         1 U04100      0.0000 
     37 H           4.5990   18.8139   19.5609 H         1 U04100      0.0000 
     38 H           1.2391   21.6555   20.9570 H         1 U04100      0.0000 
     39 H           2.0430   19.9786   23.2506 H         1 U04100      0.0000 
     40 H           1.8529   20.2741   25.6619 H         1 U04100      0.0000 
     41 H           0.0031   21.5684   26.5917 H         1 U04100      0.0000 
     42 H          -1.4782   22.2244   22.7024 H         1 U04100      0.0000 
     43 H          -1.2223   22.3456   20.9997 H         1 U04100      0.0000 
     44 H          -1.6264   20.6802   20.5490 H         1 U04100      0.0000 
     45 H          -1.9009   24.6245   22.8699 H         1 U04100      0.0000 
     46 H          -2.4068   25.8981   23.9934 H         1 U04100      0.0000 
     47 H          -2.7982   22.4587   25.4315 H         1 U04100      0.0000 
     48 H          -4.1833   23.8183   24.5482 H         1 U04100      0.0000 
     49 H           0.1821   22.4619   18.9873 H         1 U04100      0.0000 
     50 H          -0.1855   20.9508   18.5781 H         1 U04100      0.0000 
     51 H          -1.3233   22.0872   18.5635 H         1 U04100      0.0000 
     52 H          -4.5813   22.6151   20.6454 H         1 U04100      0.0000 
     53 H          -5.2024   21.4532   21.5676 H         1 U04100      0.0000 
     54 H          -5.8393   21.7602   20.1231 H         1 U04100      0.0000 
     55 H          -7.4409   21.6879   22.6013 H         1 U04100      0.0000 
     56 H          -8.3339   23.0059   22.3739 H         1 U04100      0.0000 
     57 H          -8.0720   21.9916   21.1537 H         1 U04100      0.0000 
     58 H          -6.0178   24.7052   20.1002 H         1 U04100      0.0000 
     59 H          -7.2655   23.7702   19.7064 H         1 U04100      0.0000 
     60 H          -7.4368   24.9089   20.8290 H         1 U04100      0.0000 
     61 H           2.7426   20.8299   19.2406 H         1 U04100      0.0000 
@<TRIPOS>BOND
     1    2    1 1    
     2    9    1 2    
     3   10    1 1    
     4   28    2 2    
     5   29    2 1    
     6    4    3 ar   
     7    8    3 ar   
     8   29    3 1    
     9    5    4 ar   
    10   34    4 1    
    11    6    5 ar   
    12   35    5 1    
    13    7    6 ar   
    14   36    6 1    
    15    8    7 ar   
    16   37    7 1    
    17    9    8 1    
    18   30    9 1    
    19   11   10 1    
    20   17   10 1    
    21   38   10 1    
    22   12   11 ar   
    23   16   11 ar   
    24   13   12 ar   
    25   39   12 1    
    26   14   13 ar   
    27   40   13 1    
    28   15   14 ar   
    29   41   14 1    
    30   16   15 ar   
    31   26   15 1    
    32   42   16 1    
    33   18   17 1    
    34   43   17 1    
    35   44   17 1    
    36   49   18 1    
    37   50   18 1    
    38   51   18 1    
    39   20   19 1    
    40   26   19 am   
    41   31   19 2    
    42   27   20 1    
    43   45   20 1    
    44   46   20 1    
    45   27   21 am   
    46   32   21 2    
    47   33   21 1    
    48   23   22 1    
    49   24   22 1    
    50   25   22 1    
    51   33   22 1    
    52   52   23 1    
    53   53   23 1    
    54   54   23 1    
    55   55   24 1    
    56   56   24 1    
    57   57   24 1    
    58   58   25 1    
    59   59   25 1    
    60   60   25 1    
    61   47   26 1    
    62   48   27 1    
    63   61   30 1    
@<TRIPOS>SUBSTRUCTURE
     1 U04100      1 GROUP   
@<TRIPOS>SET

