#    Name: 1fmw_ATP_1_INTS_M
#    Modification time : Tue Mar 25 01:33:10 2014

@<TRIPOS>MOLECULE
1fmw_ATP_1_INTS_M
   73     0    15     0     0
SMALL
NO_CHARGES


@<TRIPOS>ATOM
      1 Zn         33.0965   59.7415   21.2945 Zn        4 ZIC7        0.0000 
      2 Zn         33.0680   59.7790   22.4140 Zn       14 ZIL7        0.0000 
      3 Zn         33.1250   59.7040   20.1750 Zn        9 ZIP7        0.0000 
      4 N          33.1875   60.4715   23.9770 N.am      2 SEC2        0.0000 
      5 N          33.0680   59.7790   22.4140 N.am     12 SEL2        0.0000 
      6 N          33.3070   61.1640   25.5400 N.am      7 SEP2        0.0000 
      7 N          32.9905   61.1675   22.5285 N.am      2 SEC2        0.0000 
      8 N          32.9130   62.5560   22.6430 N.am      7 SEP2        0.0000 
      9 N          33.5250   58.5130   25.6095 N.am      2 SEC2        0.0000 
     10 N          33.5890   59.0100   24.5840 N.am     12 SEL2        0.0000 
     11 N          33.4610   58.0160   26.6350 N.am      7 SEP2        0.0000 
     12 N          34.3675   57.5630   24.5470 N.am      2 SEC2        0.0000 
     13 N          35.1460   56.1160   24.5100 N.am      7 SEP2        0.0000 
     14 N          35.1480   59.1225   24.1310 N.am      2 SEC2        0.0000 
     15 N          36.7070   59.2350   23.6780 N.am      7 SEP2        0.0000 
     16 N          33.4480   60.0870   25.0620 N.am      2 SEC2        0.0000 
     17 NZ         31.5530   56.5600   22.6545 N.4       3 LYC4        0.0000 
     18 NZ         31.8760   57.7540   23.3260 N.4      13 LYL4        0.0000 
     19 NZ         31.2300   55.3660   21.9830 N.4       8 LYP4        0.0000 
     20 N          31.5530   56.5600   22.6545 N.am      2 SEC2        0.0000 
     21 N          31.8760   57.7540   23.3260 N.am     12 SEL2        0.0000 
     22 N          31.2300   55.3660   21.9830 N.am      7 SEP2        0.0000 
     23 Zn         33.6435   58.8055   20.1705 Zn        4 ZIC7        0.0000 
     24 Zn         34.1620   57.9070   20.1660 Zn       14 ZIL7        0.0000 
     25 N          34.2420   57.6755   18.6135 N.am      2 SEC2        0.0000 
     26 N          34.1620   57.9070   20.1660 N.am     12 SEL2        0.0000 
     27 N          34.3220   57.4440   17.0610 N.am      7 SEP2        0.0000 
     28 NZ         32.6505   55.4695   21.4705 N.4       3 LYC4        0.0000 
     29 NZ         34.0710   55.5730   20.9580 N.4      13 LYL4        0.0000 
     30 N          35.2540   54.7955   20.7360 N.am      2 SEC2        0.0000 
     31 N          34.0710   55.5730   20.9580 N.am     12 SEL2        0.0000 
     32 N          36.4370   54.0180   20.5140 N.am      7 SEP2        0.0000 
     33 N          34.4175   55.2480   19.6805 N.am      2 SEC2        0.0000 
     34 N          34.7640   54.9230   18.4030 N.am      7 SEP2        0.0000 
     35 N          32.6505   55.4695   21.4705 N.am      2 SEC2        0.0000 
     36 N          34.7345   56.8410   23.5555 N.am      2 SEC2        0.0000 
     37 N          34.3230   57.5660   22.6010 N.am     12 SEL2        0.0000 
     38 N          35.5150   58.4005   23.1395 N.am      2 SEC2        0.0000 
     39 N          37.0530   59.1270   22.0480 N.am      2 SEC2        0.0000 
     40 N          37.3990   59.0190   20.4180 N.am     12 SEL2        0.0000 
     41 N          36.9685   57.4770   17.2760 N.am      2 SEC2        0.0000 
     42 N          37.2050   57.2860   18.6760 N.am     12 SEL2        0.0000 
     43 N          36.7320   57.6680   15.8760 N.am      7 SEP2        0.0000 
     44 N          36.3585   55.4005   20.7535 N.am      2 SEC2        0.0000 
     45 N          36.2800   56.7830   20.9930 N.am     12 SEL2        0.0000 
     46 CA         37.9500   56.4710   23.2145 C.3       5 GLC5        0.0000 
     47 CA         39.3500   57.1790   21.9980 C.3      15 GLL5        0.0000 
     48 CA         36.5500   55.7630   24.4310 C.3      10 GLP5        0.0000 
     49 CA         41.5655   55.8990   23.1905 C.3       5 GLC5        0.0000 
     50 CA         40.8510   57.4450   21.7680 C.3      15 GLL5        0.0000 
     51 CA         42.2800   54.3530   24.6130 C.3      10 GLP5        0.0000 
     52 N          41.0195   54.8165   21.6240 N.am      2 SEC2        0.0000 
     53 N          41.5560   56.2380   21.3990 N.am     12 SEL2        0.0000 
     54 N          40.4830   53.3950   21.8490 N.am      7 SEP2        0.0000 
     55 CA         42.5395   52.3090   17.9960 C.3       5 GLC5        0.0000 
     56 CA         42.0250   53.9920   17.4480 C.3      15 GLL5        0.0000 
     57 CA         43.0540   50.6260   18.5440 C.3      10 GLP5        0.0000 
     58 CA         43.5860   52.2285   17.1980 C.3       5 GLC5        0.0000 
     59 CA         42.7440   53.3990   16.3220 C.3      15 GLL5        0.0000 
     60 CA         44.4280   51.0580   18.0740 C.3      10 GLP5        0.0000 
     61 O          42.1710   52.2405   14.0330 O.2       1 ALC1        0.0000 
     62 O          42.2260   52.5780   15.3870 O.2      11 ALL1        0.0000 
     63 O          42.1160   51.9030   12.6790 O.2       6 ALP1        0.0000 
     64 CA         44.5055   52.7980   17.6405 C.3       5 GLC5        0.0000 
     65 CA         44.5830   54.5380   17.2070 C.3      15 GLL5        0.0000 
     66 CA         46.7690   54.4355   16.8950 C.3       5 GLC5        0.0000 
     67 CA         48.9550   54.3330   16.5830 C.3      10 GLP5        0.0000 
     68 CA         43.5795   52.9315   18.1905 C.3       5 GLC5        0.0000 
     69 CA         42.7310   54.8050   18.3070 C.3      15 GLL5        0.0000 
     70 CA         40.8550   57.4008   18.3882 C.3       5 GLC5        0.0000 
     71 CA         41.6530   57.7120   19.6330 C.3      15 GLL5        0.0000 
     72 CA         39.9420   57.5860   16.6460 C.3      10 GLP5        0.0000 
     73 CA         41.1600   55.9922   17.2617 C.3       5 GLC5        0.0000 
@<TRIPOS>BOND
@<TRIPOS>SUBSTRUCTURE
     1 ALC1       61 GROUP        1 X    ALC  0     ROOT ALC X 1
     2 SEC2        4 GROUP        1 X    SEC  0     **** SEC X 2
     3 LYC4       17 GROUP        1 X    LYC  0     **** LYC X 4
     4 ZIC7        1 GROUP        1 X    ZIC  0     **** ZIC X 5
     5 GLC5       46 GROUP        1 X    GLC  0     **** GLC X 6
     6 ALP1       63 GROUP        1 Y    ALP  0     ROOT ALP Y 8
     7 SEP2        6 GROUP        1 Y    SEP  0     **** SEP Y 9
     8 LYP4       19 GROUP        1 Y    LYP  0     **** LYP Y 11
     9 ZIP7        3 GROUP        1 Y    ZIP  0     **** ZIP Y 12
    10 GLP5       48 GROUP        1 Y    GLP  0     **** GLP Y 13
    11 ALL1       62 GROUP        1 Z    ALL  0     ROOT ALL Z 15
    12 SEL2        5 GROUP        1 Z    SEL  0     **** SEL Z 16
    13 LYL4       18 GROUP        1 Z    LYL  0     **** LYL Z 18
    14 ZIL7        2 GROUP        1 Z    ZIL  0     **** ZIL Z 19
    15 GLL5       47 GROUP        1 Z    GLL  0     **** GLL Z 20
@<TRIPOS>SET

