#    Name: 1fmw_ATP_1_ligand
#    Modification time : Tue Mar 25 01:33:10 2014

@<TRIPOS>MOLECULE
1fmw_ATP_1_ligand
   42    44     1     0     0
SMALL
NO_CHARGES


@<TRIPOS>ATOM
      1 PG         33.2000   58.5340   23.2160 P.3       1 ATP999      0.0000 
      2 O1G        33.0680   59.7790   22.4140 O.co2     1 ATP999      0.0000 
      3 O2G        33.5890   59.0100   24.5840 O.co2     1 ATP999      0.0000 
      4 O3G        31.8760   57.7540   23.3260 O.co2     1 ATP999      0.0000 
      5 PB         34.6390   56.9260   21.1660 P.3       1 ATP999      0.0000 
      6 O1B        34.1620   57.9070   20.1660 O.co2     1 ATP999      0.0000 
      7 O2B        34.0710   55.5730   20.9580 O.co2     1 ATP999      0.0000 
      8 O3B        34.3230   57.5660   22.6010 O.3       1 ATP999      0.0000 
      9 PA         37.3510   57.5670   20.1610 P.3       1 ATP999      0.0000 
     10 O1A        37.3990   59.0190   20.4180 O.co2     1 ATP999      0.0000 
     11 O2A        37.2050   57.2860   18.6760 O.co2     1 ATP999      0.0000 
     12 O3A        36.2800   56.7830   20.9930 O.3       1 ATP999      0.0000 
     13 O5'        38.6880   56.8330   20.7440 O.3       1 ATP999      0.0000 
     14 C5'        39.3500   57.1790   21.9980 C.3       1 ATP999      0.0000 
     15 C4'        40.8510   57.4450   21.7680 C.3       1 ATP999      0.0000 
     16 O4'        41.5560   56.2380   21.3990 O.3       1 ATP999      0.0000 
     17 C3'        41.0410   58.3240   20.5970 C.3       1 ATP999      0.0000 
     18 O3'        41.4470   59.6220   20.9460 O.3       1 ATP999      0.0000 
     19 C2'        41.6530   57.7120   19.6330 C.3       1 ATP999      0.0000 
     20 O2'        42.6970   58.5520   19.1250 O.3       1 ATP999      0.0000 
     21 C1'        42.1890   56.4130   20.1460 C.3       1 ATP999      0.0000 
     22 N9         41.8750   55.2660   19.2860 N.pl3     1 ATP999      0.0000 
     23 C8         40.6860   54.7180   18.9970 C.2       1 ATP999      0.0000 
     24 N7         40.7110   53.9370   17.8970 N.2       1 ATP999      0.0000 
     25 C5         42.0250   53.9920   17.4480 C.ar      1 ATP999      0.0000 
     26 C6         42.7440   53.3990   16.3220 C.ar      1 ATP999      0.0000 
     27 N6         42.2260   52.5780   15.3870 N.pl3     1 ATP999      0.0000 
     28 N1         44.0620   53.7130   16.2670 N.ar      1 ATP999      0.0000 
     29 C2         44.5830   54.5380   17.2070 C.ar      1 ATP999      0.0000 
     30 N3         44.0220   55.1130   18.2240 N.ar      1 ATP999      0.0000 
     31 C4         42.7310   54.8050   18.3070 C.ar      1 ATP999      0.0000 
     32 H          39.2612   56.3678   22.7281 H         1 ATP999      0.0000 
     33 H          38.9132   58.0811   22.4390 H         1 ATP999      0.0000 
     34 H          41.2753   57.8914   22.6265 H         1 ATP999      0.0000 
     35 H          39.9028   58.4660   20.2396 H         1 ATP999      0.0000 
     36 H          40.9717   57.4604   18.8002 H         1 ATP999      0.0000 
     37 H          43.2516   56.5092   20.2807 H         1 ATP999      0.0000 
     38 H          39.8609   54.8700   19.5393 H         1 ATP999      0.0000 
     39 H          45.6761   54.7438   17.0643 H         1 ATP999      0.0000 
     40 H          40.7651   60.2260   20.5334 H         1 ATP999      0.0000 
     41 H          42.6786   59.3667   19.7046 H         1 ATP999      0.0000 
     42 H          42.5812   52.9201   14.5170 H         1 ATP999      0.0000 
@<TRIPOS>BOND
     1    2    1 ar   
     2    3    1 ar   
     3    4    1 ar   
     4    8    1 1    
     5    6    5 ar   
     6    7    5 ar   
     7    8    5 1    
     8   12    5 1    
     9   10    9 ar   
    10   11    9 ar   
    11   12    9 1    
    12   13    9 1    
    13   14   13 1    
    14   15   14 1    
    15   32   14 1    
    16   33   14 1    
    17   16   15 1    
    18   17   15 1    
    19   34   15 1    
    20   21   16 1    
    21   18   17 1    
    22   19   17 1    
    23   35   17 1    
    24   40   18 1    
    25   20   19 1    
    26   21   19 1    
    27   36   19 1    
    28   41   20 1    
    29   22   21 1    
    30   37   21 1    
    31   23   22 1    
    32   31   22 1    
    33   24   23 2    
    34   38   23 1    
    35   25   24 1    
    36   26   25 ar   
    37   31   25 ar   
    38   27   26 1    
    39   28   26 ar   
    40   42   27 1    
    41   29   28 ar   
    42   30   29 ar   
    43   39   29 1    
    44   31   30 ar   
@<TRIPOS>SUBSTRUCTURE
     1 ATP999      1 GROUP   
@<TRIPOS>SET

