#    Name: 2ziq_26U_1_INTS_M
#    Modification time : Tue Mar 25 10:47:14 2014

@<TRIPOS>MOLECULE
2ziq_26U_1_INTS_M
   61     0     9     0     0
SMALL
NO_CHARGES


@<TRIPOS>ATOM
      1 CA         18.2705  -13.4570   26.0615 C.3       3 GLC5        0.0000 
      2 CA         19.4150  -14.5590   24.7030 C.3       9 GLL5        0.0000 
      3 CA         17.1260  -12.3550   27.4200 C.3       6 GLP5        0.0000 
      4 CA         19.0225  -12.1040   24.7465 C.3       3 GLC5        0.0000 
      5 CA         20.5980  -13.5750   24.9030 C.3       9 GLL5        0.0000 
      6 CA         17.4470  -10.6330   24.5900 C.3       6 GLP5        0.0000 
      7 CA         22.4255  -12.2575   26.9810 C.3       3 GLC5        0.0000 
      8 CA         20.6740  -12.9550   26.3300 C.3       9 GLL5        0.0000 
      9 CA         24.1770  -11.5600   27.6320 C.3       6 GLP5        0.0000 
     10 CA         20.9935  -13.0975   28.3600 C.3       3 GLC5        0.0000 
     11 CA         21.3130  -13.2400   30.3900 C.3       6 GLP5        0.0000 
     12 CA         19.2040  -12.0415   26.7445 C.3       3 GLC5        0.0000 
     13 CA         17.7340  -11.1280   27.1590 C.3       6 GLP5        0.0000 
     14 CA         17.9125  -11.3240   22.7900 C.3       3 GLC5        0.0000 
     15 CA         18.3780  -12.0150   20.9900 C.3       9 GLL5        0.0000 
     16 CA         19.1530  -13.1515   18.1800 C.3       3 GLC5        0.0000 
     17 CA         19.4130  -11.7270   19.8710 C.3       9 GLL5        0.0000 
     18 CA         18.8930  -14.5760   16.4890 C.3       6 GLP5        0.0000 
     19 O          16.6610   -9.8825   21.2560 O.2       1 ALC1        0.0000 
     20 O          16.2750  -11.0630   20.3720 O.2       7 ALL1        0.0000 
     21 O          17.0470   -8.7020   22.1400 O.2       4 ALP1        0.0000 
     22 CA         10.5700  -13.1465   21.8285 C.3       3 GLC5        0.0000 
     23 CA         12.4290  -12.1800   22.4770 C.3       9 GLL5        0.0000 
     24 CA          8.7110  -14.1130   21.1800 C.3       6 GLP5        0.0000 
     25 OD1         9.3415   -9.6495   25.1150 O.co2     2 ASC3        0.0000 
     26 OD1        10.8360  -10.8950   23.9570 O.co2     8 ASL3        0.0000 
     27 OD1         8.0530   -9.5240   25.6770 O.co2     5 ASP3        0.0000 
     28 OD1         9.0255  -11.8440   24.9430 O.co2     2 ASC3        0.0000 
     29 OD1         7.8380  -11.6940   25.6830 O.co2     5 ASP3        0.0000 
     30 O           9.0255  -11.8440   24.9430 O.2       1 ALC1        0.0000 
     31 O          10.2130  -11.9940   24.2030 O.2       7 ALL1        0.0000 
     32 O           7.8380  -11.6940   25.6830 O.2       4 ALP1        0.0000 
     33 O          10.3005  -13.4665   24.0630 O.2       1 ALC1        0.0000 
     34 O          10.3880  -14.9390   23.9230 O.2       4 ALP1        0.0000 
     35 O           9.3415   -9.6495   25.1150 O.2       1 ALC1        0.0000 
     36 O          10.6300   -9.7750   24.5530 O.2       7 ALL1        0.0000 
     37 O           8.0530   -9.5240   25.6770 O.2       4 ALP1        0.0000 
     38 CA         10.6985   -8.5350   22.2150 C.3       3 GLC5        0.0000 
     39 CA         12.3730   -9.7940   22.2420 C.3       9 GLL5        0.0000 
     40 CA          9.0240   -7.2760   22.1880 C.3       6 GLP5        0.0000 
     41 CA         20.8724  -11.7993   24.2766 C.3       3 GLC5        0.0000 
     42 CA         20.7620  -10.1930   23.0410 C.3       6 GLP5        0.0000 
     43 CA         19.0258  -10.3840   19.2182 C.3       3 GLC5        0.0000 
     44 CA         19.1560   -8.8970   18.0060 C.3       6 GLP5        0.0000 
     45 CA         19.8287  -11.0320   21.7357 C.3       3 GLC5        0.0000 
     46 CA         21.8995  -13.7640   20.0650 C.3       3 GLC5        0.0000 
     47 CA         20.4230  -12.8830   19.8270 C.3       9 GLL5        0.0000 
     48 CA         23.5200  -14.1540   19.7340 C.3       6 GLP5        0.0000 
     49 CA         19.4210  -14.4050   18.9680 C.3       3 GLC5        0.0000 
     50 CA         18.5630  -15.4360   17.5400 C.3       6 GLP5        0.0000 
     51 CA         20.5205  -11.7835   21.7185 C.3       3 GLC5        0.0000 
     52 CA         13.0130  -12.0385   24.0529 C.3       3 GLC5        0.0000 
     53 CA         11.9020  -10.9430   22.8680 C.3       9 GLL5        0.0000 
     54 CA         13.6180  -12.5000   25.6810 C.3       6 GLP5        0.0000 
     55 CA         10.6381  -10.8394   21.1926 C.3       3 GLC5        0.0000 
     56 CA          9.0070  -11.0010   19.9280 C.3       6 GLP5        0.0000 
     57 CA         12.7207   -7.9688   21.5390 C.3       3 GLC5        0.0000 
     58 CA         12.5800   -6.1140   21.3350 C.3       6 GLP5        0.0000 
     59 CA         14.4451  -10.3285   23.0273 C.3       3 GLC5        0.0000 
     60 CA         13.3500   -9.8530   21.2440 C.3       9 GLL5        0.0000 
     61 CA         16.0750  -10.0920   24.1730 C.3       6 GLP5        0.0000 
@<TRIPOS>BOND
@<TRIPOS>SUBSTRUCTURE
     1 ALC1       19 GROUP        1 X    ALC  0     ROOT ALC X 1
     2 ASC3       25 GROUP        1 X    ASC  0     **** ASC X 3
     3 GLC5        1 GROUP        1 X    GLC  0     **** GLC X 6
     4 ALP1       21 GROUP        1 Y    ALP  0     ROOT ALP Y 8
     5 ASP3       27 GROUP        1 Y    ASP  0     **** ASP Y 10
     6 GLP5        3 GROUP        1 Y    GLP  0     **** GLP Y 13
     7 ALL1       20 GROUP        1 Z    ALL  0     ROOT ALL Z 15
     8 ASL3       26 GROUP        1 Z    ASL  0     **** ASL Z 17
     9 GLL5        2 GROUP        1 Z    GLL  0     **** GLL Z 20
@<TRIPOS>SET

