#    Name: 2ziq_26U_1_ligand
#    Modification time : Tue Mar 25 10:47:14 2014

@<TRIPOS>MOLECULE
2ziq_26U_1_ligand
   54    55     1     0     0
SMALL
NO_CHARGES


@<TRIPOS>ATOM
      1 C15        19.0120  -14.9240   23.2470 C.3       1 26U701      0.0000 
      2 C33        19.4150  -14.5590   24.7030 C.3       1 26U701      0.0000 
      3 C17        20.5980  -13.5750   24.9030 C.3       1 26U701      0.0000 
      4 C12        21.9850  -14.1370   24.4860 C.3       1 26U701      0.0000 
      5 C49        20.6740  -12.9550   26.3300 C.3       1 26U701      0.0000 
      6 C14        18.3400  -13.8000   22.4840 C.2       1 26U701      0.0000 
      7 O32        17.2650  -13.3520   22.8550 O.2       1 26U701      0.0000 
      8 N1         18.8810  -13.2880   21.4270 N.am      1 26U701      0.0000 
      9 C1         18.3780  -12.0150   20.9900 C.3       1 26U701      0.0000 
     10 C7         16.9860  -12.1250   20.3640 C.2       1 26U701      0.0000 
     11 O22        16.7040  -13.2170   19.9040 O.2       1 26U701      0.0000 
     12 C2         19.4130  -11.7270   19.8710 C.3       1 26U701      0.0000 
     13 C3         20.4230  -12.8830   19.8270 C.3       1 26U701      0.0000 
     14 C4         20.1350  -13.8650   20.9650 C.3       1 26U701      0.0000 
     15 N23        16.2750  -11.0630   20.3720 N.am      1 26U701      0.0000 
     16 C24        14.9520  -11.2010   19.7600 C.3       1 26U701      0.0000 
     17 C25        13.8720  -11.0980   20.8590 C.ar      1 26U701      0.0000 
     18 C30        13.3990  -12.2420   21.4860 C.ar      1 26U701      0.0000 
     19 C29        12.4290  -12.1800   22.4770 C.ar      1 26U701      0.0000 
     20 C28        11.9020  -10.9430   22.8680 C.ar      1 26U701      0.0000 
     21 C21        10.8360  -10.8950   23.9570 C.cat     1 26U701      0.0000 
     22 N46        10.2130  -11.9940   24.2030 N.pl3     1 26U701      0.0000 
     23 N47        10.6300   -9.7750   24.5530 N.pl3     1 26U701      0.0000 
     24 C27        12.3730   -9.7940   22.2420 C.ar      1 26U701      0.0000 
     25 C26        13.3500   -9.8530   21.2440 C.ar      1 26U701      0.0000 
     26 H          18.3396  -15.7971   23.2870 H         1 26U701      0.0000 
     27 H          19.9210  -15.2431   22.7104 H         1 26U701      0.0000 
     28 H          19.6496  -15.5036   25.2467 H         1 26U701      0.0000 
     29 H          18.5195  -14.1390   25.2174 H         1 26U701      0.0000 
     30 H          20.4079  -12.7003   24.2107 H         1 26U701      0.0000 
     31 H          18.4481  -11.2808   21.6998 H         1 26U701      0.0000 
     32 H          19.9252  -10.8075   20.0952 H         1 26U701      0.0000 
     33 H          18.8997  -11.6590   18.9276 H         1 26U701      0.0000 
     34 H          21.4244  -12.4859   19.9386 H         1 26U701      0.0000 
     35 H          20.3360  -13.3965   18.8774 H         1 26U701      0.0000 
     36 H          20.0012  -14.8231   20.5608 H         1 26U701      0.0000 
     37 H          20.8936  -13.7831   21.6841 H         1 26U701      0.0000 
     38 H          16.5177  -10.1625   20.7438 H         1 26U701      0.0000 
     39 H          14.8430  -12.1663   19.2712 H         1 26U701      0.0000 
     40 H          14.7695  -10.4117   19.0345 H         1 26U701      0.0000 
     41 H          13.7805  -13.1687   21.2067 H         1 26U701      0.0000 
     42 H          12.0934  -13.0406   22.9279 H         1 26U701      0.0000 
     43 H           9.5509  -11.9663   24.9519 H         1 26U701      0.0000 
     44 H          10.4491  -12.7731   23.6223 H         1 26U701      0.0000 
     45 H           9.9341   -9.7802   25.2711 H         1 26U701      0.0000 
     46 H          11.1849   -9.0030   24.2429 H         1 26U701      0.0000 
     47 H          11.9921   -8.8694   22.5201 H         1 26U701      0.0000 
     48 H          13.6836   -8.9974   20.7962 H         1 26U701      0.0000 
     49 H          22.7148  -13.4683   24.6286 H         1 26U701      0.0000 
     50 H          22.2282  -14.9527   25.0108 H         1 26U701      0.0000 
     51 H          22.0067  -14.3930   23.5196 H         1 26U701      0.0000 
     52 H          20.7847  -13.6563   27.0342 H         1 26U701      0.0000 
     53 H          21.4449  -12.3245   26.4204 H         1 26U701      0.0000 
     54 H          19.8467  -12.4407   26.5560 H         1 26U701      0.0000 
@<TRIPOS>BOND
     1    2    1 1    
     2    6    1 1    
     3   26    1 1    
     4   27    1 1    
     5    3    2 1    
     6   28    2 1    
     7   29    2 1    
     8    4    3 1    
     9    5    3 1    
    10   30    3 1    
    11   49    4 1    
    12   50    4 1    
    13   51    4 1    
    14   52    5 1    
    15   53    5 1    
    16   54    5 1    
    17    7    6 2    
    18    8    6 am   
    19    9    8 1    
    20   14    8 1    
    21   10    9 1    
    22   12    9 1    
    23   31    9 1    
    24   11   10 2    
    25   15   10 am   
    26   13   12 1    
    27   32   12 1    
    28   33   12 1    
    29   14   13 1    
    30   34   13 1    
    31   35   13 1    
    32   36   14 1    
    33   37   14 1    
    34   16   15 1    
    35   38   15 1    
    36   17   16 1    
    37   39   16 1    
    38   40   16 1    
    39   18   17 ar   
    40   25   17 ar   
    41   19   18 ar   
    42   41   18 1    
    43   20   19 ar   
    44   42   19 1    
    45   21   20 1    
    46   24   20 ar   
    47   22   21 ar   
    48   23   21 ar   
    49   43   22 1    
    50   44   22 1    
    51   45   23 1    
    52   46   23 1    
    53   25   24 ar   
    54   47   24 1    
    55   48   25 1    
@<TRIPOS>SUBSTRUCTURE
     1 26U701      1 GROUP   
@<TRIPOS>SET

