#    Name: 3osh_OIN_1_INTS_M
#    Modification time : Tue Mar 25 05:16:06 2014

@<TRIPOS>MOLECULE
3osh_OIN_1_INTS_M
   51     0     3     0     0
SMALL
NO_CHARGES


@<TRIPOS>ATOM
      1 CA        -14.0560   11.7685    8.3525 C.3       1 GLC5        0.0000 
      2 CA        -12.6340   12.6490    8.5030 C.3       3 GLL5        0.0000 
      3 CA        -15.4780   10.8880    8.2020 C.3       2 GLP5        0.0000 
      4 CA        -14.1185   13.7595    8.2200 C.3       1 GLC5        0.0000 
      5 CA        -15.6030   14.8700    7.9370 C.3       2 GLP5        0.0000 
      6 CA        -12.2285   15.5940    4.6265 C.3       1 GLC5        0.0000 
      7 CA        -13.0520   14.4270    6.1530 C.3       3 GLL5        0.0000 
      8 CA        -11.4050   16.7610    3.1000 C.3       2 GLP5        0.0000 
      9 CA        -10.5165   15.1270    5.4305 C.3       1 GLC5        0.0000 
     10 CA        -11.6080   13.9360    6.1410 C.3       3 GLL5        0.0000 
     11 CA         -9.4250   16.3180    4.7200 C.3       2 GLP5        0.0000 
     12 CA        -13.5975   11.6840    7.2860 C.3       1 GLC5        0.0000 
     13 CA        -11.7170   12.4800    6.3700 C.3       3 GLL5        0.0000 
     14 CA        -12.7375   12.7960    2.7860 C.3       1 GLC5        0.0000 
     15 CA        -13.0460   11.9560    4.3580 C.3       3 GLL5        0.0000 
     16 CA        -12.4290   13.6360    1.2140 C.3       2 GLP5        0.0000 
     17 CA        -15.3215   13.7900    6.0005 C.3       1 GLC5        0.0000 
     18 CA        -14.2700   12.3850    5.1580 C.3       3 GLL5        0.0000 
     19 CA        -16.3730   15.1950    6.8430 C.3       2 GLP5        0.0000 
     20 CA        -13.5260   11.8790    1.3245 C.3       1 GLC5        0.0000 
     21 CA        -14.6230   10.1220    1.4350 C.3       3 GLL5        0.0000 
     22 CA        -14.7780   11.8575   -0.9120 C.3       1 GLC5        0.0000 
     23 CA        -15.7160   10.4920    0.4890 C.3       3 GLL5        0.0000 
     24 CA        -13.8400   13.2230   -2.3130 C.3       2 GLP5        0.0000 
     25 CA        -16.0535   11.0225   -1.6605 C.3       1 GLC5        0.0000 
     26 CA        -16.3910   11.5530   -3.8100 C.3       2 GLP5        0.0000 
     27 CA        -16.7185    9.4895   -1.0705 C.3       1 GLC5        0.0000 
     28 CA        -17.7210    8.4870   -2.6300 C.3       2 GLP5        0.0000 
     29 CA        -13.7365    7.2740   -0.1915 C.3       1 GLC5        0.0000 
     30 CA        -14.0610    7.7630    1.7000 C.3       3 GLL5        0.0000 
     31 CA        -13.4120    6.7850   -2.0830 C.3       2 GLP5        0.0000 
     32 CA        -13.2450    4.4800    2.2115 C.3       1 GLC5        0.0000 
     33 CA        -13.8260    6.6160    2.4880 C.3       3 GLL5        0.0000 
     34 CA        -12.6640    2.3440    1.9350 C.3       2 GLP5        0.0000 
     35 CA        -11.8670    7.6130    2.2055 C.3       1 GLC5        0.0000 
     36 CA         -9.9080    8.6100    1.9230 C.3       2 GLP5        0.0000 
     37 CA        -15.2890    4.9550    4.4220 C.3       1 GLC5        0.0000 
     38 CA        -14.1680    6.6210    3.8680 C.3       3 GLL5        0.0000 
     39 CA        -16.4100    3.2890    4.9760 C.3       2 GLP5        0.0000 
     40 CA        -14.7400   11.8137    6.9763 C.3       1 GLC5        0.0000 
     41 CA        -14.0518   14.3591    7.0657 C.3       1 GLC5        0.0000 
     42 CA        -13.7340   13.0940    6.3430 C.3       3 GLL5        0.0000 
     43 CA        -16.8547    9.3210    1.3860 C.3       1 GLC5        0.0000 
     44 CA        -18.5400    8.3350    1.8100 C.3       2 GLP5        0.0000 
     45 CA        -12.5204    8.9669    1.2926 C.3       1 GLC5        0.0000 
     46 CA        -10.6920    9.2950    0.8080 C.3       2 GLP5        0.0000 
     47 CA        -15.5219    6.0536    1.8875 C.3       1 GLC5        0.0000 
     48 CA        -16.9880    5.2020    0.7940 C.3       2 GLP5        0.0000 
     49 CA        -16.0282    9.1990    5.3388 C.3       1 GLC5        0.0000 
     50 CA        -14.7490    7.7840    4.4520 C.3       3 GLL5        0.0000 
     51 CA        -17.1910   10.0360    6.6240 C.3       2 GLP5        0.0000 
@<TRIPOS>BOND
@<TRIPOS>SUBSTRUCTURE
     1 GLC5        1 GROUP        1 X    GLC  0     ROOT GLC X 6
     2 GLP5        3 GROUP        1 Y    GLP  0     ROOT GLP Y 13
     3 GLL5        2 GROUP        1 Z    GLL  0     ROOT GLL Z 20
@<TRIPOS>SET

