#    Name: 3osh_OIN_1_ligand
#    Modification time : Tue Mar 25 05:16:07 2014

@<TRIPOS>MOLECULE
3osh_OIN_1_ligand
   45    47     1     0     0
SMALL
NO_CHARGES


@<TRIPOS>ATOM
      1 C10       -12.6340   12.6490    8.5030 C.3       1 OIN5811     0.0000 
      2 N         -12.9230   12.2150    7.1310 N.4       1 OIN5811     0.0000 
      3 C11       -13.7340   13.0940    6.3430 C.3       1 OIN5811     0.0000 
      4 C17       -13.0520   14.4270    6.1530 C.3       1 OIN5811     0.0000 
      5 C16       -11.6080   13.9360    6.1410 C.3       1 OIN5811     0.0000 
      6 C15       -11.7170   12.4800    6.3700 C.3       1 OIN5811     0.0000 
      7 C14       -11.7980   11.5580    5.1610 C.3       1 OIN5811     0.0000 
      8 C13       -13.0460   11.9560    4.3580 C.3       1 OIN5811     0.0000 
      9 C12       -14.2700   12.3850    5.1580 C.3       1 OIN5811     0.0000 
     10 O2        -13.2430   11.0100    3.3130 O.3       1 OIN5811     0.0000 
     11 C7        -14.3390   11.2560    2.3940 C.2       1 OIN5811     0.0000 
     12 O3        -14.9800   12.2980    2.4020 O.2       1 OIN5811     0.0000 
     13 C9        -14.6230   10.1220    1.4350 C.3       1 OIN5811     0.0000 
     14 C8        -15.7160   10.4920    0.4890 C.3       1 OIN5811     0.0000 
     15 OH        -16.9160   10.6870    1.2090 O.3       1 OIN5811     0.0000 
     16 C6        -14.6500    8.9070    2.2740 C.ar      1 OIN5811     0.0000 
     17 C5        -14.0610    7.7630    1.7000 C.ar      1 OIN5811     0.0000 
     18 C4        -13.8260    6.6160    2.4880 C.ar      1 OIN5811     0.0000 
     19 C3        -14.1680    6.6210    3.8680 C.ar      1 OIN5811     0.0000 
     20 C2        -14.7490    7.7840    4.4520 C.ar      1 OIN5811     0.0000 
     21 C1        -14.9820    8.9400    3.6550 C.ar      1 OIN5811     0.0000 
     22 H         -13.1834   11.2302    7.0293 H         1 OIN5811     0.0000 
     23 H         -14.6546   13.3246    7.0088 H         1 OIN5811     0.0000 
     24 H         -13.2104   15.0394    6.9817 H         1 OIN5811     0.0000 
     25 H         -13.2954   14.8323    5.2239 H         1 OIN5811     0.0000 
     26 H         -11.0717   14.4094    6.9342 H         1 OIN5811     0.0000 
     27 H         -11.1770   14.1423    5.1856 H         1 OIN5811     0.0000 
     28 H         -10.8677   12.1375    6.9856 H         1 OIN5811     0.0000 
     29 H         -11.8959   10.5384    5.4862 H         1 OIN5811     0.0000 
     30 H         -10.9256   11.6853    4.5465 H         1 OIN5811     0.0000 
     31 H         -12.6894   12.9396    3.8175 H         1 OIN5811     0.0000 
     32 H         -14.8679   13.0425    4.5585 H         1 OIN5811     0.0000 
     33 H         -14.8200   11.5130    5.4519 H         1 OIN5811     0.0000 
     34 H         -13.6494   10.0675    0.8250 H         1 OIN5811     0.0000 
     35 H         -15.8168    9.6889   -0.2566 H         1 OIN5811     0.0000 
     36 H         -15.4148   11.4024   -0.0508 H         1 OIN5811     0.0000 
     37 H         -13.8028    7.7627    0.7104 H         1 OIN5811     0.0000 
     38 H         -13.4117    5.7826    2.0726 H         1 OIN5811     0.0000 
     39 H         -13.9989    5.7968    4.4388 H         1 OIN5811     0.0000 
     40 H         -14.9969    7.7871    5.4384 H         1 OIN5811     0.0000 
     41 H         -15.3790    9.7740    4.0678 H         1 OIN5811     0.0000 
     42 H         -12.0620   11.9881    8.9889 H         1 OIN5811     0.0000 
     43 H         -12.1509   13.5244    8.5216 H         1 OIN5811     0.0000 
     44 H         -13.4697   12.7640    9.0400 H         1 OIN5811     0.0000 
     45 H         -16.6784   11.3276    1.9392 H         1 OIN5811     0.0000 
@<TRIPOS>BOND
     1    2    1 1    
     2   42    1 1    
     3   43    1 1    
     4   44    1 1    
     5    3    2 1    
     6    6    2 1    
     7   22    2 1    
     8    4    3 1    
     9    9    3 1    
    10   23    3 1    
    11    5    4 1    
    12   24    4 1    
    13   25    4 1    
    14    6    5 1    
    15   26    5 1    
    16   27    5 1    
    17    7    6 1    
    18   28    6 1    
    19    8    7 1    
    20   29    7 1    
    21   30    7 1    
    22    9    8 1    
    23   10    8 1    
    24   31    8 1    
    25   32    9 1    
    26   33    9 1    
    27   11   10 1    
    28   12   11 2    
    29   13   11 1    
    30   14   13 1    
    31   16   13 1    
    32   34   13 1    
    33   15   14 1    
    34   35   14 1    
    35   36   14 1    
    36   45   15 1    
    37   17   16 ar   
    38   21   16 ar   
    39   18   17 ar   
    40   37   17 1    
    41   19   18 ar   
    42   38   18 1    
    43   20   19 ar   
    44   39   19 1    
    45   21   20 ar   
    46   40   20 1    
    47   41   21 1    
@<TRIPOS>SUBSTRUCTURE
     1 OIN5811     1 GROUP   
@<TRIPOS>SET

