#    Name: 2hs6_FMN_2_INTS_M
#    Modification time : Tue Mar 25 16:59:54 2014

@<TRIPOS>MOLECULE
2hs6_FMN_2_INTS_M
   78     0    12     0     0
SMALL
NO_CHARGES


@<TRIPOS>ATOM
      1 N          37.9625    1.2525   45.6360 N.am      2 SEC2        0.0000 
      2 N          38.8960    0.1340   45.7730 N.am     10 SEL2        0.0000 
      3 N          37.0290    2.3710   45.4990 N.am      6 SEP2        0.0000 
      4 N          38.2705   -0.9585   46.5025 N.am      2 SEC2        0.0000 
      5 N          37.6450   -2.0510   47.2320 N.am      6 SEP2        0.0000 
      6 O          38.6910    1.4550   43.5350 O.2       1 ALC1        0.0000 
      7 O          39.3320    0.1900   43.5510 O.2       9 ALL1        0.0000 
      8 O          38.0500    2.7200   43.5190 O.2       5 ALP1        0.0000 
      9 N          40.3770    0.2150   40.1730 N.am      2 SEC2        0.0000 
     10 N          39.7560    0.3100   41.3380 N.am     10 SEL2        0.0000 
     11 N          40.9980    0.1200   39.0080 N.am      6 SEP2        0.0000 
     12 N          38.7595    1.3500   40.6420 N.am      2 SEC2        0.0000 
     13 N          37.7630    2.3900   39.9460 N.am      6 SEP2        0.0000 
     14 N          39.5090   -2.2470   40.0565 N.am      2 SEC2        0.0000 
     15 N          40.0690   -2.5070   41.2400 N.am     10 SEL2        0.0000 
     16 N          38.9490   -1.9870   38.8730 N.am      6 SEP2        0.0000 
     17 CA         38.6560   -3.3865   40.7250 C.3       4 GLC5        0.0000 
     18 CA         40.1700   -3.8770   41.2860 C.3      12 GLL5        0.0000 
     19 CA         37.1420   -2.8960   40.1640 C.3       8 GLP5        0.0000 
     20 CA         39.1310   -7.9455   38.3370 C.3       4 GLC5        0.0000 
     21 CA         40.8330   -6.7720   38.7480 C.3      12 GLL5        0.0000 
     22 CA         37.4290   -9.1190   37.9260 C.3       8 GLP5        0.0000 
     23 CA         41.3625   -8.3945   38.2370 C.3       4 GLC5        0.0000 
     24 CA         41.8920  -10.0170   37.7260 C.3       8 GLP5        0.0000 
     25 CA         42.4435   -6.2415   38.3390 C.3       4 GLC5        0.0000 
     26 CA         44.0540   -5.7110   37.9300 C.3       8 GLP5        0.0000 
     27 CA         39.6735   -9.8665   41.6380 C.3       4 GLC5        0.0000 
     28 CA         40.4390   -8.2680   41.3030 C.3      12 GLL5        0.0000 
     29 CA         38.9080  -11.4650   41.9730 C.3       8 GLP5        0.0000 
     30 CA         40.8855   -9.6365   39.9175 C.3       4 GLC5        0.0000 
     31 CA         41.3320  -11.0050   38.5320 C.3       8 GLP5        0.0000 
     32 CA         37.2460   -5.0955   43.0570 C.3       4 GLC5        0.0000 
     33 CA         38.0060   -4.9750   45.0620 C.3      12 GLL5        0.0000 
     34 CA         36.4860   -5.2160   41.0520 C.3       8 GLP5        0.0000 
     35 N          37.3980   -2.9435   46.2040 N.am      2 SEC2        0.0000 
     36 N          37.1510   -3.8360   45.1760 N.am     10 SEL2        0.0000 
     37 N          36.6350   -3.6085   46.7455 N.am      2 SEC2        0.0000 
     38 N          36.1190   -3.3810   48.3150 N.am      6 SEP2        0.0000 
     39 O          36.9755   -3.2410   44.0185 O.2       1 ALC1        0.0000 
     40 O          37.1510   -3.8360   45.1760 O.2       9 ALL1        0.0000 
     41 O          36.8000   -2.6460   42.8610 O.2       5 ALP1        0.0000 
     42 N          37.0530   -4.2975   47.9025 N.am      2 SEC2        0.0000 
     43 N          37.9870   -5.2140   47.4900 N.am     10 SEL2        0.0000 
     44 N          36.6760   -5.7425   48.2805 N.am      2 SEC2        0.0000 
     45 N          35.3650   -6.2710   49.0710 N.am      6 SEP2        0.0000 
     46 CA         37.5805   -8.6425   48.9230 C.3       4 GLC5        0.0000 
     47 CA         37.3500   -8.0990   47.1710 C.3      12 GLL5        0.0000 
     48 CA         37.8110   -9.1860   50.6750 C.3       8 GLP5        0.0000 
     49 N          37.7065  -10.4470   48.4470 N.am      2 SEC2        0.0000 
     50 N          37.7080   -9.4690   47.1100 N.am     10 SEL2        0.0000 
     51 N          37.7050  -11.4250   49.7840 N.am      6 SEP2        0.0000 
     52 N          34.8640   -9.7540   45.3555 N.am      2 SEC2        0.0000 
     53 N          35.6630  -10.5860   46.2800 N.am     10 SEL2        0.0000 
     54 N          34.0650   -8.9220   44.4310 N.am      6 SEP2        0.0000 
     55 NZ         38.6415  -11.4305   44.4230 N.4       3 LYC4        0.0000 
     56 NZ         37.6620  -10.3430   44.7700 N.4      11 LYL4        0.0000 
     57 NZ         40.3970  -13.1800   44.9250 N.4       7 LYP4        0.0000 
     58 N          36.8850  -10.3055   43.5810 N.am      2 SEC2        0.0000 
     59 N          37.6620  -10.3430   44.7700 N.am     10 SEL2        0.0000 
     60 N          36.1080  -10.2680   42.3920 N.am      6 SEP2        0.0000 
     61 N          38.6415  -11.4305   44.4230 N.am      2 SEC2        0.0000 
     62 N          39.6210  -12.5180   44.0760 N.am      6 SEP2        0.0000 
     63 NZ         38.8770  -12.6245   46.4920 N.4       3 LYC4        0.0000 
     64 NZ         37.7390  -11.8880   46.8030 N.4      11 LYL4        0.0000 
     65 N          37.7220  -11.6565   48.2935 N.am      2 SEC2        0.0000 
     66 N          37.7390  -11.8880   46.8030 N.am     10 SEL2        0.0000 
     67 N          38.6800  -12.2030   45.4395 N.am      2 SEC2        0.0000 
     68 N          38.8770  -12.6245   46.4920 N.am      2 SEC2        0.0000 
     69 N          40.0150  -13.3610   46.1810 N.am      6 SEP2        0.0000 
     70 CA         39.9690   -2.8352   39.1970 C.3       4 GLC5        0.0000 
     71 CA         39.6260   -1.4160   37.7170 C.3       8 GLP5        0.0000 
     72 CA         38.6180   -4.8260   39.9500 C.3       4 GLC5        0.0000 
     73 CA         40.4540   -4.6320   40.0680 C.3      12 GLL5        0.0000 
     74 CA         36.7360   -4.3380   39.8500 C.3       8 GLP5        0.0000 
     75 CA         38.2965   -5.3750   41.6150 C.3       4 GLC5        0.0000 
     76 CA         40.3560   -6.7640   41.2760 C.3      12 GLL5        0.0000 
     77 CA         35.8468   -5.2027   45.4240 C.3       4 GLC5        0.0000 
     78 CA         33.9020   -4.9850   45.1980 C.3       8 GLP5        0.0000 
@<TRIPOS>BOND
@<TRIPOS>SUBSTRUCTURE
     1 ALC1        6 GROUP        1 X    ALC  0     ROOT ALC X 1
     2 SEC2        1 GROUP        1 X    SEC  0     **** SEC X 2
     3 LYC4       55 GROUP        1 X    LYC  0     **** LYC X 4
     4 GLC5       17 GROUP        1 X    GLC  0     **** GLC X 6
     5 ALP1        8 GROUP        1 Y    ALP  0     ROOT ALP Y 8
     6 SEP2        3 GROUP        1 Y    SEP  0     **** SEP Y 9
     7 LYP4       57 GROUP        1 Y    LYP  0     **** LYP Y 11
     8 GLP5       19 GROUP        1 Y    GLP  0     **** GLP Y 13
     9 ALL1        7 GROUP        1 Z    ALL  0     ROOT ALL Z 15
    10 SEL2        2 GROUP        1 Z    SEL  0     **** SEL Z 16
    11 LYL4       56 GROUP        1 Z    LYL  0     **** LYL Z 18
    12 GLL5       18 GROUP        1 Z    GLL  0     **** GLL Z 20
@<TRIPOS>SET

