#    Name: 2hs6_FMN_2_ligand
#    Modification time : Tue Mar 25 16:59:54 2014

@<TRIPOS>MOLECULE
2hs6_FMN_2_ligand
   50    52     1     0     0
SMALL
NO_CHARGES


@<TRIPOS>ATOM
      1 N1         39.3020   -1.8750   44.7870 N.2       1 FMN401      0.0000 
      2 C2         39.1620   -0.5140   44.7860 C.2       1 FMN401      0.0000 
      3 O2         38.8960    0.1340   45.7730 O.2       1 FMN401      0.0000 
      4 N3         39.3320    0.1900   43.5510 N.am      1 FMN401      0.0000 
      5 C4         39.6320   -0.3830   42.3540 C.2       1 FMN401      0.0000 
      6 O4         39.7560    0.3100   41.3380 O.2       1 FMN401      0.0000 
      7 C4A        39.7860   -1.8450   42.3570 C.2       1 FMN401      0.0000 
      8 N5         40.0690   -2.5070   41.2400 N.2       1 FMN401      0.0000 
      9 C5A        40.1700   -3.8770   41.2860 C.ar      1 FMN401      0.0000 
     10 C6         40.4540   -4.6320   40.0680 C.ar      1 FMN401      0.0000 
     11 C7         40.5460   -5.9960   40.0320 C.ar      1 FMN401      0.0000 
     12 C7M        40.8330   -6.7720   38.7480 C.3       1 FMN401      0.0000 
     13 C8         40.3560   -6.7640   41.2760 C.ar      1 FMN401      0.0000 
     14 C8M        40.4390   -8.2680   41.3030 C.3       1 FMN401      0.0000 
     15 C9         40.0920   -6.0600   42.4380 C.ar      1 FMN401      0.0000 
     16 C9A        39.9900   -4.6560   42.4990 C.ar      1 FMN401      0.0000 
     17 N10        39.7090   -3.9100   43.6730 N.pl3     1 FMN401      0.0000 
     18 C10        39.5900   -2.5320   43.6640 C.2       1 FMN401      0.0000 
     19 C1'        39.4910   -4.6140   44.9700 C.3       1 FMN401      0.0000 
     20 C2'        38.0060   -4.9750   45.0620 C.3       1 FMN401      0.0000 
     21 O2'        37.1510   -3.8360   45.1760 O.3       1 FMN401      0.0000 
     22 C3'        37.5770   -5.8660   46.2380 C.3       1 FMN401      0.0000 
     23 O3'        37.9870   -5.2140   47.4900 O.3       1 FMN401      0.0000 
     24 C4'        38.1760   -7.2470   46.2510 C.3       1 FMN401      0.0000 
     25 O4'        38.1560   -7.8240   44.9150 O.3       1 FMN401      0.0000 
     26 C5'        37.3500   -8.0990   47.1710 C.3       1 FMN401      0.0000 
     27 O5'        37.7080   -9.4690   47.1100 O.3       1 FMN401      0.0000 
     28 P          37.1520  -10.5810   46.1610 P.3       1 FMN401      0.0000 
     29 O1P        35.6630  -10.5860   46.2800 O.co2     1 FMN401      0.0000 
     30 O2P        37.6620  -10.3430   44.7700 O.co2     1 FMN401      0.0000 
     31 O3P        37.7390  -11.8880   46.8030 O.co2     1 FMN401      0.0000 
     32 H          39.2080    1.2462   43.6025 H         1 FMN401      0.0000 
     33 H          40.5877   -4.0657   39.1993 H         1 FMN401      0.0000 
     34 H          39.9578   -6.5962   43.3351 H         1 FMN401      0.0000 
     35 H          39.7458   -3.9688   45.7976 H         1 FMN401      0.0000 
     36 H          40.0745   -5.5217   45.0099 H         1 FMN401      0.0000 
     37 H          37.7199   -5.5274   44.1439 H         1 FMN401      0.0000 
     38 H          36.4955   -5.9476   46.2337 H         1 FMN401      0.0000 
     39 H          39.1743   -7.1920   46.6328 H         1 FMN401      0.0000 
     40 H          36.2805   -7.9497   46.9067 H         1 FMN401      0.0000 
     41 H          37.4636   -7.6982   48.2017 H         1 FMN401      0.0000 
     42 H          41.7113   -6.5132   38.3461 H         1 FMN401      0.0000 
     43 H          40.8638   -7.7584   38.9092 H         1 FMN401      0.0000 
     44 H          40.1333   -6.6104   38.0521 H         1 FMN401      0.0000 
     45 H          41.3332   -8.5961   40.9985 H         1 FMN401      0.0000 
     46 H          40.2909   -8.6317   42.2227 H         1 FMN401      0.0000 
     47 H          39.7542   -8.6885   40.7078 H         1 FMN401      0.0000 
     48 H          37.1054   -3.4534   44.2532 H         1 FMN401      0.0000 
     49 H          38.5734   -5.8813   47.9492 H         1 FMN401      0.0000 
     50 H          38.4056   -8.7838   45.0439 H         1 FMN401      0.0000 
@<TRIPOS>BOND
     1    2    1 1    
     2   18    1 2    
     3    3    2 2    
     4    4    2 am   
     5    5    4 am   
     6   32    4 1    
     7    6    5 2    
     8    7    5 1    
     9    8    7 2    
    10   18    7 1    
    11    9    8 1    
    12   10    9 ar   
    13   16    9 ar   
    14   11   10 ar   
    15   33   10 1    
    16   12   11 1    
    17   13   11 ar   
    18   42   12 1    
    19   43   12 1    
    20   44   12 1    
    21   14   13 1    
    22   15   13 ar   
    23   45   14 1    
    24   46   14 1    
    25   47   14 1    
    26   16   15 ar   
    27   34   15 1    
    28   17   16 1    
    29   18   17 1    
    30   19   17 1    
    31   20   19 1    
    32   35   19 1    
    33   36   19 1    
    34   21   20 1    
    35   22   20 1    
    36   37   20 1    
    37   48   21 1    
    38   23   22 1    
    39   24   22 1    
    40   38   22 1    
    41   49   23 1    
    42   25   24 1    
    43   26   24 1    
    44   39   24 1    
    45   50   25 1    
    46   27   26 1    
    47   40   26 1    
    48   41   26 1    
    49   28   27 1    
    50   29   28 ar   
    51   30   28 ar   
    52   31   28 ar   
@<TRIPOS>SUBSTRUCTURE
     1 FMN401      1 GROUP   
@<TRIPOS>SET

