#    Name: 2afk_ACP_1_INTS_M
#    Modification time : Mon Mar 24 19:11:21 2014

@<TRIPOS>MOLECULE
2afk_ACP_1_INTS_M
   88     0    15     0     0
SMALL
NO_CHARGES


@<TRIPOS>ATOM
      1 NZ        -58.7305  -40.9535   31.5385 N.4       3 LYC4        0.0000 
      2 NZ        -58.2020  -41.1560   32.9030 N.4      13 LYL4        0.0000 
      3 NZ        -59.2590  -40.7510   30.1740 N.4       8 LYP4        0.0000 
      4 N         -58.7305  -40.9535   31.5385 N.am      2 SEC2        0.0000 
      5 N         -58.2020  -41.1560   32.9030 N.am     12 SEL2        0.0000 
      6 N         -59.2590  -40.7510   30.1740 N.am      7 SEP2        0.0000 
      7 Zn        -56.9760  -44.1200   32.2470 Zn        4 ZIC7        0.0000 
      8 Zn        -56.7810  -43.2190   32.6680 Zn       14 ZIL7        0.0000 
      9 Zn        -57.1710  -45.0210   31.8260 Zn        9 ZIP7        0.0000 
     10 NZ        -55.7190  -42.4190   35.7465 N.4       3 LYC4        0.0000 
     11 NZ        -57.1560  -42.1030   34.9100 N.4      13 LYL4        0.0000 
     12 NZ        -54.2820  -42.7350   36.5830 N.4       8 LYP4        0.0000 
     13 NZ        -56.6305  -42.3890   36.7195 N.4       3 LYC4        0.0000 
     14 NZ        -56.1050  -42.6750   38.5290 N.4       8 LYP4        0.0000 
     15 N         -55.7190  -42.4190   35.7465 N.am      2 SEC2        0.0000 
     16 N         -57.1560  -42.1030   34.9100 N.am     12 SEL2        0.0000 
     17 N         -54.2820  -42.7350   36.5830 N.am      7 SEP2        0.0000 
     18 Zn        -58.1655  -44.9590   31.7255 Zn        4 ZIC7        0.0000 
     19 Zn        -59.1600  -44.8970   31.6250 Zn       14 ZIL7        0.0000 
     20 N         -59.3545  -45.8235   30.5200 N.am      2 SEC2        0.0000 
     21 N         -59.1600  -44.8970   31.6250 N.am     12 SEL2        0.0000 
     22 N         -59.5490  -46.7500   29.4150 N.am      7 SEP2        0.0000 
     23 NZ        -60.0155  -41.8275   30.9160 N.4       3 LYC4        0.0000 
     24 NZ        -60.7720  -42.9040   31.6580 N.4      13 LYL4        0.0000 
     25 N         -61.1335  -41.7920   32.8660 N.am      2 SEC2        0.0000 
     26 N         -60.7720  -42.9040   31.6580 N.am     12 SEL2        0.0000 
     27 N         -61.4950  -40.6800   34.0740 N.am      7 SEP2        0.0000 
     28 N         -62.1850  -43.4300   31.5010 N.am      2 SEC2        0.0000 
     29 N         -63.5980  -43.9560   31.3440 N.am      7 SEP2        0.0000 
     30 N         -61.2675  -43.9420   30.5435 N.am      2 SEC2        0.0000 
     31 N         -61.7630  -44.9800   29.4290 N.am      7 SEP2        0.0000 
     32 N         -60.0155  -41.8275   30.9160 N.am      2 SEC2        0.0000 
     33 CA        -60.8905  -42.4270   34.2955 C.3       5 GLC5        0.0000 
     34 CA        -59.1850  -43.5090   33.8560 C.3      15 GLL5        0.0000 
     35 CA        -62.5960  -41.3450   34.7350 C.3      10 GLP5        0.0000 
     36 N         -60.9875  -48.2380   30.9995 N.am      2 SEC2        0.0000 
     37 N         -61.2180  -47.1950   31.9730 N.am     12 SEL2        0.0000 
     38 N         -60.7570  -49.2810   30.0260 N.am      7 SEP2        0.0000 
     39 N         -61.7935  -48.6295   32.1115 N.am      2 SEC2        0.0000 
     40 N         -62.3690  -50.0640   32.2500 N.am      7 SEP2        0.0000 
     41 CA        -63.2710  -45.8350   33.1320 C.3       5 GLC5        0.0000 
     42 CA        -63.0150  -46.2840   35.2500 C.3      15 GLL5        0.0000 
     43 CA        -63.5270  -45.3860   31.0140 C.3      10 GLP5        0.0000 
     44 CA        -63.1820  -44.9405   36.3840 C.3       5 GLC5        0.0000 
     45 CA        -63.3490  -43.5970   37.5180 C.3      10 GLP5        0.0000 
     46 CA        -64.5890  -45.6975   36.6370 C.3       5 GLC5        0.0000 
     47 CA        -64.0450  -47.2320   35.8680 C.3      15 GLL5        0.0000 
     48 CA        -65.1330  -44.1630   37.4060 C.3      10 GLP5        0.0000 
     49 O         -62.4645  -50.2110   36.8185 O.2       1 ALC1        0.0000 
     50 O         -63.7240  -49.2910   37.2160 O.2      11 ALL1        0.0000 
     51 O         -61.2050  -51.1310   36.4210 O.2       6 ALP1        0.0000 
     52 O         -63.2575  -50.4355   37.5480 O.2       1 ALC1        0.0000 
     53 O         -62.7910  -51.5800   37.8800 O.2       6 ALP1        0.0000 
     54 CA        -63.6745  -49.8135   32.8900 C.3       5 GLC5        0.0000 
     55 CA        -64.5140  -49.4410   34.8810 C.3      15 GLL5        0.0000 
     56 CA        -62.8350  -50.1860   30.8990 C.3      10 GLP5        0.0000 
     57 CA        -65.5310  -50.8535   33.5860 C.3       5 GLC5        0.0000 
     58 CA        -66.5480  -52.2660   32.2910 C.3      10 GLP5        0.0000 
     59 O         -63.7840  -51.1715   36.6245 O.2       1 ALC1        0.0000 
     60 O         -64.7770  -50.7630   35.3690 O.2      11 ALL1        0.0000 
     61 N         -67.3795  -47.1245   30.9055 N.am      2 SEC2        0.0000 
     62 N         -66.9710  -48.5250   31.3950 N.am     12 SEL2        0.0000 
     63 N         -67.7880  -45.7240   30.4160 N.am      7 SEP2        0.0000 
     64 CA        -71.4635  -49.0360   31.5925 C.3       5 GLC5        0.0000 
     65 CA        -69.3760  -49.2210   31.5770 C.3      15 GLL5        0.0000 
     66 CA        -73.5510  -48.8510   31.6080 C.3      10 GLP5        0.0000 
     67 CA        -69.0140  -51.1080   31.3820 C.3       5 GLC5        0.0000 
     68 CA        -68.6520  -52.9950   31.1870 C.3      10 GLP5        0.0000 
     69 O         -69.1055  -48.1900   29.5600 O.2       1 ALC1        0.0000 
     70 O         -69.7240  -49.1950   30.2470 O.2      11 ALL1        0.0000 
     71 O         -68.4870  -47.1850   28.8730 O.2       6 ALP1        0.0000 
     72 O         -71.1380  -49.5185   29.7635 O.2       1 ALC1        0.0000 
     73 O         -72.5520  -49.8420   29.2800 O.2       6 ALP1        0.0000 
     74 N         -71.6345  -50.3465   32.4485 N.am      2 SEC2        0.0000 
     75 N         -70.3480  -49.5990   32.5040 N.am     12 SEL2        0.0000 
     76 N         -72.9210  -51.0940   32.3930 N.am      7 SEP2        0.0000 
     77 CA        -71.1175  -48.3290   33.8470 C.3       5 GLC5        0.0000 
     78 CA        -69.9990  -49.6050   33.7670 C.3      15 GLL5        0.0000 
     79 CA        -72.2360  -47.0530   33.9270 C.3      10 GLP5        0.0000 
     80 CA        -71.5820  -51.0285   33.3255 C.3       5 GLC5        0.0000 
     81 CA        -73.1650  -52.4520   32.8840 C.3      10 GLP5        0.0000 
     82 CA        -68.9595  -51.2645   33.1330 C.3       5 GLC5        0.0000 
     83 CA        -67.9200  -52.9240   32.4990 C.3      10 GLP5        0.0000 
     84 CA        -66.3105  -50.1185   36.1470 C.3       5 GLC5        0.0000 
     85 CA        -65.7560  -48.5350   34.8210 C.3      15 GLL5        0.0000 
     86 CA        -67.4860  -51.2490   37.4430 C.3      10 GLP5        0.0000 
     87 CA        -67.2528  -50.6012   32.4595 C.3       5 GLC5        0.0000 
     88 CA        -67.7950  -48.9340   33.3030 C.3      15 GLL5        0.0000 
@<TRIPOS>BOND
@<TRIPOS>SUBSTRUCTURE
     1 ALC1       49 GROUP        1 X    ALC  0     ROOT ALC X 1
     2 SEC2        4 GROUP        1 X    SEC  0     **** SEC X 2
     3 LYC4        1 GROUP        1 X    LYC  0     **** LYC X 4
     4 ZIC7        7 GROUP        1 X    ZIC  0     **** ZIC X 5
     5 GLC5       33 GROUP        1 X    GLC  0     **** GLC X 6
     6 ALP1       51 GROUP        1 Y    ALP  0     ROOT ALP Y 8
     7 SEP2        6 GROUP        1 Y    SEP  0     **** SEP Y 9
     8 LYP4        3 GROUP        1 Y    LYP  0     **** LYP Y 11
     9 ZIP7        9 GROUP        1 Y    ZIP  0     **** ZIP Y 12
    10 GLP5       35 GROUP        1 Y    GLP  0     **** GLP Y 13
    11 ALL1       50 GROUP        1 Z    ALL  0     ROOT ALL Z 15
    12 SEL2        5 GROUP        1 Z    SEL  0     **** SEL Z 16
    13 LYL4        2 GROUP        1 Z    LYL  0     **** LYL Z 18
    14 ZIL7        8 GROUP        1 Z    ZIL  0     **** ZIL Z 19
    15 GLL5       34 GROUP        1 Z    GLL  0     **** GLL Z 20
@<TRIPOS>SET

