#    Name: 2afk_ACP_1_ligand
#    Modification time : Mon Mar 24 19:11:21 2014

@<TRIPOS>MOLECULE
2afk_ACP_1_ligand
   45    47     1     0     0
SMALL
NO_CHARGES


@<TRIPOS>ATOM
      1 PG        -57.7860  -42.4230   33.6020 P.3       1 ACP1292     0.0000 
      2 O1G       -58.2020  -41.1560   32.9030 O.co2     1 ACP1292     0.0000 
      3 O2G       -56.7810  -43.2190   32.6680 O.co2     1 ACP1292     0.0000 
      4 O3G       -57.1560  -42.1030   34.9100 O.co2     1 ACP1292     0.0000 
      5 PB        -60.1080  -44.0540   32.4280 P.3       1 ACP1292     0.0000 
      6 O1B       -59.1600  -44.8970   31.6250 O.co2     1 ACP1292     0.0000 
      7 O2B       -60.7720  -42.9040   31.6580 O.co2     1 ACP1292     0.0000 
      8 C3B       -59.1850  -43.5090   33.8560 C.3       1 ACP1292     0.0000 
      9 PA        -61.3210  -46.4970   33.2260 P.3       1 ACP1292     0.0000 
     10 O1A       -60.2530  -46.8680   34.1450 O.co2     1 ACP1292     0.0000 
     11 O2A       -61.2180  -47.1950   31.9730 O.co2     1 ACP1292     0.0000 
     12 O3A       -61.2360  -44.9450   32.9850 O.3       1 ACP1292     0.0000 
     13 O5'       -62.7840  -46.6440   33.8720 O.3       1 ACP1292     0.0000 
     14 C5'       -63.0150  -46.2840   35.2500 C.3       1 ACP1292     0.0000 
     15 C4'       -64.0450  -47.2320   35.8680 C.3       1 ACP1292     0.0000 
     16 O4'       -65.3260  -47.1770   35.1340 O.3       1 ACP1292     0.0000 
     17 C3'       -63.6120  -48.7260   35.9030 C.3       1 ACP1292     0.0000 
     18 O3'       -63.7240  -49.2910   37.2160 O.3       1 ACP1292     0.0000 
     19 C2'       -64.5140  -49.4410   34.8810 C.3       1 ACP1292     0.0000 
     20 O2'       -64.7770  -50.7630   35.3690 O.3       1 ACP1292     0.0000 
     21 C1'       -65.7560  -48.5350   34.8210 C.3       1 ACP1292     0.0000 
     22 N9        -66.5650  -48.6250   33.5150 N.pl3     1 ACP1292     0.0000 
     23 C8        -66.0630  -48.3640   32.3070 C.2       1 ACP1292     0.0000 
     24 N7        -66.9710  -48.5250   31.3950 N.2       1 ACP1292     0.0000 
     25 C5        -68.1200  -48.9390   31.9530 C.ar      1 ACP1292     0.0000 
     26 C6        -69.3760  -49.2210   31.5770 C.ar      1 ACP1292     0.0000 
     27 N6        -69.7240  -49.1950   30.2470 N.pl3     1 ACP1292     0.0000 
     28 N1        -70.3480  -49.5990   32.5040 N.ar      1 ACP1292     0.0000 
     29 C2        -69.9990  -49.6050   33.7670 C.ar      1 ACP1292     0.0000 
     30 N3        -68.8180  -49.3340   34.1540 N.ar      1 ACP1292     0.0000 
     31 C4        -67.7950  -48.9340   33.3030 C.ar      1 ACP1292     0.0000 
     32 H         -59.8722  -42.9815   34.4850 H         1 ACP1292     0.0000 
     33 H         -58.8068  -44.3893   34.3337 H         1 ACP1292     0.0000 
     34 H         -63.4008  -45.2638   35.3378 H         1 ACP1292     0.0000 
     35 H         -62.0966  -46.3528   35.8410 H         1 ACP1292     0.0000 
     36 H         -64.2286  -46.9296   36.9021 H         1 ACP1292     0.0000 
     37 H         -62.6014  -48.7651   35.5197 H         1 ACP1292     0.0000 
     38 H         -64.0211  -49.4122   33.9490 H         1 ACP1292     0.0000 
     39 H         -66.4235  -48.8772   35.6483 H         1 ACP1292     0.0000 
     40 H         -65.1239  -48.0870   32.1501 H         1 ACP1292     0.0000 
     41 H         -70.4792  -49.7927   29.9780 H         1 ACP1292     0.0000 
     42 H         -69.1914  -48.5807   29.6648 H         1 ACP1292     0.0000 
     43 H         -70.7558  -49.8518   34.4953 H         1 ACP1292     0.0000 
     44 H         -62.9218  -49.8800   37.3134 H         1 ACP1292     0.0000 
     45 H         -64.5276  -50.7358   36.3370 H         1 ACP1292     0.0000 
@<TRIPOS>BOND
     1    2    1 ar   
     2    3    1 ar   
     3    4    1 ar   
     4    8    1 1    
     5    6    5 ar   
     6    7    5 ar   
     7    8    5 1    
     8   12    5 1    
     9   32    8 1    
    10   33    8 1    
    11   10    9 ar   
    12   11    9 ar   
    13   12    9 1    
    14   13    9 1    
    15   14   13 1    
    16   15   14 1    
    17   34   14 1    
    18   35   14 1    
    19   16   15 1    
    20   17   15 1    
    21   36   15 1    
    22   21   16 1    
    23   18   17 1    
    24   19   17 1    
    25   37   17 1    
    26   44   18 1    
    27   20   19 1    
    28   21   19 1    
    29   38   19 1    
    30   45   20 1    
    31   22   21 1    
    32   39   21 1    
    33   23   22 1    
    34   31   22 1    
    35   24   23 2    
    36   40   23 1    
    37   25   24 1    
    38   26   25 ar   
    39   31   25 ar   
    40   27   26 1    
    41   28   26 ar   
    42   41   27 1    
    43   42   27 1    
    44   29   28 ar   
    45   30   29 ar   
    46   43   29 1    
    47   31   30 ar   
@<TRIPOS>SUBSTRUCTURE
     1 ACP1292     1 GROUP   
@<TRIPOS>SET

