#    Name: 4htf_SAM_2_INTS_M
#    Modification time : Tue Mar 25 01:38:47 2014

@<TRIPOS>MOLECULE
4htf_SAM_2_INTS_M
   65     0     9     0     0
SMALL
NO_CHARGES


@<TRIPOS>ATOM
      1 O          45.9570   37.4345   19.5430 O.2       1 ALC1        0.0000 
      2 O          45.7760   36.4650   18.5610 O.2       7 ALL1        0.0000 
      3 O          46.1380   38.4040   20.5250 O.2       4 ALP1        0.0000 
      4 O          44.3845   36.0300   19.0615 O.2       1 ALC1        0.0000 
      5 O          42.9930   35.5950   19.5620 O.2       4 ALP1        0.0000 
      6 O          45.5485   36.9835   17.2530 O.2       1 ALC1        0.0000 
      7 O          45.3210   37.5020   15.9450 O.2       4 ALP1        0.0000 
      8 CA         47.2555   37.7030   18.5625 C.3       3 GLC5        0.0000 
      9 CA         46.8750   35.5390   18.5270 C.3       9 GLL5        0.0000 
     10 CA         47.6360   39.8670   18.5980 C.3       6 GLP5        0.0000 
     11 N          44.9300   32.9680   17.2125 N.am      2 SEC2        0.0000 
     12 N          45.3860   34.4020   17.0800 N.am      8 SEL2        0.0000 
     13 N          44.4740   31.5340   17.3450 N.am      5 SEP2        0.0000 
     14 CA         44.4825   33.3785   20.5045 C.3       3 GLC5        0.0000 
     15 CA         46.3490   34.1490   20.7220 C.3       9 GLL5        0.0000 
     16 CA         42.6160   32.6080   20.2870 C.3       6 GLP5        0.0000 
     17 CA         44.5135   32.3855   21.4735 C.3       3 GLC5        0.0000 
     18 CA         46.4110   32.1630   22.6600 C.3       9 GLL5        0.0000 
     19 CA         44.9090   33.9555   24.5980 C.3       3 GLC5        0.0000 
     20 CA         46.3850   34.7910   23.2960 C.3       9 GLL5        0.0000 
     21 CA         43.4330   33.1200   25.9000 C.3       6 GLP5        0.0000 
     22 O          49.4985   37.7970   22.9870 O.2       1 ALC1        0.0000 
     23 O          49.6660   36.4120   23.2340 O.2       7 ALL1        0.0000 
     24 O          49.3310   39.1820   22.7400 O.2       4 ALP1        0.0000 
     25 O          50.0385   38.4790   25.2530 O.2       1 ALC1        0.0000 
     26 O          49.7360   37.1860   25.8820 O.2       7 ALL1        0.0000 
     27 O          50.3410   39.7720   24.6240 O.2       4 ALP1        0.0000 
     28 CA         46.5700   39.0030   23.4580 C.3       3 GLC5        0.0000 
     29 CA         47.4200   37.6660   25.0250 C.3       9 GLL5        0.0000 
     30 CA         45.7200   40.3400   21.8910 C.3       6 GLP5        0.0000 
     31 O          42.7660   42.3410   28.6935 O.2       1 ALC1        0.0000 
     32 O          43.6270   40.9860   28.4800 O.2       7 ALL1        0.0000 
     33 O          41.9050   43.6960   28.9070 O.2       4 ALP1        0.0000 
     34 N          44.3870   43.3015   26.5345 N.am      2 SEC2        0.0000 
     35 N          44.7920   41.8450   26.6260 N.am      8 SEL2        0.0000 
     36 N          43.9820   44.7580   26.4430 N.am      5 SEP2        0.0000 
     37 CA         45.6785   41.0065   23.7325 C.3       3 GLC5        0.0000 
     38 CA         45.6370   41.6730   25.5740 C.3       9 GLL5        0.0000 
     39 CA         47.4235   42.0740   24.6405 C.3       3 GLC5        0.0000 
     40 CA         49.2100   42.4750   23.7070 C.3       6 GLP5        0.0000 
     41 CA         46.6735   41.7500   27.3195 C.3       3 GLC5        0.0000 
     42 CA         47.7100   41.8270   29.0650 C.3       6 GLP5        0.0000 
     43 CA         45.7020   43.3760   26.8125 C.3       3 GLC5        0.0000 
     44 CA         45.7670   45.0790   28.0510 C.3       6 GLP5        0.0000 
     45 CA         43.9350   42.8140   25.2735 C.3       3 GLC5        0.0000 
     46 CA         42.2330   43.9550   24.9730 C.3       6 GLP5        0.0000 
     47 N          47.8015   41.2340   25.7045 N.am      2 SEC2        0.0000 
     48 N          46.2750   40.5220   25.3550 N.am      8 SEL2        0.0000 
     49 N          49.3280   41.9460   26.0540 N.am      5 SEP2        0.0000 
     50 CA         45.8700   39.8695   23.9810 C.3       3 GLC5        0.0000 
     51 CA         46.0200   39.3990   26.0710 C.3       9 GLL5        0.0000 
     52 CA         47.4780   40.3160   27.2240 C.3       3 GLC5        0.0000 
     53 CA         48.9360   41.2330   28.3770 C.3       6 GLP5        0.0000 
     54 CA         48.7327   36.4698   19.6420 C.3       3 GLC5        0.0000 
     55 CA         47.3200   35.0300   19.9010 C.3       9 GLL5        0.0000 
     56 CA         50.3680   37.6550   20.0700 C.3       6 GLP5        0.0000 
     57 CA         44.9582   36.4750   22.8135 C.3       3 GLC5        0.0000 
     58 CA         47.2220   36.0750   23.3560 C.3       9 GLL5        0.0000 
     59 CA         43.1130   37.5170   22.3010 C.3       6 GLP5        0.0000 
     60 CA         45.9420   40.4492   28.6290 C.3       3 GLC5        0.0000 
     61 CA         45.0940   39.4830   27.2050 C.3       9 GLL5        0.0000 
     62 CA         47.0970   40.7540   29.9340 C.3       6 GLP5        0.0000 
     63 CA         43.9133   39.0209   25.6358 C.3       3 GLC5        0.0000 
     64 CA         44.4800   40.8060   27.4430 C.3       9 GLL5        0.0000 
     65 CA         42.4230   38.2700   24.5740 C.3       6 GLP5        0.0000 
@<TRIPOS>BOND
@<TRIPOS>SUBSTRUCTURE
     1 ALC1        1 GROUP        1 X    ALC  0     ROOT ALC X 1
     2 SEC2       11 GROUP        1 X    SEC  0     **** SEC X 2
     3 GLC5        8 GROUP        1 X    GLC  0     **** GLC X 6
     4 ALP1        3 GROUP        1 Y    ALP  0     ROOT ALP Y 8
     5 SEP2       13 GROUP        1 Y    SEP  0     **** SEP Y 9
     6 GLP5       10 GROUP        1 Y    GLP  0     **** GLP Y 13
     7 ALL1        2 GROUP        1 Z    ALL  0     ROOT ALL Z 15
     8 SEL2       12 GROUP        1 Z    SEL  0     **** SEL Z 16
     9 GLL5        9 GROUP        1 Z    GLL  0     **** GLL Z 20
@<TRIPOS>SET

