#    Name: 4htf_SAM_2_ligand
#    Modification time : Tue Mar 25 01:38:47 2014

@<TRIPOS>MOLECULE
4htf_SAM_2_ligand
   50    52     1     0     0
SMALL
NO_CHARGES


@<TRIPOS>ATOM
      1 N          45.7760   36.4650   18.5610 N.4       1 SAM301      0.0000 
      2 CA         46.8750   35.5390   18.5270 C.3       1 SAM301      0.0000 
      3 C          46.5090   34.3810   17.6360 C.2       1 SAM301      0.0000 
      4 O          47.3440   33.4750   17.5270 O.co2     1 SAM301      0.0000 
      5 OXT        45.3860   34.4020   17.0800 O.co2     1 SAM301      0.0000 
      6 CB         47.3200   35.0300   19.9010 C.3       1 SAM301      0.0000 
      7 CG         46.3490   34.1490   20.7220 C.3       1 SAM301      0.0000 
      8 SD         46.9820   33.6670   22.2110 S.3       1 SAM301      0.0000 
      9 CE         46.4110   32.1630   22.6600 C.3       1 SAM301      0.0000 
     10 C5'        46.3850   34.7910   23.2960 C.3       1 SAM301      0.0000 
     11 C4'        47.2220   36.0750   23.3560 C.3       1 SAM301      0.0000 
     12 O4'        46.4860   37.0210   24.1210 O.3       1 SAM301      0.0000 
     13 C3'        48.5830   35.8870   24.0460 C.3       1 SAM301      0.0000 
     14 O3'        49.6660   36.4120   23.2340 O.3       1 SAM301      0.0000 
     15 C2'        48.4730   36.6280   25.3740 C.3       1 SAM301      0.0000 
     16 O2'        49.7360   37.1860   25.8820 O.3       1 SAM301      0.0000 
     17 C1'        47.4200   37.6660   25.0250 C.3       1 SAM301      0.0000 
     18 N9         46.5390   38.1600   26.0960 N.pl3     1 SAM301      0.0000 
     19 C8         45.9330   37.4460   27.0920 C.2       1 SAM301      0.0000 
     20 N7         45.0960   38.2630   27.8050 N.2       1 SAM301      0.0000 
     21 C5         45.0940   39.4830   27.2050 C.ar      1 SAM301      0.0000 
     22 C6         44.4800   40.8060   27.4430 C.ar      1 SAM301      0.0000 
     23 N6         43.6270   40.9860   28.4800 N.pl3     1 SAM301      0.0000 
     24 N1         44.7920   41.8450   26.6260 N.ar      1 SAM301      0.0000 
     25 C2         45.6370   41.6730   25.5740 C.ar      1 SAM301      0.0000 
     26 N3         46.2750   40.5220   25.3550 N.ar      1 SAM301      0.0000 
     27 C4         46.0200   39.3990   26.0710 C.ar      1 SAM301      0.0000 
     28 H          47.7545   36.0250   18.0609 H         1 SAM301      0.0000 
     29 H          47.6027   35.9133   20.5335 H         1 SAM301      0.0000 
     30 H          48.2798   34.4614   19.7763 H         1 SAM301      0.0000 
     31 H          46.1151   33.2330   20.1962 H         1 SAM301      0.0000 
     32 H          45.4384   34.6849   20.9538 H         1 SAM301      0.0000 
     33 H          46.3667   34.2903   24.2574 H         1 SAM301      0.0000 
     34 H          45.3707   34.9995   22.9748 H         1 SAM301      0.0000 
     35 H          47.3840   36.4321   22.3605 H         1 SAM301      0.0000 
     36 H          48.7017   34.8428   24.2553 H         1 SAM301      0.0000 
     37 H          48.0125   35.9410   26.0761 H         1 SAM301      0.0000 
     38 H          47.8730   38.4880   24.5019 H         1 SAM301      0.0000 
     39 H          46.0732   36.5054   27.2680 H         1 SAM301      0.0000 
     40 H          43.2745   41.9136   28.6039 H         1 SAM301      0.0000 
     41 H          43.4254   40.1754   29.0298 H         1 SAM301      0.0000 
     42 H          45.7858   42.4860   24.9137 H         1 SAM301      0.0000 
     43 H          45.5621   36.8211   17.6513 H         1 SAM301      0.0000 
     44 H          44.9423   36.0392   18.9127 H         1 SAM301      0.0000 
     45 H          45.9718   37.2525   19.1454 H         1 SAM301      0.0000 
     46 H          46.6557   31.4587   21.9936 H         1 SAM301      0.0000 
     47 H          46.7819   31.8732   23.5423 H         1 SAM301      0.0000 
     48 H          45.4145   32.1538   22.7436 H         1 SAM301      0.0000 
     49 H          49.4528   37.3816   23.1141 H         1 SAM301      0.0000 
     50 H          49.8315   38.0695   25.4234 H         1 SAM301      0.0000 
@<TRIPOS>BOND
     1    2    1 1    
     2   43    1 1    
     3   44    1 1    
     4   45    1 1    
     5    3    2 1    
     6    6    2 1    
     7   28    2 1    
     8    4    3 ar   
     9    5    3 ar   
    10    7    6 1    
    11   29    6 1    
    12   30    6 1    
    13    8    7 1    
    14   31    7 1    
    15   32    7 1    
    16    9    8 1    
    17   10    8 1    
    18   46    9 1    
    19   47    9 1    
    20   48    9 1    
    21   11   10 1    
    22   33   10 1    
    23   34   10 1    
    24   12   11 1    
    25   13   11 1    
    26   35   11 1    
    27   17   12 1    
    28   14   13 1    
    29   15   13 1    
    30   36   13 1    
    31   49   14 1    
    32   16   15 1    
    33   17   15 1    
    34   37   15 1    
    35   50   16 1    
    36   18   17 1    
    37   38   17 1    
    38   19   18 1    
    39   27   18 1    
    40   20   19 2    
    41   39   19 1    
    42   21   20 1    
    43   22   21 ar   
    44   27   21 ar   
    45   23   22 1    
    46   24   22 ar   
    47   40   23 1    
    48   41   23 1    
    49   25   24 ar   
    50   26   25 ar   
    51   42   25 1    
    52   27   26 ar   
@<TRIPOS>SUBSTRUCTURE
     1 SAM301      1 GROUP   
@<TRIPOS>SET

