#    Name: 3tdk_UPG_6_INTS_M
#    Modification time : Mon Mar 24 19:38:00 2014

@<TRIPOS>MOLECULE
3tdk_UPG_6_INTS_M
   82     0    12     0     0
SMALL
NO_CHARGES


@<TRIPOS>ATOM
      1 O          55.3335  101.1415  119.6900 O.2       1 ALC1        0.0000 
      2 O          55.9210   99.8980  119.7740 O.2       9 ALL1        0.0000 
      3 O          54.7460  102.3850  119.6060 O.2       5 ALP1        0.0000 
      4 CA         54.3250   96.6950  120.9090 C.3       4 GLC5        0.0000 
      5 CA         55.9210   97.8210  120.9540 C.3      12 GLL5        0.0000 
      6 CA         52.7290   95.5690  120.8640 C.3       8 GLP5        0.0000 
      7 CA         55.7795   95.8470  120.0610 C.3       4 GLC5        0.0000 
      8 CA         57.0870   97.4570  120.2980 C.3      12 GLL5        0.0000 
      9 CA         54.4720   94.2370  119.8240 C.3       8 GLP5        0.0000 
     10 N          58.0340  101.3425  117.7030 N.am      2 SEC2        0.0000 
     11 N          57.5390  100.3350  118.2950 N.am     10 SEL2        0.0000 
     12 N          58.5290  102.3500  117.1110 N.am      6 SEP2        0.0000 
     13 N          53.4075  100.6975  121.3565 N.am      2 SEC2        0.0000 
     14 N          54.2990   99.4050  121.2740 N.am     10 SEL2        0.0000 
     15 N          52.5160  101.9900  121.4390 N.am      6 SEP2        0.0000 
     16 CA         57.1320   97.3045  117.8775 C.3       4 GLC5        0.0000 
     17 CA         58.8980   97.9210  118.6830 C.3      12 GLL5        0.0000 
     18 CA         55.3660   96.6880  117.0720 C.3       8 GLP5        0.0000 
     19 CA         58.7815   97.6940  116.7880 C.3       4 GLC5        0.0000 
     20 CA         58.6650   97.4670  114.8930 C.3       8 GLP5        0.0000 
     21 N          60.7550  100.3695  120.0515 N.am      2 SEC2        0.0000 
     22 N          60.5850   99.0350  119.9340 N.am     10 SEL2        0.0000 
     23 N          60.9250  101.7040  120.1690 N.am      6 SEP2        0.0000 
     24 N          61.7780   99.9000  119.7480 N.am      2 SEC2        0.0000 
     25 N          62.9710  100.7650  119.5620 N.am      6 SEP2        0.0000 
     26 CA         59.3455   96.6895  116.5275 C.3       4 GLC5        0.0000 
     27 CA         60.0260   95.9120  118.1620 C.3      12 GLL5        0.0000 
     28 CA         61.5430   96.0385  116.5195 C.3       4 GLC5        0.0000 
     29 CA         63.0600   96.1650  114.8770 C.3       8 GLP5        0.0000 
     30 N          61.9125   97.0660  116.7750 N.am      2 SEC2        0.0000 
     31 N          61.9730   97.2350  118.2960 N.am     10 SEL2        0.0000 
     32 N          61.8520   96.8970  115.2540 N.am      6 SEP2        0.0000 
     33 CA         58.1265   93.8405  117.6585 C.3       4 GLC5        0.0000 
     34 CA         59.7130   94.5050  118.6690 C.3      12 GLL5        0.0000 
     35 CA         56.5400   93.1760  116.6480 C.3       8 GLP5        0.0000 
     36 CA         61.6225   93.9580  118.8720 C.3       4 GLC5        0.0000 
     37 CA         63.5320   93.4110  119.0750 C.3       8 GLP5        0.0000 
     38 NZ         60.1440   93.3255  123.4210 N.4       3 LYC4        0.0000 
     39 NZ         58.7720   93.1410  122.2340 N.4      11 LYL4        0.0000 
     40 NZ         61.5160   93.5100  124.6080 N.4       7 LYP4        0.0000 
     41 N          62.0645   89.6915  122.1370 N.am      2 SEC2        0.0000 
     42 N          61.6860   90.0250  120.7030 N.am     10 SEL2        0.0000 
     43 N          62.4430   89.3580  123.5710 N.am      6 SEP2        0.0000 
     44 CA         54.7555   89.5905  119.5330 C.3       4 GLC5        0.0000 
     45 CA         56.6800   89.3750  120.4770 C.3      12 GLL5        0.0000 
     46 CA         52.8310   89.8060  118.5890 C.3       8 GLP5        0.0000 
     47 CA         56.9780   85.3285  120.7815 C.3       4 GLC5        0.0000 
     48 CA         57.3090   87.1540  119.6280 C.3      12 GLL5        0.0000 
     49 CA         56.6470   83.5030  121.9350 C.3       8 GLP5        0.0000 
     50 CA         59.9600   86.1320  116.9480 C.3       4 GLC5        0.0000 
     51 CA         59.1890   87.0500  118.1150 C.3      12 GLL5        0.0000 
     52 CA         60.7310   85.2140  115.7810 C.3       8 GLP5        0.0000 
     53 N          55.5755   90.3895  122.3980 N.am      2 SEC2        0.0000 
     54 N          56.4480   90.1320  121.6790 N.am     10 SEL2        0.0000 
     55 N          54.7030   90.6470  123.1170 N.am      6 SEP2        0.0000 
     56 N          54.6105   88.0485  121.8470 N.am      2 SEC2        0.0000 
     57 N          55.6700   87.3020  121.2450 N.am     10 SEL2        0.0000 
     58 N          53.5510   88.7950  122.4490 N.am      6 SEP2        0.0000 
     59 O          56.3060   86.4640  122.0985 O.2       1 ALC1        0.0000 
     60 O          55.6700   87.3020  121.2450 O.2       9 ALL1        0.0000 
     61 O          56.9420   85.6260  122.9520 O.2       5 ALP1        0.0000 
     62 N          57.2465   84.8460  118.7365 N.am      2 SEC2        0.0000 
     63 N          57.6770   85.8240  119.9450 N.am     10 SEL2        0.0000 
     64 N          56.8160   83.8680  117.5280 N.am      6 SEP2        0.0000 
     65 O          58.7680   86.0865  121.0975 O.2       1 ALC1        0.0000 
     66 O          57.6770   85.8240  119.9450 O.2       9 ALL1        0.0000 
     67 O          59.8590   86.3490  122.2500 O.2       5 ALP1        0.0000 
     68 CA         55.9350   97.1635  118.8490 C.3       4 GLC5        0.0000 
     69 CA         61.8445   96.8667  120.7723 C.3       4 GLC5        0.0000 
     70 CA         60.0030   97.7520  119.7120 C.3      12 GLL5        0.0000 
     71 CA         63.2270   96.5090  122.1350 C.3       8 GLP5        0.0000 
     72 CA         62.2233   95.4183  118.5272 C.3       4 GLC5        0.0000 
     73 CA         60.9210   96.6970  119.1070 C.3      12 GLL5        0.0000 
     74 CA         63.9730   94.5320  118.4200 C.3       8 GLP5        0.0000 
     75 CA         56.7368   90.7660  118.5705 C.3       4 GLC5        0.0000 
     76 CA         56.1860   91.8680  117.0500 C.3       8 GLP5        0.0000 
     77 CA         58.0551   89.2895  122.1492 C.3       4 GLC5        0.0000 
     78 CA         57.8950   89.9530  119.7050 C.3      12 GLL5        0.0000 
     79 CA         59.0230   89.7960  123.8280 C.3       8 GLP5        0.0000 
     80 CA         58.7845   87.5733  116.7662 C.3       4 GLC5        0.0000 
     81 CA         58.5390   87.8630  119.1700 C.3      12 GLL5        0.0000 
     82 CA         58.7050   87.6900  114.8900 C.3       8 GLP5        0.0000 
@<TRIPOS>BOND
@<TRIPOS>SUBSTRUCTURE
     1 ALC1        1 GROUP        1 X    ALC  0     ROOT ALC X 1
     2 SEC2       10 GROUP        1 X    SEC  0     **** SEC X 2
     3 LYC4       38 GROUP        1 X    LYC  0     **** LYC X 4
     4 GLC5        4 GROUP        1 X    GLC  0     **** GLC X 6
     5 ALP1        3 GROUP        1 Y    ALP  0     ROOT ALP Y 8
     6 SEP2       12 GROUP        1 Y    SEP  0     **** SEP Y 9
     7 LYP4       40 GROUP        1 Y    LYP  0     **** LYP Y 11
     8 GLP5        6 GROUP        1 Y    GLP  0     **** GLP Y 13
     9 ALL1        2 GROUP        1 Z    ALL  0     ROOT ALL Z 15
    10 SEL2       11 GROUP        1 Z    SEL  0     **** SEL Z 16
    11 LYL4       39 GROUP        1 Z    LYL  0     **** LYL Z 18
    12 GLL5        5 GROUP        1 Z    GLL  0     **** GLL Z 20
@<TRIPOS>SET

