#    Name: 3tdk_UPG_6_ligand
#    Modification time : Mon Mar 24 19:38:01 2014

@<TRIPOS>MOLECULE
3tdk_UPG_6_ligand
   58    60     1     0     0
SMALL
NO_CHARGES


@<TRIPOS>ATOM
      1 N1         57.6500   98.2960  119.3920 N.am      1 UPG501      0.0000 
      2 C2         57.0420   99.5490  119.1250 C.2       1 UPG501      0.0000 
      3 N3         55.9210   99.8980  119.7740 N.am      1 UPG501      0.0000 
      4 C4         55.3530   99.0640  120.6760 C.2       1 UPG501      0.0000 
      5 C5         55.9210   97.8210  120.9540 C.2       1 UPG501      0.0000 
      6 C6         57.0870   97.4570  120.2980 C.2       1 UPG501      0.0000 
      7 O2         57.5390  100.3350  118.2950 O.2       1 UPG501      0.0000 
      8 O4         54.2990   99.4050  121.2740 O.2       1 UPG501      0.0000 
      9 C1C        58.8980   97.9210  118.6830 C.3       1 UPG501      0.0000 
     10 C2C        60.0030   97.7520  119.7120 C.3       1 UPG501      0.0000 
     11 O2C        60.5850   99.0350  119.9340 O.3       1 UPG501      0.0000 
     12 C3C        60.9210   96.6970  119.1070 C.3       1 UPG501      0.0000 
     13 C4C        60.0260   95.9120  118.1620 C.3       1 UPG501      0.0000 
     14 O4C        58.8430   96.6800  117.9480 O.3       1 UPG501      0.0000 
     15 O3C        61.9730   97.2350  118.2960 O.3       1 UPG501      0.0000 
     16 C5C        59.7130   94.5050  118.6690 C.3       1 UPG501      0.0000 
     17 O5C        59.5430   94.4830  120.0770 O.3       1 UPG501      0.0000 
     18 PA         59.0820   93.1010  120.7590 P.3       1 UPG501      0.0000 
     19 O1A        57.8860   92.5980  119.9870 O.co2     1 UPG501      0.0000 
     20 O2A        58.7720   93.1410  122.2340 O.co2     1 UPG501      0.0000 
     21 O3A        60.4220   92.2190  120.6410 O.3       1 UPG501      0.0000 
     22 PB         60.5240   90.7320  120.0520 P.3       1 UPG501      0.0000 
     23 O1B        60.6300   90.8360  118.5530 O.co2     1 UPG501      0.0000 
     24 O2B        61.6860   90.0250  120.7030 O.co2     1 UPG501      0.0000 
     25 O3B        59.1370   89.9890  120.4770 O.3       1 UPG501      0.0000 
     26 C1'        57.8950   89.9530  119.7050 C.3       1 UPG501      0.0000 
     27 C2'        56.6800   89.3750  120.4770 C.3       1 UPG501      0.0000 
     28 C3'        56.8870   87.9020  120.8500 C.3       1 UPG501      0.0000 
     29 C4'        57.3090   87.1540  119.6280 C.3       1 UPG501      0.0000 
     30 C5'        58.5390   87.8630  119.1700 C.3       1 UPG501      0.0000 
     31 C6'        59.1890   87.0500  118.1150 C.3       1 UPG501      0.0000 
     32 O2'        56.4480   90.1320  121.6790 O.3       1 UPG501      0.0000 
     33 O3'        55.6700   87.3020  121.2450 O.3       1 UPG501      0.0000 
     34 O4'        57.6770   85.8240  119.9450 O.3       1 UPG501      0.0000 
     35 O5'        58.1260   89.1080  118.5970 O.3       1 UPG501      0.0000 
     36 O6'        60.2700   87.9040  117.7760 O.3       1 UPG501      0.0000 
     37 H          55.4751  100.8276  119.5838 H         1 UPG501      0.0000 
     38 H          55.4835   97.1933  121.6287 H         1 UPG501      0.0000 
     39 H          57.5192   96.5397  120.5091 H         1 UPG501      0.0000 
     40 H          59.2096   98.7340  118.0320 H         1 UPG501      0.0000 
     41 H          59.5433   97.3427  120.5925 H         1 UPG501      0.0000 
     42 H          61.2584   96.0401  119.8565 H         1 UPG501      0.0000 
     43 H          60.5744   95.8120  117.2124 H         1 UPG501      0.0000 
     44 H          60.5388   93.8458  118.3453 H         1 UPG501      0.0000 
     45 H          58.8065   94.1575  118.1410 H         1 UPG501      0.0000 
     46 H          57.6300   90.9424  119.3690 H         1 UPG501      0.0000 
     47 H          55.8154   89.4338  119.8217 H         1 UPG501      0.0000 
     48 H          57.6397   87.8240  121.5862 H         1 UPG501      0.0000 
     49 H          56.5706   87.2262  118.8861 H         1 UPG501      0.0000 
     50 H          59.1961   88.0039  119.9857 H         1 UPG501      0.0000 
     51 H          58.5138   86.9150  117.3031 H         1 UPG501      0.0000 
     52 H          59.5207   86.1276  118.5303 H         1 UPG501      0.0000 
     53 H          60.8042   99.0544  120.9095 H         1 UPG501      0.0000 
     54 H          62.0024   98.2085  118.5228 H         1 UPG501      0.0000 
     55 H          56.8137   91.0425  121.4859 H         1 UPG501      0.0000 
     56 H          55.9254   86.6362  121.9461 H         1 UPG501      0.0000 
     57 H          58.3371   85.9092  120.6914 H         1 UPG501      0.0000 
     58 H          60.0257   88.7949  118.1589 H         1 UPG501      0.0000 
@<TRIPOS>BOND
     1    2    1 1    
     2    6    1 1    
     3    9    1 1    
     4    3    2 1    
     5    7    2 2    
     6    4    3 1    
     7   37    3 1    
     8    5    4 1    
     9    8    4 2    
    10    6    5 2    
    11   38    5 1    
    12   39    6 1    
    13   10    9 1    
    14   14    9 1    
    15   40    9 1    
    16   11   10 1    
    17   12   10 1    
    18   41   10 1    
    19   53   11 1    
    20   13   12 1    
    21   15   12 1    
    22   42   12 1    
    23   14   13 1    
    24   16   13 1    
    25   43   13 1    
    26   54   15 1    
    27   17   16 1    
    28   44   16 1    
    29   45   16 1    
    30   18   17 1    
    31   19   18 ar   
    32   20   18 ar   
    33   21   18 1    
    34   22   21 1    
    35   23   22 ar   
    36   24   22 ar   
    37   25   22 1    
    38   26   25 1    
    39   27   26 1    
    40   35   26 1    
    41   46   26 1    
    42   28   27 1    
    43   32   27 1    
    44   47   27 1    
    45   29   28 1    
    46   33   28 1    
    47   48   28 1    
    48   30   29 1    
    49   34   29 1    
    50   49   29 1    
    51   31   30 1    
    52   35   30 1    
    53   50   30 1    
    54   36   31 1    
    55   51   31 1    
    56   52   31 1    
    57   55   32 1    
    58   56   33 1    
    59   57   34 1    
    60   58   36 1    
@<TRIPOS>SUBSTRUCTURE
     1 UPG501      1 GROUP   
@<TRIPOS>SET

