#    Name: 1ldc_FMN_1_INTS_M
#    Modification time : Mon Apr  7 13:59:24 2014

@<TRIPOS>MOLECULE
1ldc_FMN_1_INTS_M
   77     0    12     0     0
SMALL
NO_CHARGES


@<TRIPOS>ATOM
      1 N          72.8295   58.8385    2.5720 N.am      2 SEC2        0.0000 
      2 N          71.6250   58.1510    2.2290 N.am     10 SEL2        0.0000 
      3 N          74.0340   59.5260    2.9150 N.am      6 SEP2        0.0000 
      4 N          70.9490   59.3575    1.4600 N.am      2 SEC2        0.0000 
      5 N          70.2730   60.5640    0.6910 N.am      6 SEP2        0.0000 
      6 O          72.6375   55.5010    2.0560 O.2       1 ALC1        0.0000 
      7 O          71.1270   55.9310    2.3640 O.2       9 ALL1        0.0000 
      8 O          74.1480   55.0710    1.7480 O.2       5 ALP1        0.0000 
      9 N          71.5015   52.9330    2.0845 N.am      2 SEC2        0.0000 
     10 N          70.6530   53.7820    2.5650 N.am     10 SEL2        0.0000 
     11 N          72.3500   52.0840    1.6040 N.am      6 SEP2        0.0000 
     12 N          68.1905   52.7720    1.6380 N.am      2 SEC2        0.0000 
     13 N          67.9580   54.2770    2.3830 N.am     10 SEL2        0.0000 
     14 N          68.4230   51.2670    0.8930 N.am      6 SEP2        0.0000 
     15 CA         64.1345   50.9245    2.4390 C.3       4 GLC5        0.0000 
     16 CA         63.7740   52.3510    1.3030 C.3      12 GLL5        0.0000 
     17 CA         64.4950   49.4980    3.5750 C.3       8 GLP5        0.0000 
     18 CA         62.9225   50.9390    0.4610 C.3       4 GLC5        0.0000 
     19 CA         62.0710   49.5270   -0.3810 C.3       8 GLP5        0.0000 
     20 CA         63.4795   52.1805   -0.6605 C.3       4 GLC5        0.0000 
     21 CA         63.1850   52.0100   -2.6240 C.3       8 GLP5        0.0000 
     22 CA         61.2175   55.3410   -0.5325 C.3       4 GLC5        0.0000 
     23 CA         62.8880   55.1630    0.2740 C.3      12 GLL5        0.0000 
     24 CA         59.5470   55.5190   -1.3390 C.3       8 GLP5        0.0000 
     25 CA         66.6385   58.2665    2.7040 C.3       4 GLC5        0.0000 
     26 CA         66.6900   57.8880    0.7390 C.3      12 GLL5        0.0000 
     27 CA         66.5870   58.6450    4.6690 C.3       8 GLP5        0.0000 
     28 CA         69.2885   59.5250   -0.4420 C.3       4 GLC5        0.0000 
     29 CA         67.4430   58.5750   -0.4040 C.3      12 GLL5        0.0000 
     30 CA         71.1340   60.4750   -0.4800 C.3       8 GLP5        0.0000 
     31 N          69.3525   57.0595   -2.1625 N.am      2 SEC2        0.0000 
     32 N          68.2390   57.8770   -1.2430 N.am     10 SEL2        0.0000 
     33 N          70.4660   56.2420   -3.0820 N.am      6 SEP2        0.0000 
     34 O          68.6085   56.6155   -1.1850 O.2       1 ALC1        0.0000 
     35 O          68.2390   57.8770   -1.2430 O.2       9 ALL1        0.0000 
     36 O          68.9780   55.3540   -1.1270 O.2       5 ALP1        0.0000 
     37 O          67.4925   61.5445   -1.8290 O.2       1 ALC1        0.0000 
     38 O          66.9190   60.7200   -0.9510 O.2       9 ALL1        0.0000 
     39 O          68.0660   62.3690   -2.7070 O.2       5 ALP1        0.0000 
     40 CA         65.6470   61.8095   -3.2415 C.3       4 GLC5        0.0000 
     41 CA         64.6560   60.3320   -2.2480 C.3      12 GLL5        0.0000 
     42 CA         66.6380   63.2870   -4.2350 C.3       8 GLP5        0.0000 
     43 CA         63.7230   61.9415   -2.6210 C.3       4 GLC5        0.0000 
     44 CA         62.7900   63.5510   -2.9940 C.3       8 GLP5        0.0000 
     45 NZ         61.1855   57.5120   -1.8725 N.4       3 LYC4        0.0000 
     46 NZ         62.3230   58.1820   -2.7030 N.4      11 LYL4        0.0000 
     47 NZ         59.9370   57.3330    0.1970 N.4       7 LYP4        0.0000 
     48 N          62.3990   57.0215   -3.4665 N.am      2 SEC2        0.0000 
     49 N          62.3230   58.1820   -2.7030 N.am     10 SEL2        0.0000 
     50 N          62.4750   55.8610   -4.2300 N.am      6 SEP2        0.0000 
     51 N          61.1855   57.5120   -1.8725 N.am      2 SEC2        0.0000 
     52 N          60.0480   56.8420   -1.0420 N.am      6 SEP2        0.0000 
     53 N          63.6575   58.9220   -4.8680 N.am      2 SEC2        0.0000 
     54 N          62.7300   60.0010   -4.3700 N.am     10 SEL2        0.0000 
     55 N          64.5850   57.8430   -5.3660 N.am      6 SEP2        0.0000 
     56 N          60.8340   61.8305   -3.3670 N.am      2 SEC2        0.0000 
     57 N          60.9470   60.3380   -2.6340 N.am     10 SEL2        0.0000 
     58 N          60.7210   63.3230   -4.1000 N.am      6 SEP2        0.0000 
     59 N          60.1780   61.3465   -1.7995 N.am      2 SEC2        0.0000 
     60 N          59.4090   62.3550   -0.9650 N.am      6 SEP2        0.0000 
     61 CA         67.3455   52.2565    2.5690 C.3       4 GLC5        0.0000 
     62 CA         66.6750   54.4710    1.9210 C.3      12 GLL5        0.0000 
     63 CA         68.4700   50.5390    3.1310 C.3       8 GLP5        0.0000 
     64 CA         63.3735   53.4905   -1.0543 C.3       4 GLC5        0.0000 
     65 CA         64.2360   54.7790    0.7570 C.3      12 GLL5        0.0000 
     66 CA         63.6484   55.9406    2.4912 C.3       4 GLC5        0.0000 
     67 CA         62.9350   56.6490    4.2790 C.3       8 GLP5        0.0000 
     68 CA         67.3587   53.7525    0.3240 C.3       4 GLC5        0.0000 
     69 CA         66.3120   55.6380    1.2590 C.3      12 GLL5        0.0000 
     70 CA         68.4510   52.6990   -0.9850 C.3       8 GLP5        0.0000 
     71 CA         67.4153   58.6591   -2.8760 C.3       4 GLC5        0.0000 
     72 CA         68.5830   58.2830   -4.3610 C.3       8 GLP5        0.0000 
     73 CA         63.9540   60.2850   -0.3788 C.3       4 GLC5        0.0000 
     74 CA         65.4060   59.0820   -1.9170 C.3      12 GLL5        0.0000 
     75 CA         62.8770   60.8630    1.3250 C.3       8 GLP5        0.0000 
     76 CA         64.8850   58.2165   -3.2717 C.3       4 GLC5        0.0000 
     77 CA         64.7390   56.7260   -4.4610 C.3       8 GLP5        0.0000 
@<TRIPOS>BOND
@<TRIPOS>SUBSTRUCTURE
     1 ALC1        6 GROUP        1 X    ALC  0     ROOT ALC X 1
     2 SEC2        1 GROUP        1 X    SEC  0     **** SEC X 2
     3 LYC4       45 GROUP        1 X    LYC  0     **** LYC X 4
     4 GLC5       15 GROUP        1 X    GLC  0     **** GLC X 6
     5 ALP1        8 GROUP        1 Y    ALP  0     ROOT ALP Y 8
     6 SEP2        3 GROUP        1 Y    SEP  0     **** SEP Y 9
     7 LYP4       47 GROUP        1 Y    LYP  0     **** LYP Y 11
     8 GLP5       17 GROUP        1 Y    GLP  0     **** GLP Y 13
     9 ALL1        7 GROUP        1 Z    ALL  0     ROOT ALL Z 15
    10 SEL2        2 GROUP        1 Z    SEL  0     **** SEL Z 16
    11 LYL4       46 GROUP        1 Z    LYL  0     **** LYL Z 18
    12 GLL5       16 GROUP        1 Z    GLL  0     **** GLL Z 20
@<TRIPOS>SET

