#    Name: 1ldc_FMN_1_ligand
#    Modification time : Mon Apr  7 13:59:25 2014

@<TRIPOS>MOLECULE
1ldc_FMN_1_ligand
   50    52     1     0     0
SMALL
NO_CHARGES


@<TRIPOS>ATOM
      1 N1         69.4410   57.3960    1.9620 N.2       1 FMN570      0.0000 
      2 C2         70.7990   57.2210    2.1690 C.2       1 FMN570      0.0000 
      3 O2         71.6250   58.1510    2.2290 O.2       1 FMN570      0.0000 
      4 N3         71.1270   55.9310    2.3640 N.am      1 FMN570      0.0000 
      5 C4         70.2140   54.9230    2.4000 C.2       1 FMN570      0.0000 
      6 O4         70.6530   53.7820    2.5650 O.2       1 FMN570      0.0000 
      7 C4A        68.8520   55.2970    2.2070 C.2       1 FMN570      0.0000 
      8 N5         67.9580   54.2770    2.3830 N.2       1 FMN570      0.0000 
      9 C5A        66.6750   54.4710    1.9210 C.ar      1 FMN570      0.0000 
     10 C6         65.7670   53.4770    2.0930 C.ar      1 FMN570      0.0000 
     11 C7         64.5860   53.6010    1.4190 C.ar      1 FMN570      0.0000 
     12 C7M        63.7740   52.3510    1.3030 C.3       1 FMN570      0.0000 
     13 C8         64.2360   54.7790    0.7570 C.ar      1 FMN570      0.0000 
     14 C8M        62.8880   55.1630    0.2740 C.3       1 FMN570      0.0000 
     15 C9         65.0740   55.7880    0.7260 C.ar      1 FMN570      0.0000 
     16 C9A        66.3120   55.6380    1.2590 C.ar      1 FMN570      0.0000 
     17 N10        67.1890   56.6940    1.1580 N.pl3     1 FMN570      0.0000 
     18 C10        68.4560   56.5030    1.7340 C.2       1 FMN570      0.0000 
     19 C1'        66.6900   57.8880    0.7390 C.3       1 FMN570      0.0000 
     20 C2'        67.4430   58.5750   -0.4040 C.3       1 FMN570      0.0000 
     21 O2'        68.2390   57.8770   -1.2430 O.3       1 FMN570      0.0000 
     22 C3'        66.7350   59.4020   -1.3260 C.3       1 FMN570      0.0000 
     23 O3'        66.9190   60.7200   -0.9510 O.3       1 FMN570      0.0000 
     24 C4'        65.4060   59.0820   -1.9170 C.3       1 FMN570      0.0000 
     25 O4'        64.6780   58.1180   -1.2790 O.3       1 FMN570      0.0000 
     26 C5'        64.6560   60.3320   -2.2480 C.3       1 FMN570      0.0000 
     27 O5'        63.2760   60.2430   -2.0490 O.3       1 FMN570      0.0000 
     28 P          62.2010   59.6470   -3.0190 P.3       1 FMN570      0.0000 
     29 O1P        62.3230   58.1820   -2.7030 O.co2     1 FMN570      0.0000 
     30 O2P        62.7300   60.0010   -4.3700 O.co2     1 FMN570      0.0000 
     31 O3P        60.9470   60.3380   -2.6340 O.co2     1 FMN570      0.0000 
     32 H          72.1525   55.6793    2.4977 H         1 FMN570      0.0000 
     33 H          65.9530   52.6786    2.6927 H         1 FMN570      0.0000 
     34 H          64.8108   56.7027    0.3012 H         1 FMN570      0.0000 
     35 H          66.6351   58.6515    1.5741 H         1 FMN570      0.0000 
     36 H          65.6132   57.8108    0.3956 H         1 FMN570      0.0000 
     37 H          68.1652   59.3419    0.1352 H         1 FMN570      0.0000 
     38 H          67.4691   59.3464   -2.3205 H         1 FMN570      0.0000 
     39 H          65.6858   58.6608   -2.9823 H         1 FMN570      0.0000 
     40 H          64.8996   60.6004   -3.3102 H         1 FMN570      0.0000 
     41 H          65.1036   61.1644   -1.6428 H         1 FMN570      0.0000 
     42 H          64.2706   51.6289    0.8214 H         1 FMN570      0.0000 
     43 H          63.5234   51.9864    2.1998 H         1 FMN570      0.0000 
     44 H          62.9229   52.5062    0.8014 H         1 FMN570      0.0000 
     45 H          62.8947   56.0571   -0.1738 H         1 FMN570      0.0000 
     46 H          62.5299   54.5057   -0.3891 H         1 FMN570      0.0000 
     47 H          62.2263   55.2148    1.0220 H         1 FMN570      0.0000 
     48 H          68.2683   56.9526   -0.8626 H         1 FMN570      0.0000 
     49 H          67.7405   61.0154   -1.4386 H         1 FMN570      0.0000 
     50 H          63.8180   58.0649   -1.7866 H         1 FMN570      0.0000 
@<TRIPOS>BOND
     1    2    1 1    
     2   18    1 2    
     3    3    2 2    
     4    4    2 am   
     5    5    4 am   
     6   32    4 1    
     7    6    5 2    
     8    7    5 1    
     9    8    7 2    
    10   18    7 1    
    11    9    8 1    
    12   10    9 ar   
    13   16    9 ar   
    14   11   10 ar   
    15   33   10 1    
    16   12   11 1    
    17   13   11 ar   
    18   42   12 1    
    19   43   12 1    
    20   44   12 1    
    21   14   13 1    
    22   15   13 ar   
    23   45   14 1    
    24   46   14 1    
    25   47   14 1    
    26   16   15 ar   
    27   34   15 1    
    28   17   16 1    
    29   18   17 1    
    30   19   17 1    
    31   20   19 1    
    32   35   19 1    
    33   36   19 1    
    34   21   20 1    
    35   22   20 1    
    36   37   20 1    
    37   48   21 1    
    38   23   22 1    
    39   24   22 1    
    40   38   22 1    
    41   49   23 1    
    42   25   24 1    
    43   26   24 1    
    44   39   24 1    
    45   50   25 1    
    46   27   26 1    
    47   40   26 1    
    48   41   26 1    
    49   28   27 1    
    50   29   28 ar   
    51   30   28 ar   
    52   31   28 ar   
@<TRIPOS>SUBSTRUCTURE
     1 FMN570      1 GROUP   
@<TRIPOS>SET

