#    Name: 3ut5_LOC_1_INTS_M
#    Modification time : Mon Mar 24 23:22:41 2014

@<TRIPOS>MOLECULE
3ut5_LOC_1_INTS_M
   73     0     6     0     0
SMALL
NO_CHARGES


@<TRIPOS>ATOM
      1 CA         11.7000   49.8395   85.3550 C.3       2 GLC5        0.0000 
      2 CA         10.4480   51.4140   85.8460 C.3       6 GLL5        0.0000 
      3 CA         12.9520   48.2650   84.8640 C.3       4 GLP5        0.0000 
      4 CA          6.3670   51.4430   87.3795 C.3       2 GLC5        0.0000 
      5 CA          7.0460   53.1140   88.2870 C.3       6 GLL5        0.0000 
      6 CA          5.6880   49.7720   86.4720 C.3       4 GLP5        0.0000 
      7 CA          5.2245   57.2680   86.0325 C.3       2 GLC5        0.0000 
      8 CA          6.5100   56.1420   85.5770 C.3       6 GLL5        0.0000 
      9 CA          3.9390   58.3940   86.4880 C.3       4 GLP5        0.0000 
     10 CA          8.8525   58.0025   90.1930 C.3       2 GLC5        0.0000 
     11 CA          9.0240   57.6200   88.0320 C.3       6 GLL5        0.0000 
     12 CA          8.6810   58.3850   92.3540 C.3       4 GLP5        0.0000 
     13 CA          9.6835   57.4420   90.8010 C.3       2 GLC5        0.0000 
     14 CA         10.6860   56.4990   89.2480 C.3       6 GLL5        0.0000 
     15 CA         10.2035   54.7865   90.3780 C.3       2 GLC5        0.0000 
     16 CA          9.7210   53.0740   91.5080 C.3       4 GLP5        0.0000 
     17 CA         12.6460   56.7920   88.7185 C.3       2 GLC5        0.0000 
     18 CA         14.6060   57.0850   88.1890 C.3       4 GLP5        0.0000 
     19 CA         10.2270   61.1545   87.1505 C.3       2 GLC5        0.0000 
     20 CA          9.4280   60.4900   88.5110 C.3       6 GLL5        0.0000 
     21 CA         11.0260   61.8190   85.7900 C.3       4 GLP5        0.0000 
     22 CA          7.6185   59.9185   88.5515 C.3       2 GLC5        0.0000 
     23 CA          5.8090   59.3470   88.5920 C.3       4 GLP5        0.0000 
     24 CA          9.0545   59.4375   90.4325 C.3       2 GLC5        0.0000 
     25 CA         11.0020   61.0505   88.7940 C.3       2 GLC5        0.0000 
     26 CA         12.5760   61.6110   89.0770 C.3       4 GLP5        0.0000 
     27 CA          9.0480   61.6005   90.0075 C.3       2 GLC5        0.0000 
     28 CA          8.6680   62.7110   91.5040 C.3       4 GLP5        0.0000 
     29 CA          9.7010   60.9850   84.8655 C.3       2 GLC5        0.0000 
     30 CA          8.3760   60.1510   83.9410 C.3       6 GLL5        0.0000 
     31 CA          8.0940   61.7225   83.1595 C.3       2 GLC5        0.0000 
     32 CA          7.8120   63.2940   82.3780 C.3       4 GLP5        0.0000 
     33 CA          8.8285   58.6085   83.0970 C.3       2 GLC5        0.0000 
     34 CA          9.2810   57.0660   82.2530 C.3       4 GLP5        0.0000 
     35 CA          7.2275   60.1990   82.2975 C.3       2 GLC5        0.0000 
     36 CA          6.0790   60.2470   80.6540 C.3       4 GLP5        0.0000 
     37 CA          5.4225   52.0915   91.5515 C.3       2 GLC5        0.0000 
     38 CA          6.4750   53.8490   90.7120 C.3       6 GLL5        0.0000 
     39 CA          4.3700   50.3340   92.3910 C.3       4 GLP5        0.0000 
     40 N           5.4985   50.4915   89.6415 N.am      1 SEC2        0.0000 
     41 N           6.2680   51.7210   89.7730 N.am      5 SEL2        0.0000 
     42 N           4.7290   49.2620   89.5100 N.am      3 SEP2        0.0000 
     43 CA          4.8040   52.1870   92.5750 C.3       2 GLC5        0.0000 
     44 CA          5.2380   54.0400   92.7590 C.3       6 GLL5        0.0000 
     45 CA          5.0925   55.9040   92.6915 C.3       2 GLC5        0.0000 
     46 CA          4.9470   57.7680   92.6240 C.3       4 GLP5        0.0000 
     47 CA          4.1310   54.6155   93.9560 C.3       2 GLC5        0.0000 
     48 CA          3.0240   55.1910   95.1530 C.3       4 GLP5        0.0000 
     49 CA          5.3673   53.7375   88.3053 C.3       2 GLC5        0.0000 
     50 CA          3.4600   53.7690   88.6210 C.3       4 GLP5        0.0000 
     51 CA          8.6267   52.8490   89.2117 C.3       2 GLC5        0.0000 
     52 CA          9.9790   51.9920   90.4340 C.3       4 GLP5        0.0000 
     53 CA          5.5728   55.6750   84.0790 C.3       2 GLC5        0.0000 
     54 CA          6.8170   54.6320   85.4030 C.3       6 GLL5        0.0000 
     55 CA          4.4820   55.9630   82.6680 C.3       4 GLP5        0.0000 
     56 CA          8.1288   56.7965   84.0875 C.3       2 GLC5        0.0000 
     57 CA          6.7750   58.0763   87.7565 C.3       2 GLC5        0.0000 
     58 CA          7.4430   56.9120   86.2670 C.3       6 GLL5        0.0000 
     59 CA          8.7608   57.7615   83.9748 C.3       2 GLC5        0.0000 
     60 CA          7.7690   57.9920   85.4690 C.3       6 GLL5        0.0000 
     61 CA          6.8887   59.3900   86.5817 C.3       2 GLC5        0.0000 
     62 CA          5.5370   60.3230   87.4670 C.3       4 GLP5        0.0000 
     63 CA         10.0243   60.3217   86.1797 C.3       2 GLC5        0.0000 
     64 CA          8.7120   58.9220   85.9240 C.3       6 GLL5        0.0000 
     65 CA          7.4937   58.7602   88.1078 C.3       2 GLC5        0.0000 
     66 CA          9.3330   58.7270   87.2150 C.3       6 GLL5        0.0000 
     67 CA          6.6178   57.5610   88.7782 C.3       2 GLC5        0.0000 
     68 CA          7.2620   55.9770   89.6250 C.3       6 GLL5        0.0000 
     69 CA          5.9870   56.6870   91.3855 C.3       2 GLC5        0.0000 
     70 CA          7.8540   56.9955   91.2505 C.3       2 GLC5        0.0000 
     71 CA          6.7920   55.2350   90.6690 C.3       6 GLL5        0.0000 
     72 CA          5.0467   54.1555   89.6557 C.3       2 GLC5        0.0000 
     73 CA          8.2360   53.9008   90.9688 C.3       2 GLC5        0.0000 
@<TRIPOS>BOND
@<TRIPOS>SUBSTRUCTURE
     1 SEC2       40 GROUP        1 X    SEC  0     ROOT SEC X 2
     2 GLC5        1 GROUP        1 X    GLC  0     **** GLC X 6
     3 SEP2       42 GROUP        1 Y    SEP  0     ROOT SEP Y 9
     4 GLP5        3 GROUP        1 Y    GLP  0     **** GLP Y 13
     5 SEL2       41 GROUP        1 Z    SEL  0     ROOT SEL Z 16
     6 GLL5        2 GROUP        1 Z    GLL  0     **** GLL Z 20
@<TRIPOS>SET

