#    Name: 3ut5_LOC_1_ligand
#    Modification time : Mon Mar 24 23:22:41 2014

@<TRIPOS>MOLECULE
3ut5_LOC_1_ligand
   54    56     1     0     0
SMALL
NO_CHARGES


@<TRIPOS>ATOM
      1 O4         10.5140   53.4150   87.1710 O.2       1 LOC502      0.0000 
      2 C12         9.8680   52.7050   86.3830 C.2       1 LOC502      0.0000 
      3 C13        10.4480   51.4140   85.8460 C.3       1 LOC502      0.0000 
      4 N1          8.6390   52.9620   85.9350 N.am      1 LOC502      0.0000 
      5 C11         7.9020   54.1530   86.3340 C.3       1 LOC502      0.0000 
      6 C14         7.5030   54.2980   87.6920 C.2       1 LOC502      0.0000 
      7 C15         7.0460   53.1140   88.2870 C.2       1 LOC502      0.0000 
      8 C10         6.8170   54.6320   85.4030 C.3       1 LOC502      0.0000 
      9 C9          6.5100   56.1420   85.5770 C.3       1 LOC502      0.0000 
     10 C8          7.4430   56.9120   86.2670 C.ar      1 LOC502      0.0000 
     11 C7          7.7690   57.9920   85.4690 C.ar      1 LOC502      0.0000 
     12 C5          8.7120   58.9220   85.9240 C.ar      1 LOC502      0.0000 
     13 C3          9.3330   58.7270   87.2150 C.ar      1 LOC502      0.0000 
     14 C1          9.0240   57.6200   88.0320 C.ar      1 LOC502      0.0000 
     15 O1          9.6570   57.4890   89.2400 O.3       1 LOC502      0.0000 
     16 C2         10.6860   56.4990   89.2480 C.3       1 LOC502      0.0000 
     17 O2         10.2120   59.6060   87.6890 O.3       1 LOC502      0.0000 
     18 C4          9.4280   60.4900   88.5110 C.3       1 LOC502      0.0000 
     19 O3          9.0410   59.9900   85.1740 O.3       1 LOC502      0.0000 
     20 C6          8.3760   60.1510   83.9410 C.3       1 LOC502      0.0000 
     21 C22         8.0390   56.6990   87.5750 C.ar      1 LOC502      0.0000 
     22 C21         7.5910   55.5730   88.3040 C.2       1 LOC502      0.0000 
     23 C20         7.2620   55.9770   89.6250 C.2       1 LOC502      0.0000 
     24 C19         6.7920   55.2350   90.6690 C.2       1 LOC502      0.0000 
     25 C17         6.4750   53.8490   90.7120 C.2       1 LOC502      0.0000 
     26 C16         6.5890   52.8870   89.6100 C.2       1 LOC502      0.0000 
     27 O5          6.2680   51.7210   89.7730 O.2       1 LOC502      0.0000 
     28 O6          6.0210   53.3000   91.9050 O.3       1 LOC502      0.0000 
     29 C18         5.2380   54.0400   92.7590 C.3       1 LOC502      0.0000 
     30 H           8.1443   52.3219   85.2759 H         1 LOC502      0.0000 
     31 H           8.7162   55.0455   86.1979 H         1 LOC502      0.0000 
     32 H           7.0386   52.2342   87.6418 H         1 LOC502      0.0000 
     33 H           5.8935   54.0713   85.5859 H         1 LOC502      0.0000 
     34 H           7.1150   54.4606   84.3626 H         1 LOC502      0.0000 
     35 H           5.4850   56.1935   86.0549 H         1 LOC502      0.0000 
     36 H           6.3247   56.5395   84.5333 H         1 LOC502      0.0000 
     37 H           7.3302   58.1185   84.5529 H         1 LOC502      0.0000 
     38 H           7.4149   57.0462   89.8145 H         1 LOC502      0.0000 
     39 H           6.6296   55.7599   91.6132 H         1 LOC502      0.0000 
     40 H          11.2929   51.5708   85.3345 H         1 LOC502      0.0000 
     41 H          10.6650   50.7706   86.5802 H         1 LOC502      0.0000 
     42 H           9.8131   50.9503   85.2281 H         1 LOC502      0.0000 
     43 H          11.4018   56.7019   88.5798 H         1 LOC502      0.0000 
     44 H          11.1298   56.4318   90.1416 H         1 LOC502      0.0000 
     45 H          10.3293   55.5908   89.0289 H         1 LOC502      0.0000 
     46 H           9.9890   61.2062   88.9261 H         1 LOC502      0.0000 
     47 H           8.7106   60.9473   87.9854 H         1 LOC502      0.0000 
     48 H           8.9775   60.0008   89.2578 H         1 LOC502      0.0000 
     49 H           8.6832   60.9707   83.4576 H         1 LOC502      0.0000 
     50 H           8.5326   59.3747   83.3304 H         1 LOC502      0.0000 
     51 H           7.3867   60.2348   84.0607 H         1 LOC502      0.0000 
     52 H           5.7072   54.8661   93.0712 H         1 LOC502      0.0000 
     53 H           4.3873   54.3332   92.3228 H         1 LOC502      0.0000 
     54 H           4.9850   53.5204   93.5751 H         1 LOC502      0.0000 
@<TRIPOS>BOND
     1    2    1 2    
     2    3    2 1    
     3    4    2 am   
     4   40    3 1    
     5   41    3 1    
     6   42    3 1    
     7    5    4 1    
     8   30    4 1    
     9    6    5 1    
    10    8    5 1    
    11   31    5 1    
    12    7    6 2    
    13   22    6 1    
    14   26    7 1    
    15   32    7 1    
    16    9    8 1    
    17   33    8 1    
    18   34    8 1    
    19   10    9 1    
    20   35    9 1    
    21   36    9 1    
    22   11   10 ar   
    23   21   10 ar   
    24   12   11 ar   
    25   37   11 1    
    26   13   12 ar   
    27   19   12 1    
    28   14   13 ar   
    29   17   13 1    
    30   15   14 1    
    31   21   14 ar   
    32   16   15 1    
    33   43   16 1    
    34   44   16 1    
    35   45   16 1    
    36   18   17 1    
    37   46   18 1    
    38   47   18 1    
    39   48   18 1    
    40   20   19 1    
    41   49   20 1    
    42   50   20 1    
    43   51   20 1    
    44   22   21 1    
    45   23   22 2    
    46   24   23 1    
    47   38   23 1    
    48   25   24 2    
    49   39   24 1    
    50   26   25 1    
    51   28   25 1    
    52   27   26 2    
    53   29   28 1    
    54   52   29 1    
    55   53   29 1    
    56   54   29 1    
@<TRIPOS>SUBSTRUCTURE
     1 LOC502      1 GROUP   
@<TRIPOS>SET

