#    Name: 4hw3_19G_1_INTS_M
#    Modification time : Tue Mar 25 01:51:59 2014

@<TRIPOS>MOLECULE
4hw3_19G_1_INTS_M
   75     0     9     0     0
SMALL
NO_CHARGES


@<TRIPOS>ATOM
      1 NZ         36.1530   -9.7425   17.9955 N.4       2 LYC4        0.0000 
      2 NZ         36.1100   -9.0960   19.2990 N.4       8 LYL4        0.0000 
      3 NZ         36.1980  -11.7150   16.6510 N.4       5 LYP4        0.0000 
      4 N          36.1530   -9.7425   17.9955 N.am      1 SEC2        0.0000 
      5 N          36.1100   -9.0960   19.2990 N.am      7 SEL2        0.0000 
      6 N          36.1960  -10.3890   16.6920 N.am      4 SEP2        0.0000 
      7 CA         32.8330   -8.1735   25.9290 C.3       3 GLC5        0.0000 
      8 CA         33.2060   -6.6510   24.4070 C.3       9 GLL5        0.0000 
      9 CA         32.4600   -9.6960   27.4510 C.3       6 GLP5        0.0000 
     10 CA         33.5655   -6.7025   27.5665 C.3       3 GLC5        0.0000 
     11 CA         33.8750   -6.3910   25.5950 C.3       9 GLL5        0.0000 
     12 CA         33.2560   -7.0140   29.5380 C.3       6 GLP5        0.0000 
     13 CA         34.6505   -7.4370   27.4280 C.3       3 GLC5        0.0000 
     14 CA         35.2640   -6.5680   25.6470 C.3       9 GLL5        0.0000 
     15 CA         34.0370   -8.3060   29.2090 C.3       6 GLP5        0.0000 
     16 CA         39.8125  -10.1935   23.3790 C.3       3 GLC5        0.0000 
     17 CA         37.8260  -10.0100   23.4830 C.3       9 GLL5        0.0000 
     18 CA         41.7990  -10.3770   23.2750 C.3       6 GLP5        0.0000 
     19 CA         36.5880  -10.6895   30.2130 C.3       3 GLC5        0.0000 
     20 CA         37.3480  -11.5030   28.4200 C.3       9 GLL5        0.0000 
     21 CA         35.8280   -9.8760   32.0060 C.3       6 GLP5        0.0000 
     22 CA         36.6620  -13.4960   28.7620 C.3       3 GLC5        0.0000 
     23 CA         35.9760  -15.4890   29.1040 C.3       6 GLP5        0.0000 
     24 CA         38.1695  -12.8790   27.1780 C.3       3 GLC5        0.0000 
     25 CA         38.9910  -14.2550   25.9360 C.3       6 GLP5        0.0000 
     26 CA         37.4200   -9.3795   28.9190 C.3       3 GLC5        0.0000 
     27 CA         37.4920   -7.2560   29.4180 C.3       6 GLP5        0.0000 
     28 CA         40.5055  -11.1860   31.4445 C.3       3 GLC5        0.0000 
     29 CA         39.8080  -10.5630   29.9270 C.3       9 GLL5        0.0000 
     30 CA         41.2030  -11.8090   32.9620 C.3       6 GLP5        0.0000 
     31 CA         41.1720  -11.6995   29.1410 C.3       3 GLC5        0.0000 
     32 CA         42.5360  -12.8360   28.3550 C.3       6 GLP5        0.0000 
     33 CA         38.6500   -8.9095   29.6725 C.3       3 GLC5        0.0000 
     34 CA         42.0665  -10.8730   28.2820 C.3       3 GLC5        0.0000 
     35 CA         41.5970   -8.9100   28.2090 C.3       9 GLL5        0.0000 
     36 CA         39.9045   -7.9025   28.2580 C.3       3 GLC5        0.0000 
     37 CA         38.2120   -6.8950   28.3070 C.3       6 GLP5        0.0000 
     38 CA         42.3565   -7.1755   28.2625 C.3       3 GLC5        0.0000 
     39 CA         43.1160   -5.4410   28.3160 C.3       6 GLP5        0.0000 
     40 CA         42.9460   -9.1595   29.9065 C.3       3 GLC5        0.0000 
     41 CA         44.2950   -9.4090   31.6040 C.3       6 GLP5        0.0000 
     42 CA         43.4890   -9.3265   27.7775 C.3       3 GLC5        0.0000 
     43 CA         45.3810   -9.7430   27.3460 C.3       6 GLP5        0.0000 
     44 CA         39.5075   -7.1830   26.3780 C.3       3 GLC5        0.0000 
     45 CA         40.1020   -9.1430   26.1950 C.3       9 GLL5        0.0000 
     46 CA         38.9130   -5.2230   26.5610 C.3       6 GLP5        0.0000 
     47 CA         34.2690   -9.3885   22.1642 C.3       3 GLC5        0.0000 
     48 CA         34.9500   -7.9270   21.0700 C.3       9 GLL5        0.0000 
     49 CA         34.3440  -11.0520   22.9410 C.3       6 GLP5        0.0000 
     50 CA         34.4695   -9.1185   23.1262 C.3       3 GLC5        0.0000 
     51 CA         35.2930   -7.2720   23.3400 C.3       9 GLL5        0.0000 
     52 CA         32.1118   -4.9775   25.1690 C.3       3 GLC5        0.0000 
     53 CA         30.6830   -3.4340   25.3370 C.3       6 GLP5        0.0000 
     54 CA         37.2645   -6.0027   25.8245 C.3       3 GLC5        0.0000 
     55 CA         36.3882   -5.7462   22.6152 C.3       3 GLC5        0.0000 
     56 CA         35.9680   -6.9970   24.5290 C.3       9 GLL5        0.0000 
     57 CA         37.1460   -4.3580   21.2960 C.3       6 GLP5        0.0000 
     58 CA         35.4815   -9.4567   22.4900 C.3       3 GLC5        0.0000 
     59 CA         35.8870   -7.7310   22.1150 C.3       9 GLL5        0.0000 
     60 CA         36.7654   -6.1342   21.5369 C.3       3 GLC5        0.0000 
     61 CA         39.3417   -7.9203   22.2802 C.3       3 GLC5        0.0000 
     62 CA         37.3510   -7.9920   21.9630 C.3       9 GLL5        0.0000 
     63 CA         41.1230   -7.1340   22.5250 C.3       6 GLP5        0.0000 
     64 CA         36.0710  -10.3837   22.8682 C.3       3 GLC5        0.0000 
     65 CA         37.7700   -9.4210   22.1080 C.3       9 GLL5        0.0000 
     66 CA         38.4520  -11.2847   21.8313 C.3       3 GLC5        0.0000 
     67 CA         39.1060  -12.8540   20.8670 C.3       6 GLP5        0.0000 
     68 CA         39.8115  -11.3998   25.9507 C.3       3 GLC5        0.0000 
     69 CA         38.9470   -9.6210   25.5900 C.3       9 GLL5        0.0000 
     70 CA         41.1250  -12.7930   25.9590 C.3       6 GLP5        0.0000 
     71 CA         40.6617   -9.8795   24.5837 C.3       3 GLC5        0.0000 
     72 CA         40.0095  -11.6170   26.9522 C.3       3 GLC5        0.0000 
     73 CA         39.4700  -10.2020   28.2590 C.3       9 GLL5        0.0000 
     74 CA         40.6788  -11.0392   26.4120 C.3       3 GLC5        0.0000 
     75 CA         40.3630   -9.4280   27.5350 C.3       9 GLL5        0.0000 
@<TRIPOS>BOND
@<TRIPOS>SUBSTRUCTURE
     1 SEC2        4 GROUP        1 X    SEC  0     ROOT SEC X 2
     2 LYC4        1 GROUP        1 X    LYC  0     **** LYC X 4
     3 GLC5        7 GROUP        1 X    GLC  0     **** GLC X 6
     4 SEP2        6 GROUP        1 Y    SEP  0     ROOT SEP Y 9
     5 LYP4        3 GROUP        1 Y    LYP  0     **** LYP Y 11
     6 GLP5        9 GROUP        1 Y    GLP  0     **** GLP Y 13
     7 SEL2        5 GROUP        1 Z    SEL  0     ROOT SEL Z 16
     8 LYL4        2 GROUP        1 Z    LYL  0     **** LYL Z 18
     9 GLL5        8 GROUP        1 Z    GLL  0     **** GLL Z 20
@<TRIPOS>SET

