#    Name: 4hw3_19G_1_ligand
#    Modification time : Tue Mar 25 01:51:59 2014

@<TRIPOS>MOLECULE
4hw3_19G_1_ligand
   43    45     1     0     0
SMALL
NO_CHARGES


@<TRIPOS>ATOM
      1 OAC        34.2990   -7.9750   18.8340 O.co2     1 19G400      0.0000 
      2 CAQ        35.1510   -8.3700   19.6660 C.2       1 19G400      0.0000 
      3 OAD        36.1100   -9.0960   19.2990 O.co2     1 19G400      0.0000 
      4 CAW        34.9500   -7.9270   21.0700 C.2       1 19G400      0.0000 
      5 S          33.4380   -7.5230   21.7050 S.3       1 19G400      0.0000 
      6 CAX        33.8970   -7.0980   23.2830 C.ar      1 19G400      0.0000 
      7 CAH        33.2060   -6.6510   24.4070 C.ar      1 19G400      0.0000 
      8 CAF        33.8750   -6.3910   25.5950 C.ar      1 19G400      0.0000 
      9 CAG        35.2640   -6.5680   25.6470 C.ar      1 19G400      0.0000 
     10 CAI        35.9680   -6.9970   24.5290 C.ar      1 19G400      0.0000 
     11 CAY        35.2930   -7.2720   23.3400 C.ar      1 19G400      0.0000 
     12 CAV        35.8870   -7.7310   22.1150 C.2       1 19G400      0.0000 
     13 CAN        37.3510   -7.9920   21.9630 C.3       1 19G400      0.0000 
     14 CAL        37.7700   -9.4210   22.1080 C.3       1 19G400      0.0000 
     15 CAM        37.8260  -10.0100   23.4830 C.3       1 19G400      0.0000 
     16 OAO        38.7230   -9.3180   24.2740 O.3       1 19G400      0.0000 
     17 CAT        38.9470   -9.6210   25.5900 C.ar      1 19G400      0.0000 
     18 CAJ        38.0490  -10.3920   26.2950 C.ar      1 19G400      0.0000 
     19 CAR        38.3180  -10.6800   27.6320 C.ar      1 19G400      0.0000 
     20 CAA        37.3480  -11.5030   28.4200 C.3       1 19G400      0.0000 
     21 CAU        39.4700  -10.2020   28.2590 C.ar      1 19G400      0.0000 
     22 CL         39.8080  -10.5630   29.9270 Cl        1 19G400      0.0000 
     23 CAS        40.3630   -9.4280   27.5350 C.ar      1 19G400      0.0000 
     24 CAB        41.5970   -8.9100   28.2090 C.3       1 19G400      0.0000 
     25 CAK        40.1020   -9.1430   26.1950 C.ar      1 19G400      0.0000 
     26 H          32.1831   -6.5120   24.3534 H         1 19G400      0.0000 
     27 H          33.3679   -6.0751   26.4223 H         1 19G400      0.0000 
     28 H          35.7650   -6.3760   26.5287 H         1 19G400      0.0000 
     29 H          36.9891   -7.1128   24.5756 H         1 19G400      0.0000 
     30 H          37.9088   -7.3742   22.7070 H         1 19G400      0.0000 
     31 H          37.6848   -7.6166   20.9660 H         1 19G400      0.0000 
     32 H          38.7809   -9.5495   21.6218 H         1 19G400      0.0000 
     33 H          37.0908  -10.0603   21.4718 H         1 19G400      0.0000 
     34 H          38.0959  -11.0806   23.3792 H         1 19G400      0.0000 
     35 H          36.7979   -9.9918   23.8985 H         1 19G400      0.0000 
     36 H          37.2005  -10.7492   25.8534 H         1 19G400      0.0000 
     37 H          40.7700   -8.5757   25.6543 H         1 19G400      0.0000 
     38 H          37.2199  -12.4104   28.0198 H         1 19G400      0.0000 
     39 H          37.6554  -11.6388   29.3619 H         1 19G400      0.0000 
     40 H          36.4465  -11.0726   28.4651 H         1 19G400      0.0000 
     41 H          42.1737   -9.6526   28.5496 H         1 19G400      0.0000 
     42 H          42.1587   -8.3644   27.5870 H         1 19G400      0.0000 
     43 H          41.3762   -8.3278   28.9915 H         1 19G400      0.0000 
@<TRIPOS>BOND
     1    2    1 ar   
     2    3    2 ar   
     3    4    2 1    
     4    5    4 1    
     5   12    4 2    
     6    6    5 1    
     7    7    6 ar   
     8   11    6 ar   
     9    8    7 ar   
    10   26    7 1    
    11    9    8 ar   
    12   27    8 1    
    13   10    9 ar   
    14   28    9 1    
    15   11   10 ar   
    16   29   10 1    
    17   12   11 1    
    18   13   12 1    
    19   14   13 1    
    20   30   13 1    
    21   31   13 1    
    22   15   14 1    
    23   32   14 1    
    24   33   14 1    
    25   16   15 1    
    26   34   15 1    
    27   35   15 1    
    28   17   16 1    
    29   18   17 ar   
    30   25   17 ar   
    31   19   18 ar   
    32   36   18 1    
    33   20   19 1    
    34   21   19 ar   
    35   38   20 1    
    36   39   20 1    
    37   40   20 1    
    38   22   21 1    
    39   23   21 ar   
    40   24   23 1    
    41   25   23 ar   
    42   41   24 1    
    43   42   24 1    
    44   43   24 1    
    45   37   25 1    
@<TRIPOS>SUBSTRUCTURE
     1 19G400      1 GROUP   
@<TRIPOS>SET

