#    Name: 2h1h_AFH_1_INTS_M
#    Modification time : Tue Mar 25 15:22:52 2014

@<TRIPOS>MOLECULE
2h1h_AFH_1_INTS_M
   58     0     9     0     0
SMALL
NO_CHARGES


@<TRIPOS>ATOM
      1 CA         50.3105   10.5155    9.6675 C.3       3 GLC5        0.0000 
      2 CA         50.3420   11.8310    8.0270 C.3       9 GLL5        0.0000 
      3 CA         50.2790    9.2000   11.3080 C.3       6 GLP5        0.0000 
      4 O          52.6950   12.2795    8.8570 O.2       1 ALC1        0.0000 
      5 O          51.5570   11.2960    8.1560 O.2       7 ALL1        0.0000 
      6 O          53.8330   13.2630    9.5580 O.2       4 ALP1        0.0000 
      7 CA         47.4510   13.4840   10.6640 C.3       3 GLC5        0.0000 
      8 CA         48.5450   13.2190    8.9380 C.3       9 GLL5        0.0000 
      9 CA         46.3570   13.7490   12.3900 C.3       6 GLP5        0.0000 
     10 CA         47.7480   15.0330    9.1015 C.3       3 GLC5        0.0000 
     11 CA         46.9510   16.8470    9.2650 C.3       6 GLP5        0.0000 
     12 CA         48.8275   14.5755    7.6140 C.3       3 GLC5        0.0000 
     13 CA         49.1100   15.9320    6.2900 C.3       6 GLP5        0.0000 
     14 CA         47.5000   11.6720    9.0995 C.3       3 GLC5        0.0000 
     15 CA         46.4550   10.1250    9.2610 C.3       6 GLP5        0.0000 
     16 O          46.5545   15.2630    4.3660 O.2       1 ALC1        0.0000 
     17 O          46.9870   14.2050    3.6850 O.2       7 ALL1        0.0000 
     18 O          46.1220   16.3210    5.0470 O.2       4 ALP1        0.0000 
     19 O          45.6170   15.1030    3.8185 O.2       1 ALC1        0.0000 
     20 O          44.2470   16.0010    3.9520 O.2       4 ALP1        0.0000 
     21 O          44.2135   14.8270    3.7740 O.2       1 ALC1        0.0000 
     22 O          44.1800   13.6530    3.5960 O.2       7 ALL1        0.0000 
     23 N          41.3270   10.9835    0.5870 N.am      2 SEC2        0.0000 
     24 N          41.9250    9.5910    0.2590 N.am      8 SEL2        0.0000 
     25 N          40.7290   12.3760    0.9150 N.am      5 SEP2        0.0000 
     26 N          41.9345    9.3310    3.7405 N.am      2 SEC2        0.0000 
     27 N          41.5830    9.3630    2.5450 N.am      8 SEL2        0.0000 
     28 N          42.2860    9.2990    4.9360 N.am      5 SEP2        0.0000 
     29 N          40.3935   10.1675    2.4930 N.am      2 SEC2        0.0000 
     30 N          39.2040   10.9720    2.4410 N.am      5 SEP2        0.0000 
     31 CA         42.3300    4.9765    4.1940 C.3       3 GLC5        0.0000 
     32 CA         40.7400    4.4320    3.1100 C.3       9 GLL5        0.0000 
     33 CA         43.9200    5.5210    5.2780 C.3       6 GLP5        0.0000 
     34 N          39.3480    2.3815    3.4095 N.am      2 SEC2        0.0000 
     35 N          38.4240    3.0200    2.2180 N.am      8 SEL2        0.0000 
     36 N          40.2720    1.7430    4.6010 N.am      5 SEP2        0.0000 
     37 O          37.7995    3.7385    3.0605 O.2       1 ALC1        0.0000 
     38 O          38.4240    3.0200    2.2180 O.2       7 ALL1        0.0000 
     39 O          37.1750    4.4570    3.9030 O.2       4 ALP1        0.0000 
     40 O          37.1915    4.1050    2.2260 O.2       1 ALC1        0.0000 
     41 O          35.9590    5.1900    2.2340 O.2       4 ALP1        0.0000 
     42 N          37.9545    7.3330   -0.5140 N.am      2 SEC2        0.0000 
     43 N          37.8260    6.4980   -1.7190 N.am      8 SEL2        0.0000 
     44 N          38.0830    8.1680    0.6910 N.am      5 SEP2        0.0000 
     45 CA         49.0267   13.8923    6.5358 C.3       3 GLC5        0.0000 
     46 CA         48.2890   12.1560    6.7330 C.3       9 GLL5        0.0000 
     47 CA         47.7922   11.0240    8.1709 C.3       3 GLC5        0.0000 
     48 CA         42.7825   12.3732    3.3730 C.3       3 GLC5        0.0000 
     49 CA         44.7550   11.3490    3.7080 C.3       9 GLL5        0.0000 
     50 CA         40.6270   12.7410    3.3180 C.3       6 GLP5        0.0000 
     51 CA         40.9102    3.4552    3.8155 C.3       3 GLC5        0.0000 
     52 CA         41.4490    2.2640    5.0840 C.3       6 GLP5        0.0000 
     53 CA         37.0275    3.3700    0.7587 C.3       3 GLC5        0.0000 
     54 CA         39.3080    3.6550    1.2980 C.3       9 GLL5        0.0000 
     55 CA         35.1420    2.8020    0.8200 C.3       6 GLP5        0.0000 
     56 CA         40.6397    6.1321    3.6260 C.3       3 GLC5        0.0000 
     57 CA         40.9510    5.5080    0.9640 C.3       9 GLL5        0.0000 
     58 CA         40.6710    7.4560    4.9600 C.3       6 GLP5        0.0000 
@<TRIPOS>BOND
@<TRIPOS>SUBSTRUCTURE
     1 ALC1        4 GROUP        1 X    ALC  0     ROOT ALC X 1
     2 SEC2       23 GROUP        1 X    SEC  0     **** SEC X 2
     3 GLC5        1 GROUP        1 X    GLC  0     **** GLC X 6
     4 ALP1        6 GROUP        1 Y    ALP  0     ROOT ALP Y 8
     5 SEP2       25 GROUP        1 Y    SEP  0     **** SEP Y 9
     6 GLP5        3 GROUP        1 Y    GLP  0     **** GLP Y 13
     7 ALL1        5 GROUP        1 Z    ALL  0     ROOT ALL Z 15
     8 SEL2       24 GROUP        1 Z    SEL  0     **** SEL Z 16
     9 GLL5        2 GROUP        1 Z    GLL  0     **** GLL Z 20
@<TRIPOS>SET

