#    Name: 2h1h_AFH_1_ligand
#    Modification time : Tue Mar 25 15:22:52 2014

@<TRIPOS>MOLECULE
2h1h_AFH_1_ligand
   64    67     1     0     0
SMALL
NO_CHARGES


@<TRIPOS>ATOM
      1 N9         47.7970   11.7740    5.5690 N.pl3     1 AFH400      0.0000 
      2 C8         48.7210   10.9760    4.9610 C.2       1 AFH400      0.0000 
      3 N7         49.7900   10.8550    5.7270 N.2       1 AFH400      0.0000 
      4 C5         49.5980   11.5490    6.8300 C.ar      1 AFH400      0.0000 
      5 C6         50.3420   11.8310    8.0270 C.ar      1 AFH400      0.0000 
      6 N6         51.5570   11.2960    8.1560 N.pl3     1 AFH400      0.0000 
      7 N1         49.8010   12.6540    9.0520 N.ar      1 AFH400      0.0000 
      8 C2         48.5450   13.2190    8.9380 C.ar      1 AFH400      0.0000 
      9 N3         47.8210   12.9570    7.7830 N.ar      1 AFH400      0.0000 
     10 C4         48.2890   12.1560    6.7330 C.ar      1 AFH400      0.0000 
     11 C1D        46.4340   12.1870    5.0590 C.3       1 AFH400      0.0000 
     12 C2D        46.5130   12.8580    3.6860 C.3       1 AFH400      0.0000 
     13 O2'        46.9870   14.2050    3.6850 O.3       1 AFH400      0.0000 
     14 C3D        45.1210   12.6620    3.1480 C.3       1 AFH400      0.0000 
     15 C4D        44.7550   11.3490    3.7080 C.3       1 AFH400      0.0000 
     16 O4D        45.5680   11.0810    4.8670 O.3       1 AFH400      0.0000 
     17 O3D        44.1800   13.6530    3.5960 O.3       1 AFH400      0.0000 
     18 C5D        44.8910   10.3490    2.5710 C.3       1 AFH400      0.0000 
     19 O5D        43.7070   10.4480    1.6970 O.3       1 AFH400      0.0000 
     20 PA         42.5920    9.3730    1.4840 P.3       1 AFH400      0.0000 
     21 O1A        41.9250    9.5910    0.2590 O.co2     1 AFH400      0.0000 
     22 O2A        41.5830    9.3630    2.5450 O.co2     1 AFH400      0.0000 
     23 O3A        43.4210    8.1020    1.3090 O.3       1 AFH400      0.0000 
     24 PB         43.1770    6.6340    1.2420 P.3       1 AFH400      0.0000 
     25 O1B        43.7470    6.0410   -0.0110 O.co2     1 AFH400      0.0000 
     26 O2B        43.8140    6.0760    2.3990 O.co2     1 AFH400      0.0000 
     27 O3B        41.5710    6.5290    1.4250 O.3       1 AFH400      0.0000 
     28 C1'        40.9510    5.5080    0.9640 C.3       1 AFH400      0.0000 
     29 C2'        40.0030    4.8610    1.9840 C.3       1 AFH400      0.0000 
     30 C3'        39.3080    3.6550    1.2980 C.3       1 AFH400      0.0000 
     31 C4'        38.5180    4.2210    0.0970 C.3       1 AFH400      0.0000 
     32 C5'        39.4790    4.9000   -0.9180 C.3       1 AFH400      0.0000 
     33 C6'        38.7820    5.5320   -2.1710 C.3       1 AFH400      0.0000 
     34 C7'        39.7250    6.2010   -3.2110 C.3       1 AFH400      0.0000 
     35 F          40.7400    4.4320    3.1100 F         1 AFH400      0.0000 
     36 O3'        38.4240    3.0200    2.2180 O.3       1 AFH400      0.0000 
     37 O4'        37.8370    3.1970   -0.6050 O.3       1 AFH400      0.0000 
     38 O5'        40.2560    5.9760   -0.2390 O.3       1 AFH400      0.0000 
     39 O6'        37.8260    6.4980   -1.7190 O.3       1 AFH400      0.0000 
     40 O7'        41.1230    6.1680   -2.9210 O.3       1 AFH400      0.0000 
     41 H          48.5878   10.5637    4.0828 H         1 AFH400      0.0000 
     42 H          52.2254   11.8393    8.6641 H         1 AFH400      0.0000 
     43 H          51.6903   10.3997    7.7330 H         1 AFH400      0.0000 
     44 H          48.1625   13.8057    9.6719 H         1 AFH400      0.0000 
     45 H          45.9932   12.9037    5.7374 H         1 AFH400      0.0000 
     46 H          47.1649   12.1938    3.0790 H         1 AFH400      0.0000 
     47 H          45.1710   12.5790    2.0893 H         1 AFH400      0.0000 
     48 H          43.6957   11.3948    3.9786 H         1 AFH400      0.0000 
     49 H          44.9732    9.3489    2.9923 H         1 AFH400      0.0000 
     50 H          45.7982   10.5740    2.0135 H         1 AFH400      0.0000 
     51 H          41.6454    4.7036    0.6344 H         1 AFH400      0.0000 
     52 H          39.2451    5.5766    2.2323 H         1 AFH400      0.0000 
     53 H          40.0640    3.0081    0.9265 H         1 AFH400      0.0000 
     54 H          37.8444    4.9786    0.4533 H         1 AFH400      0.0000 
     55 H          40.1818    4.1490   -1.2806 H         1 AFH400      0.0000 
     56 H          38.2510    4.7171   -2.6857 H         1 AFH400      0.0000 
     57 H          39.3595    7.2557   -3.3361 H         1 AFH400      0.0000 
     58 H          39.5020    5.7143   -4.1984 H         1 AFH400      0.0000 
     59 H          46.3687   14.6973    4.2977 H         1 AFH400      0.0000 
     60 H          44.6750   14.5205    3.5470 H         1 AFH400      0.0000 
     61 H          37.7296    3.7086    2.4268 H         1 AFH400      0.0000 
     62 H          38.5286    2.7868   -1.1995 H         1 AFH400      0.0000 
     63 H          38.1665    7.3760   -2.0555 H         1 AFH400      0.0000 
     64 H          41.2065    6.5602   -2.0050 H         1 AFH400      0.0000 
@<TRIPOS>BOND
     1    2    1 1    
     2   10    1 1    
     3   11    1 1    
     4    3    2 2    
     5   41    2 1    
     6    4    3 1    
     7    5    4 ar   
     8   10    4 ar   
     9    6    5 1    
    10    7    5 ar   
    11   42    6 1    
    12   43    6 1    
    13    8    7 ar   
    14    9    8 ar   
    15   44    8 1    
    16   10    9 ar   
    17   12   11 1    
    18   16   11 1    
    19   45   11 1    
    20   13   12 1    
    21   14   12 1    
    22   46   12 1    
    23   59   13 1    
    24   15   14 1    
    25   17   14 1    
    26   47   14 1    
    27   16   15 1    
    28   18   15 1    
    29   48   15 1    
    30   60   17 1    
    31   19   18 1    
    32   49   18 1    
    33   50   18 1    
    34   20   19 1    
    35   21   20 ar   
    36   22   20 ar   
    37   23   20 1    
    38   24   23 1    
    39   25   24 ar   
    40   26   24 ar   
    41   27   24 1    
    42   28   27 1    
    43   29   28 1    
    44   38   28 1    
    45   51   28 1    
    46   30   29 1    
    47   35   29 1    
    48   52   29 1    
    49   31   30 1    
    50   36   30 1    
    51   53   30 1    
    52   32   31 1    
    53   37   31 1    
    54   54   31 1    
    55   33   32 1    
    56   38   32 1    
    57   55   32 1    
    58   34   33 1    
    59   39   33 1    
    60   56   33 1    
    61   40   34 1    
    62   57   34 1    
    63   58   34 1    
    64   61   36 1    
    65   62   37 1    
    66   63   39 1    
    67   64   40 1    
@<TRIPOS>SUBSTRUCTURE
     1 AFH400      1 GROUP   
@<TRIPOS>SET

