#    Name: 2fwy_H64_1_INTS_M
#    Modification time : Tue Mar 25 13:12:03 2014

@<TRIPOS>MOLECULE
2fwy_H64_1_INTS_M
   59     0     6     0     0
SMALL
NO_CHARGES


@<TRIPOS>ATOM
      1 CA          7.0915    5.2655   27.4155 C.3       2 GLC5        0.0000 
      2 CA          5.3730    5.8070   26.8060 C.3       6 GLL5        0.0000 
      3 CA          8.8100    4.7240   28.0250 C.3       4 GLP5        0.0000 
      4 CA          2.8200   10.9475   26.8690 C.3       2 GLC5        0.0000 
      5 CA          3.3000    9.4330   25.8800 C.3       6 GLL5        0.0000 
      6 CA          2.3400   12.4620   27.8580 C.3       4 GLP5        0.0000 
      7 CA          4.3910   10.3340   26.8265 C.3       2 GLC5        0.0000 
      8 CA          5.4820   11.2350   27.7730 C.3       4 GLP5        0.0000 
      9 CA          1.6005   11.2055   26.8055 C.3       2 GLC5        0.0000 
     10 CA          0.8610    9.9490   25.7530 C.3       6 GLL5        0.0000 
     11 CA         -2.3510    8.7470   26.5785 C.3       2 GLC5        0.0000 
     12 CA         -0.9500    9.7050   27.1660 C.3       6 GLL5        0.0000 
     13 CA         -3.7520    7.7890   25.9910 C.3       4 GLP5        0.0000 
     14 CA         -1.7310    8.4170   28.3970 C.3       2 GLC5        0.0000 
     15 CA         -2.5120    7.1290   29.6280 C.3       4 GLP5        0.0000 
     16 CA         -1.8935   10.4760   28.9695 C.3       2 GLC5        0.0000 
     17 CA         -2.8370   11.2470   30.7730 C.3       4 GLP5        0.0000 
     18 CA          0.2760   10.6750   28.2000 C.3       2 GLC5        0.0000 
     19 CA          1.5020   11.6450   29.2340 C.3       4 GLP5        0.0000 
     20 CA         -2.5220    9.2740   25.5610 C.3       2 GLC5        0.0000 
     21 CA         -1.2920   10.7590   25.1310 C.3       6 GLL5        0.0000 
     22 CA         -2.2775   12.4490   25.9350 C.3       2 GLC5        0.0000 
     23 CA         -3.2630   14.1390   26.7390 C.3       4 GLP5        0.0000 
     24 O          -3.6325   11.6400   24.2845 O.2       1 ALC1        0.0000 
     25 O          -2.1070   11.3640   24.2710 O.2       5 ALL1        0.0000 
     26 O          -5.1580   11.9160   24.2980 O.2       3 ALP1        0.0000 
     27 CA         -0.1760    9.9440   22.7980 C.3       2 GLC5        0.0000 
     28 CA          0.0500   10.5850   24.8190 C.3       6 GLL5        0.0000 
     29 CA         -0.4020    9.3030   20.7770 C.3       4 GLP5        0.0000 
     30 CA          4.6990   15.8375   27.3685 C.3       2 GLC5        0.0000 
     31 CA          5.1620   16.0040   25.2600 C.3       6 GLL5        0.0000 
     32 CA          4.2360   15.6710   29.4770 C.3       4 GLP5        0.0000 
     33 CA          4.8065   16.2335   23.5970 C.3       2 GLC5        0.0000 
     34 CA          4.4510   16.4630   21.9340 C.3       4 GLP5        0.0000 
     35 CA          3.4925   17.1170   24.7960 C.3       2 GLC5        0.0000 
     36 CA          1.8230   18.2300   24.3320 C.3       4 GLP5        0.0000 
     37 CA          6.1955   17.3275   25.5610 C.3       2 GLC5        0.0000 
     38 CA          7.2290   18.6510   25.8620 C.3       4 GLP5        0.0000 
     39 CA          8.0970   11.4815   22.0040 C.3       2 GLC5        0.0000 
     40 CA          6.6380   10.2970   23.1340 C.3       6 GLL5        0.0000 
     41 CA          9.5560   12.6660   20.8740 C.3       4 GLP5        0.0000 
     42 CA          5.3778    7.2292   27.5057 C.3       2 GLC5        0.0000 
     43 CA          6.0820    8.8120   27.9400 C.3       4 GLP5        0.0000 
     44 CA          4.5617    8.1593   26.9202 C.3       2 GLC5        0.0000 
     45 CA          3.5710    7.9560   25.5800 C.3       6 GLL5        0.0000 
     46 CA          0.1915   12.0855   26.1070 C.3       2 GLC5        0.0000 
     47 CA          1.0040   13.4990   27.2390 C.3       4 GLP5        0.0000 
     48 CA          4.7372   11.8362   25.8890 C.3       2 GLC5        0.0000 
     49 CA          4.3230   11.8880   23.7360 C.3       6 GLL5        0.0000 
     50 CA          3.1815   12.9805   26.2168 C.3       2 GLC5        0.0000 
     51 CA          3.6620   12.9870   24.2740 C.3       6 GLL5        0.0000 
     52 CA          4.2525   12.3343   21.9928 C.3       2 GLC5        0.0000 
     53 CA          4.7450   12.5420   20.1820 C.3       4 GLP5        0.0000 
     54 CA          5.2800   12.6045   26.3400 C.3       2 GLC5        0.0000 
     55 CA          4.3840   14.0110   24.8770 C.3       6 GLL5        0.0000 
     56 CA          5.7765   11.7792   25.9372 C.3       2 GLC5        0.0000 
     57 CA          6.4310   12.8380   24.4010 C.3       6 GLL5        0.0000 
     58 CA          5.4597   11.7975   21.8250 C.3       2 GLC5        0.0000 
     59 CA          5.7110   11.8090   23.8020 C.3       6 GLL5        0.0000 
@<TRIPOS>BOND
@<TRIPOS>SUBSTRUCTURE
     1 ALC1       24 GROUP        1 X    ALC  0     ROOT ALC X 1
     2 GLC5        1 GROUP        1 X    GLC  0     **** GLC X 6
     3 ALP1       26 GROUP        1 Y    ALP  0     ROOT ALP Y 8
     4 GLP5        3 GROUP        1 Y    GLP  0     **** GLP Y 13
     5 ALL1       25 GROUP        1 Z    ALL  0     ROOT ALL Z 15
     6 GLL5        2 GROUP        1 Z    GLL  0     **** GLL Z 20
@<TRIPOS>SET

