#    Name: 2fwy_H64_1_ligand
#    Modification time : Tue Mar 25 13:12:03 2014

@<TRIPOS>MOLECULE
2fwy_H64_1_ligand
   48    51     1     0     0
SMALL
NO_CHARGES


@<TRIPOS>ATOM
      1 C97         5.3730    5.8070   26.8060 C.3       1 H641001     0.0000 
      2 C95         3.9740    5.4860   27.3370 C.3       1 H641001     0.0000 
      3 C96         3.9300    4.0400   27.8350 C.3       1 H641001     0.0000 
      4 N94         2.9760    5.6620   26.2710 N.4       1 H641001     0.0000 
      5 C93         2.5120    7.0570   26.2210 C.3       1 H641001     0.0000 
      6 C92         3.5710    7.9560   25.5800 C.3       1 H641001     0.0000 
      7 C91         3.3000    9.4330   25.8800 C.3       1 H641001     0.0000 
      8 N9          2.0790    9.9150   25.2200 N.pl3     1 H641001     0.0000 
      9 C4          0.8610    9.9490   25.7530 C.ar      1 H641001     0.0000 
     10 N3          0.3330    9.5220   26.9070 N.ar      1 H641001     0.0000 
     11 C2         -0.9500    9.7050   27.1660 C.ar      1 H641001     0.0000 
     12 N1         -1.7520   10.3100   26.3070 N.ar      1 H641001     0.0000 
     13 C6         -1.2920   10.7590   25.1310 C.ar      1 H641001     0.0000 
     14 N6         -2.1070   11.3640   24.2710 N.pl3     1 H641001     0.0000 
     15 C5          0.0500   10.5850   24.8190 C.ar      1 H641001     0.0000 
     16 N7          0.7950   10.9010   23.7640 N.2       1 H641001     0.0000 
     17 C8          2.0320   10.4820   24.0180 C.2       1 H641001     0.0000 
     18 S           3.3930   10.6440   22.9300 S.3       1 H641001     0.0000 
     19 C1'         4.3230   11.8880   23.7360 C.ar      1 H641001     0.0000 
     20 C6'         3.6620   12.9870   24.2740 C.ar      1 H641001     0.0000 
     21 C5'         4.3840   14.0110   24.8770 C.ar      1 H641001     0.0000 
     22 O3'         4.0040   15.1810   25.4580 O.3       1 H641001     0.0000 
     23 C'2         5.1620   16.0040   25.2600 C.3       1 H641001     0.0000 
     24 O1'         6.2220   15.0760   25.5300 O.3       1 H641001     0.0000 
     25 C4'         5.7720   13.9370   24.9370 C.ar      1 H641001     0.0000 
     26 C3'         6.4310   12.8380   24.4010 C.ar      1 H641001     0.0000 
     27 C2'         5.7110   11.8090   23.8020 C.ar      1 H641001     0.0000 
     28 BR          6.6380   10.2970   23.1340 Br        1 H641001     0.0000 
     29 H           3.7611    6.1373   28.1628 H         1 H641001     0.0000 
     30 H           2.3065    7.4322   27.2284 H         1 H641001     0.0000 
     31 H           1.5918    7.1373   25.6340 H         1 H641001     0.0000 
     32 H           3.5661    7.8032   24.5009 H         1 H641001     0.0000 
     33 H           4.5532    7.6864   25.9679 H         1 H641001     0.0000 
     34 H           4.1736   10.0149   25.5497 H         1 H641001     0.0000 
     35 H           3.2223    9.5516   26.9712 H         1 H641001     0.0000 
     36 H          -1.3469    9.3570   28.0880 H         1 H641001     0.0000 
     37 H          -3.0572   11.4689   24.5646 H         1 H641001     0.0000 
     38 H          -1.6960   11.6593   23.4085 H         1 H641001     0.0000 
     39 H           2.6350   13.0425   24.2256 H         1 H641001     0.0000 
     40 H           5.1779   16.8181   25.9593 H         1 H641001     0.0000 
     41 H           5.2117   16.3589   24.2482 H         1 H641001     0.0000 
     42 H           7.4596   12.7834   24.4467 H         1 H641001     0.0000 
     43 H           6.0720    5.7009   27.5132 H         1 H641001     0.0000 
     44 H           5.6293    5.2070   26.0482 H         1 H641001     0.0000 
     45 H           5.4361    6.7468   26.4701 H         1 H641001     0.0000 
     46 H           4.1399    3.3893   27.1052 H         1 H641001     0.0000 
     47 H           4.5897    3.8798   28.5692 H         1 H641001     0.0000 
     48 H           3.0283    3.7978   28.1932 H         1 H641001     0.0000 
@<TRIPOS>BOND
     1    2    1 1    
     2   43    1 1    
     3   44    1 1    
     4   45    1 1    
     5    3    2 1    
     6    4    2 1    
     7   29    2 1    
     8   46    3 1    
     9   47    3 1    
    10   48    3 1    
    11    5    4 1    
    12    6    5 1    
    13   30    5 1    
    14   31    5 1    
    15    7    6 1    
    16   32    6 1    
    17   33    6 1    
    18    8    7 1    
    19   34    7 1    
    20   35    7 1    
    21    9    8 1    
    22   17    8 1    
    23   10    9 ar   
    24   15    9 ar   
    25   11   10 ar   
    26   12   11 ar   
    27   36   11 1    
    28   13   12 ar   
    29   14   13 1    
    30   15   13 ar   
    31   37   14 1    
    32   38   14 1    
    33   16   15 1    
    34   17   16 2    
    35   18   17 1    
    36   19   18 1    
    37   20   19 ar   
    38   27   19 ar   
    39   21   20 ar   
    40   39   20 1    
    41   22   21 1    
    42   25   21 ar   
    43   23   22 1    
    44   24   23 1    
    45   40   23 1    
    46   41   23 1    
    47   25   24 1    
    48   26   25 ar   
    49   27   26 ar   
    50   42   26 1    
    51   28   27 1    
@<TRIPOS>SUBSTRUCTURE
     1 H641001     1 GROUP   
@<TRIPOS>SET

