#    Name: 2fgi_PD1_2_INTS_M
#    Modification time : Tue Mar 25 12:34:01 2014

@<TRIPOS>MOLECULE
2fgi_PD1_2_INTS_M
   96     0     6     0     0
SMALL
NO_CHARGES


@<TRIPOS>ATOM
      1 CA         60.2165   -3.1345    5.4095 C.3       2 GLC5        0.0000 
      2 CA         58.9810   -2.0430    3.9760 C.3       6 GLL5        0.0000 
      3 CA         61.4520   -4.2260    6.8430 C.3       4 GLP5        0.0000 
      4 CA         59.7650   -1.3085    5.6730 C.3       2 GLC5        0.0000 
      5 CA         60.5490   -0.5740    7.3700 C.3       4 GLP5        0.0000 
      6 CA         64.4420   -1.9010    5.4660 C.3       2 GLC5        0.0000 
      7 CA         63.7390    0.0010    4.8020 C.3       6 GLL5        0.0000 
      8 CA         65.1450   -3.8030    6.1300 C.3       4 GLP5        0.0000 
      9 CA         66.5070    2.8380    6.2020 C.3       2 GLC5        0.0000 
     10 CA         65.6080    2.0410    7.4220 C.3       6 GLL5        0.0000 
     11 CA         67.4060    3.6350    4.9820 C.3       4 GLP5        0.0000 
     12 CA         65.2755    0.5305    8.7700 C.3       2 GLC5        0.0000 
     13 CA         64.9430   -0.9800   10.1180 C.3       4 GLP5        0.0000 
     14 CA         68.1735    0.8885    9.1370 C.3       2 GLC5        0.0000 
     15 CA         66.8680    2.2960    9.3060 C.3       6 GLL5        0.0000 
     16 CA         69.4790   -0.5190    8.9680 C.3       4 GLP5        0.0000 
     17 CA         65.9055    0.6580    9.7120 C.3       2 GLC5        0.0000 
     18 CA         66.7465    5.6520    7.3840 C.3       2 GLC5        0.0000 
     19 CA         65.5770    4.1360    8.3790 C.3       6 GLL5        0.0000 
     20 CA         67.9160    7.1680    6.3890 C.3       4 GLP5        0.0000 
     21 CA         67.6475    4.0495   12.3545 C.3       2 GLC5        0.0000 
     22 CA         66.9010    4.4680   10.3870 C.3       6 GLL5        0.0000 
     23 CA         68.3940    3.6310   14.3220 C.3       4 GLP5        0.0000 
     24 CA         68.8615    4.9560   10.9740 C.3       2 GLC5        0.0000 
     25 CA         70.8220    5.4440   11.5610 C.3       4 GLP5        0.0000 
     26 CA         65.1805    4.6600   12.2225 C.3       2 GLC5        0.0000 
     27 CA         66.4940    6.3520   12.7490 C.3       6 GLL5        0.0000 
     28 CA         63.8670    2.9680   11.6960 C.3       4 GLP5        0.0000 
     29 CA         69.1775    8.8035   15.2855 C.3       2 GLC5        0.0000 
     30 CA         67.9480    8.0910   13.5590 C.3       6 GLL5        0.0000 
     31 CA         70.4070    9.5160   17.0120 C.3       4 GLP5        0.0000 
     32 CA         68.6455   10.1060   11.4725 C.3       2 GLC5        0.0000 
     33 CA         68.4050    8.2850   12.2710 C.3       6 GLL5        0.0000 
     34 CA         68.8860   11.9270   10.6740 C.3       4 GLP5        0.0000 
     35 CA         67.5470    8.4675    9.2330 C.3       2 GLC5        0.0000 
     36 CA         67.9310    7.5430   11.2140 C.3       6 GLL5        0.0000 
     37 CA         67.1630    9.3920    7.2520 C.3       4 GLP5        0.0000 
     38 CA         69.2630    9.0940   10.2955 C.3       2 GLC5        0.0000 
     39 CA         70.5950   10.6450    9.3770 C.3       4 GLP5        0.0000 
     40 CA         68.8380    7.8010   16.6135 C.3       2 GLC5        0.0000 
     41 CA         66.8610    7.7370   16.2120 C.3       6 GLL5        0.0000 
     42 CA         70.8150    7.8650   17.0150 C.3       4 GLP5        0.0000 
     43 CA         65.1135    6.5010   16.1715 C.3       2 GLC5        0.0000 
     44 CA         63.3660    5.2650   16.1310 C.3       4 GLP5        0.0000 
     45 CA         65.1355    8.4115   16.3055 C.3       2 GLC5        0.0000 
     46 CA         63.4100    9.0860   16.3990 C.3       4 GLP5        0.0000 
     47 CA         66.8530    6.7070   17.7665 C.3       2 GLC5        0.0000 
     48 CA         66.8450    5.6770   19.3210 C.3       4 GLP5        0.0000 
     49 CA         69.5475   10.8645   11.8890 C.3       2 GLC5        0.0000 
     50 CA         70.2090    9.8020   13.1040 C.3       6 GLL5        0.0000 
     51 CA         69.6320   11.2130   14.5890 C.3       2 GLC5        0.0000 
     52 CA         69.0550   12.6240   16.0740 C.3       4 GLP5        0.0000 
     53 CA         70.3080    9.6590   15.0580 C.3       2 GLC5        0.0000 
     54 CA         71.8555    9.9000   13.1495 C.3       2 GLC5        0.0000 
     55 CA         73.5020    9.9980   13.1950 C.3       4 GLP5        0.0000 
     56 CA         71.0935    7.9115   13.3945 C.3       2 GLC5        0.0000 
     57 CA         71.9780    6.0210   13.6850 C.3       4 GLP5        0.0000 
     58 CA         63.4605   10.8645    4.7260 C.3       2 GLC5        0.0000 
     59 CA         63.3140    9.4890    6.0530 C.3       6 GLL5        0.0000 
     60 CA         63.6070   12.2400    3.3990 C.3       4 GLP5        0.0000 
     61 CA         65.2385    9.4405    6.6525 C.3       2 GLC5        0.0000 
     62 CA         64.2320    6.0655    4.4520 C.3       2 GLC5        0.0000 
     63 CA         62.6120    7.2020    5.4410 C.3       6 GLL5        0.0000 
     64 CA         65.8520    4.9290    3.4630 C.3       4 GLP5        0.0000 
     65 N          66.7705    0.2275    8.6750 N.am      1 SEC2        0.0000 
     66 N          66.4220    1.4930    8.3010 N.am      5 SEL2        0.0000 
     67 N          67.1190   -1.0380    9.0490 N.am      3 SEP2        0.0000 
     68 N          65.1255    7.2845   15.6055 N.am      1 SEC2        0.0000 
     69 N          66.5300    6.8940   15.0800 N.am      5 SEL2        0.0000 
     70 N          63.7210    7.6750   16.1310 N.am      3 SEP2        0.0000 
     71 CA         61.4440   -0.5142    5.4825 C.3       2 GLC5        0.0000 
     72 CA         62.5540    0.1860    3.9180 C.3       6 GLL5        0.0000 
     73 CA         65.1220    1.5780    4.1028 C.3       2 GLC5        0.0000 
     74 CA         66.4520    2.5650    2.9360 C.3       4 GLP5        0.0000 
     75 CA         65.7475    0.1605    5.1113 C.3       2 GLC5        0.0000 
     76 CA         63.8450    1.1810    5.7370 C.3       6 GLL5        0.0000 
     77 CA         67.7030   -0.2700    4.9530 C.3       4 GLP5        0.0000 
     78 CA         62.1705    0.0085    6.3197 C.3       2 GLC5        0.0000 
     79 CA         66.7127    3.7580    6.9298 C.3       2 GLC5        0.0000 
     80 CA         66.4620    3.6260    9.3760 C.3       6 GLL5        0.0000 
     81 CA         64.9940    3.2582   10.2780 C.3       2 GLC5        0.0000 
     82 CA         68.2370    3.9921    8.7733 C.3       2 GLC5        0.0000 
     83 CA         69.9630    3.9760    7.9230 C.3       4 GLP5        0.0000 
     84 CA         66.9797    6.5835    8.1483 C.3       2 GLC5        0.0000 
     85 CA         66.4780    5.7780   10.4110 C.3       6 GLL5        0.0000 
     86 CA         65.0081    4.3197   10.7988 C.3       2 GLC5        0.0000 
     87 CA         65.6090    6.2200    9.4040 C.3       6 GLL5        0.0000 
     88 CA         69.1333    6.2477   11.4462 C.3       2 GLC5        0.0000 
     89 CA         66.9580    6.5600   11.4490 C.3       6 GLL5        0.0000 
     90 CA         64.9357    5.8678   13.9595 C.3       2 GLC5        0.0000 
     91 CA         63.1290    5.0000   14.6540 C.3       4 GLP5        0.0000 
     92 CA         67.6262    5.2092   13.6310 C.3       2 GLC5        0.0000 
     93 CA         66.9910    7.1190   13.7810 C.3       6 GLL5        0.0000 
     94 CA         69.4992    6.8160   12.2380 C.3       2 GLC5        0.0000 
     95 CA         63.1461    8.3141    4.0488 C.3       2 GLC5        0.0000 
     96 CA         63.4500    8.6200    2.2170 C.3       4 GLP5        0.0000 
@<TRIPOS>BOND
@<TRIPOS>SUBSTRUCTURE
     1 SEC2       65 GROUP        1 X    SEC  0     ROOT SEC X 2
     2 GLC5        1 GROUP        1 X    GLC  0     **** GLC X 6
     3 SEP2       67 GROUP        1 Y    SEP  0     ROOT SEP Y 9
     4 GLP5        3 GROUP        1 Y    GLP  0     **** GLP Y 13
     5 SEL2       66 GROUP        1 Z    SEL  0     ROOT SEL Z 16
     6 GLL5        2 GROUP        1 Z    GLL  0     **** GLL Z 20
@<TRIPOS>SET

