#    Name: 2fgi_PD1_2_ligand
#    Modification time : Tue Mar 25 12:34:01 2014

@<TRIPOS>MOLECULE
2fgi_PD1_2_ligand
   80    82     1     0     0
SMALL
NO_CHARGES


@<TRIPOS>ATOM
      1 C1         58.9810   -2.0430    3.9760 C.3       1 PD11000     0.0000 
      2 C2         59.8760   -2.2010    2.7690 C.3       1 PD11000     0.0000 
      3 C3         60.5050    1.2990    1.7430 C.3       1 PD11000     0.0000 
      4 C4         60.6590   -0.1810    1.3890 C.3       1 PD11000     0.0000 
      5 C5         62.1240   -1.0950    3.2720 C.3       1 PD11000     0.0000 
      6 C6         62.5540    0.1860    3.9180 C.3       1 PD11000     0.0000 
      7 C7         63.7390    0.0010    4.8020 C.3       1 PD11000     0.0000 
      8 C8         63.8450    1.1810    5.7370 C.3       1 PD11000     0.0000 
      9 C9         65.6080    2.0410    7.4220 C.ar      1 PD11000     0.0000 
     10 C10        66.8680    2.2960    9.3060 C.ar      1 PD11000     0.0000 
     11 C11        66.4620    3.6260    9.3760 C.ar      1 PD11000     0.0000 
     12 C12        65.5770    4.1360    8.3790 C.ar      1 PD11000     0.0000 
     13 C13        66.9010    4.4680   10.3870 C.ar      1 PD11000     0.0000 
     14 C14        66.4780    5.7780   10.4110 C.ar      1 PD11000     0.0000 
     15 C15        65.6090    6.2200    9.4040 C.ar      1 PD11000     0.0000 
     16 C16        66.9580    6.5600   11.4490 C.ar      1 PD11000     0.0000 
     17 C17        66.4940    6.3520   12.7490 C.ar      1 PD11000     0.0000 
     18 C18        66.9910    7.1190   13.7810 C.ar      1 PD11000     0.0000 
     19 C19        67.9480    8.0910   13.5590 C.ar      1 PD11000     0.0000 
     20 C20        68.4050    8.2850   12.2710 C.ar      1 PD11000     0.0000 
     21 C21        67.9310    7.5430   11.2140 C.ar      1 PD11000     0.0000 
     22 C22        66.8610    7.7370   16.2120 C.3       1 PD11000     0.0000 
     23 C23        70.2090    9.8020   13.1040 C.3       1 PD11000     0.0000 
     24 C24        64.2690    8.2020    8.5940 C.2       1 PD11000     0.0000 
     25 C25        62.8310    8.1400    6.5870 C.3       1 PD11000     0.0000 
     26 C26        61.5260    8.3190    7.2960 C.3       1 PD11000     0.0000 
     27 C27        63.3140    9.4890    6.0530 C.3       1 PD11000     0.0000 
     28 C28        62.6120    7.2020    5.4410 C.3       1 PD11000     0.0000 
     29 N1         60.7700   -1.0000    2.6460 N.4       1 PD11000     0.0000 
     30 N2         65.1450    1.2000    6.3820 N.pl3     1 PD11000     0.0000 
     31 N3         66.4220    1.4930    8.3010 N.ar      1 PD11000     0.0000 
     32 N4         65.1840    3.2990    7.4290 N.ar      1 PD11000     0.0000 
     33 N5         65.1950    5.4060    8.4400 N.ar      1 PD11000     0.0000 
     34 N6         65.1410    7.5720    9.3750 N.am      1 PD11000     0.0000 
     35 N7         63.8150    7.5700    7.5030 N.am      1 PD11000     0.0000 
     36 O1         66.5300    6.8940   15.0800 O.3       1 PD11000     0.0000 
     37 O2         69.3830    9.2400   12.0460 O.3       1 PD11000     0.0000 
     38 O3         63.8720    9.3350    8.8920 O.2       1 PD11000     0.0000 
     39 H          59.2633   -2.2960    1.8750 H         1 PD11000     0.0000 
     40 H          60.4802   -3.0987    2.8824 H         1 PD11000     0.0000 
     41 H          61.5533   -0.3078    0.7835 H         1 PD11000     0.0000 
     42 H          59.7919   -0.4985    0.8148 H         1 PD11000     0.0000 
     43 H          62.1222   -1.9003    4.0270 H         1 PD11000     0.0000 
     44 H          62.8631   -1.3807    2.5035 H         1 PD11000     0.0000 
     45 H          61.7162    0.5949    4.5058 H         1 PD11000     0.0000 
     46 H          62.7900    0.9255    3.1356 H         1 PD11000     0.0000 
     47 H          64.6445   -0.0650    4.2031 H         1 PD11000     0.0000 
     48 H          63.6306   -0.9106    5.3852 H         1 PD11000     0.0000 
     49 H          63.0409    1.1097    6.4809 H         1 PD11000     0.0000 
     50 H          63.6824    2.0998    5.1587 H         1 PD11000     0.0000 
     51 H          67.5124    1.9289   10.0282 H         1 PD11000     0.0000 
     52 H          67.5378    4.1120   11.1113 H         1 PD11000     0.0000 
     53 H          65.7863    5.6297   12.9275 H         1 PD11000     0.0000 
     54 H          68.3088    8.6532   14.3316 H         1 PD11000     0.0000 
     55 H          68.2761    7.6968   10.2630 H         1 PD11000     0.0000 
     56 H          60.2091   -0.2282    3.4560 H         1 PD11000     0.0000 
     57 H          65.8452    0.4682    6.0087 H         1 PD11000     0.0000 
     58 H          65.6209    8.1918   10.1767 H         1 PD11000     0.0000 
     59 H          64.1567    6.6070    7.2497 H         1 PD11000     0.0000 
     60 H          59.5087   -1.9612    4.8215 H         1 PD11000     0.0000 
     61 H          58.4071   -1.2269    3.9085 H         1 PD11000     0.0000 
     62 H          58.3672   -2.8245    4.0881 H         1 PD11000     0.0000 
     63 H          61.2866    1.6391    2.2659 H         1 PD11000     0.0000 
     64 H          60.4281    1.8703    0.9258 H         1 PD11000     0.0000 
     65 H          59.6881    1.4657    2.2952 H         1 PD11000     0.0000 
     66 H          67.8468    7.7667   16.3773 H         1 PD11000     0.0000 
     67 H          66.5585    8.6801   16.0738 H         1 PD11000     0.0000 
     68 H          66.4321    7.4122   17.0549 H         1 PD11000     0.0000 
     69 H          70.7454    9.0983   13.5699 H         1 PD11000     0.0000 
     70 H          70.8560   10.4778   12.7508 H         1 PD11000     0.0000 
     71 H          69.6581   10.2603   13.8015 H         1 PD11000     0.0000 
     72 H          61.6068    8.9473    8.0697 H         1 PD11000     0.0000 
     73 H          60.8219    8.6892    6.6901 H         1 PD11000     0.0000 
     74 H          61.1773    7.4538    7.6563 H         1 PD11000     0.0000 
     75 H          63.4489   10.1529    6.7886 H         1 PD11000     0.0000 
     76 H          64.1853    9.4065    5.5692 H         1 PD11000     0.0000 
     77 H          62.6597    9.8906    5.4122 H         1 PD11000     0.0000 
     78 H          63.4539    7.0427    4.9253 H         1 PD11000     0.0000 
     79 H          62.2838    6.3091    5.7494 H         1 PD11000     0.0000 
     80 H          61.9354    7.5560    4.7954 H         1 PD11000     0.0000 
@<TRIPOS>BOND
     1    2    1 1    
     2   60    1 1    
     3   61    1 1    
     4   62    1 1    
     5   29    2 1    
     6   39    2 1    
     7   40    2 1    
     8    4    3 1    
     9   63    3 1    
    10   64    3 1    
    11   65    3 1    
    12   29    4 1    
    13   41    4 1    
    14   42    4 1    
    15    6    5 1    
    16   29    5 1    
    17   43    5 1    
    18   44    5 1    
    19    7    6 1    
    20   45    6 1    
    21   46    6 1    
    22    8    7 1    
    23   47    7 1    
    24   48    7 1    
    25   30    8 1    
    26   49    8 1    
    27   50    8 1    
    28   30    9 1    
    29   31    9 ar   
    30   32    9 ar   
    31   11   10 ar   
    32   31   10 ar   
    33   51   10 1    
    34   12   11 ar   
    35   13   11 ar   
    36   32   12 ar   
    37   33   12 ar   
    38   14   13 ar   
    39   52   13 1    
    40   15   14 ar   
    41   16   14 1    
    42   33   15 ar   
    43   34   15 1    
    44   17   16 ar   
    45   21   16 ar   
    46   18   17 ar   
    47   53   17 1    
    48   19   18 ar   
    49   36   18 1    
    50   20   19 ar   
    51   54   19 1    
    52   21   20 ar   
    53   37   20 1    
    54   55   21 1    
    55   36   22 1    
    56   66   22 1    
    57   67   22 1    
    58   68   22 1    
    59   37   23 1    
    60   69   23 1    
    61   70   23 1    
    62   71   23 1    
    63   34   24 am   
    64   35   24 am   
    65   38   24 2    
    66   26   25 1    
    67   27   25 1    
    68   28   25 1    
    69   35   25 1    
    70   72   26 1    
    71   73   26 1    
    72   74   26 1    
    73   75   27 1    
    74   76   27 1    
    75   77   27 1    
    76   78   28 1    
    77   79   28 1    
    78   80   28 1    
    79   56   29 1    
    80   57   30 1    
    81   58   34 1    
    82   59   35 1    
@<TRIPOS>SUBSTRUCTURE
     1 PD11000     1 GROUP   
@<TRIPOS>SET

