#    Name: 3e93_19B_1_INTS_M
#    Modification time : Tue Mar 25 01:15:47 2014

@<TRIPOS>MOLECULE
3e93_19B_1_INTS_M
   97     0     9     0     0
SMALL
NO_CHARGES


@<TRIPOS>ATOM
      1 N          42.0805   29.1880   37.0010 N.am      2 SEC2        0.0000 
      2 N          41.0000   29.8000   36.2000 N.am      8 SEL2        0.0000 
      3 N          43.1610   28.5760   37.8020 N.am      5 SEP2        0.0000 
      4 O          38.4685   27.9000   34.4995 O.2       1 ALC1        0.0000 
      5 O          39.3020   28.4420   35.5360 O.2       7 ALL1        0.0000 
      6 O          37.6350   27.3580   33.4630 O.2       4 ALP1        0.0000 
      7 CA         39.7085   30.1225   38.4005 C.3       3 GLC5        0.0000 
      8 CA         39.5450   27.9960   37.9890 C.3       9 GLL5        0.0000 
      9 CA         39.8720   32.2490   38.8120 C.3       6 GLP5        0.0000 
     10 CA         37.6360   25.8560   39.9125 C.3       3 GLC5        0.0000 
     11 CA         39.2210   25.7450   38.7730 C.3       9 GLL5        0.0000 
     12 CA         36.0510   25.9670   41.0520 C.3       6 GLP5        0.0000 
     13 CA         38.2380   28.5685   40.3780 C.3       3 GLC5        0.0000 
     14 CA         40.4560   28.8390   40.5990 C.3       9 GLL5        0.0000 
     15 CA         36.0200   28.2980   40.1570 C.3       6 GLP5        0.0000 
     16 CA         41.5530   27.4950   39.1830 C.3       3 GLC5        0.0000 
     17 CA         42.6500   26.1510   37.7670 C.3       6 GLP5        0.0000 
     18 CA         39.6935   31.0035   42.7785 C.3       3 GLC5        0.0000 
     19 CA         40.3240   29.3880   42.0340 C.3       9 GLL5        0.0000 
     20 CA         39.0630   32.6190   43.5230 C.3       6 GLP5        0.0000 
     21 CA         40.5490   29.6400   43.9550 C.3       3 GLC5        0.0000 
     22 CA         40.7740   29.8920   45.8760 C.3       6 GLP5        0.0000 
     23 CA         42.1870   29.6545   42.6700 C.3       3 GLC5        0.0000 
     24 CA         44.0500   29.9210   43.3060 C.3       6 GLP5        0.0000 
     25 CA         39.4250   27.3170   44.9005 C.3       3 GLC5        0.0000 
     26 CA         39.7690   27.2960   42.9390 C.3       9 GLL5        0.0000 
     27 CA         39.0810   27.3380   46.8620 C.3       6 GLP5        0.0000 
     28 CA         36.9575   29.8920   32.4325 C.3       3 GLC5        0.0000 
     29 CA         38.8300   30.5450   33.4680 C.3       9 GLL5        0.0000 
     30 CA         35.0850   29.2390   31.3970 C.3       6 GLP5        0.0000 
     31 CA         36.9155   31.4870   31.4510 C.3       3 GLC5        0.0000 
     32 CA         38.8000   31.3890   32.3550 C.3       9 GLL5        0.0000 
     33 CA         35.0310   31.5850   30.5470 C.3       6 GLP5        0.0000 
     34 CA         41.3965   32.8430   29.0380 C.3       3 GLC5        0.0000 
     35 CA         39.8990   32.9340   30.6860 C.3       9 GLL5        0.0000 
     36 CA         42.8940   32.7520   27.3900 C.3       6 GLP5        0.0000 
     37 CA         40.9700   34.4390   30.1100 C.3       3 GLC5        0.0000 
     38 CA         42.0410   35.9440   29.5340 C.3       6 GLP5        0.0000 
     39 CA         39.3225   31.6775   29.4970 C.3       3 GLC5        0.0000 
     40 CA         38.7460   30.4210   28.3080 C.3       6 GLP5        0.0000 
     41 CA         42.7250   31.6770   34.7675 C.3       3 GLC5        0.0000 
     42 CA         41.2020   30.9790   33.7030 C.3       9 GLL5        0.0000 
     43 CA         44.2480   32.3750   35.8320 C.3       6 GLP5        0.0000 
     44 CA         44.6350   35.3225   33.5760 C.3       3 GLC5        0.0000 
     45 CA         43.8040   34.3760   32.0510 C.3       9 GLL5        0.0000 
     46 CA         45.4660   36.2690   35.1010 C.3       6 GLP5        0.0000 
     47 N          44.9280   36.9370   32.6140 N.am      2 SEC2        0.0000 
     48 N          44.3090   35.6250   32.2690 N.am      8 SEL2        0.0000 
     49 N          45.5470   38.2490   32.9590 N.am      5 SEP2        0.0000 
     50 N          45.4960   36.9920   32.2760 N.am      2 SEC2        0.0000 
     51 N          45.4450   35.7350   31.5930 N.am      8 SEL2        0.0000 
     52 CA         48.2195   34.7195   27.0180 C.3       3 GLC5        0.0000 
     53 CA         48.9620   35.1390   28.7590 C.3       9 GLL5        0.0000 
     54 CA         47.4770   34.3000   25.2770 C.3       6 GLP5        0.0000 
     55 CA         37.3777   26.7780   35.5425 C.3       3 GLC5        0.0000 
     56 CA         39.2780   27.5910   36.6470 C.3       9 GLL5        0.0000 
     57 CA         35.6270   26.6340   34.5600 C.3       6 GLP5        0.0000 
     58 CA         38.0293   29.3047   37.2260 C.3       3 GLC5        0.0000 
     59 CA         36.6470   30.8160   37.1340 C.3       6 GLP5        0.0000 
     60 CA         41.0307   26.9723   37.5425 C.3       3 GLC5        0.0000 
     61 CA         37.7775   27.9210   39.3465 C.3       3 GLC5        0.0000 
     62 CA         41.0115   26.2847   38.3475 C.3       3 GLC5        0.0000 
     63 CA         39.5250   27.0920   39.0830 C.3       9 GLL5        0.0000 
     64 CA         40.8067   25.9725   37.3498 C.3       3 GLC5        0.0000 
     65 CA         38.9480   25.3350   37.4620 C.3       9 GLL5        0.0000 
     66 CA         40.1310   30.6812   40.0643 C.3       3 GLC5        0.0000 
     67 CA         41.9520   27.7938   41.9368 C.3       3 GLC5        0.0000 
     68 CA         43.5140   26.4740   42.5570 C.3       6 GLP5        0.0000 
     69 CA         41.9325   29.8503   40.2327 C.3       3 GLC5        0.0000 
     70 CA         43.4750   30.5870   39.1490 C.3       6 GLP5        0.0000 
     71 CA         37.8997   26.4513   41.6538 C.3       3 GLC5        0.0000 
     72 CA         39.7280   26.5750   41.5720 C.3       9 GLL5        0.0000 
     73 CA         38.4228   26.0097   43.5183 C.3       3 GLC5        0.0000 
     74 CA         37.0970   25.0840   44.7810 C.3       6 GLP5        0.0000 
     75 CA         41.6313   26.7047   42.4062 C.3       3 GLC5        0.0000 
     76 CA         39.2812   29.3620   32.2103 C.3       3 GLC5        0.0000 
     77 CA         40.0370   30.3310   34.1470 C.3       9 GLL5        0.0000 
     78 CA         39.1290   28.2860   30.6130 C.3       6 GLP5        0.0000 
     79 CA         37.1930   30.5835   33.9292 C.3       3 GLC5        0.0000 
     80 CA         35.5710   30.2000   34.9470 C.3       6 GLP5        0.0000 
     81 CA         38.4965   32.8755   33.3333 C.3       3 GLC5        0.0000 
     82 CA         38.1780   34.7840   33.7550 C.3       6 GLP5        0.0000 
     83 CA         39.2545   29.9958   31.3723 C.3       3 GLC5        0.0000 
     84 CA         39.3601   33.4630   32.8513 C.3       3 GLC5        0.0000 
     85 CA         39.9600   32.0220   31.9080 C.3       9 GLL5        0.0000 
     86 CA         43.5697   32.8257   29.2619 C.3       3 GLC5        0.0000 
     87 CA         44.6680   33.7200   31.2190 C.3       9 GLL5        0.0000 
     88 CA         43.7062   33.0619   34.0090 C.3       3 GLC5        0.0000 
     89 CA         46.7007   34.5700   27.8305 C.3       3 GLC5        0.0000 
     90 CA         46.9380   34.2910   30.0510 C.3       9 GLL5        0.0000 
     91 CA         46.0430   34.2300   25.7910 C.3       6 GLP5        0.0000 
     92 CA         46.2938   36.5905   29.4560 C.3       3 GLC5        0.0000 
     93 CA         45.2290   38.2710   29.0420 C.3       6 GLP5        0.0000 
     94 CA         46.8457   32.8025   31.9113 C.3       3 GLC5        0.0000 
     95 CA         46.2620   31.8040   33.4290 C.3       6 GLP5        0.0000 
     96 CA         42.9454   34.6731   30.5676 C.3       3 GLC5        0.0000 
     97 CA         44.4020   32.3910   30.8140 C.3       9 GLL5        0.0000 
@<TRIPOS>BOND
@<TRIPOS>SUBSTRUCTURE
     1 ALC1        4 GROUP        1 X    ALC  0     ROOT ALC X 1
     2 SEC2        1 GROUP        1 X    SEC  0     **** SEC X 2
     3 GLC5        7 GROUP        1 X    GLC  0     **** GLC X 6
     4 ALP1        6 GROUP        1 Y    ALP  0     ROOT ALP Y 8
     5 SEP2        3 GROUP        1 Y    SEP  0     **** SEP Y 9
     6 GLP5        9 GROUP        1 Y    GLP  0     **** GLP Y 13
     7 ALL1        5 GROUP        1 Z    ALL  0     ROOT ALL Z 15
     8 SEL2        2 GROUP        1 Z    SEL  0     **** SEL Z 16
     9 GLL5        8 GROUP        1 Z    GLL  0     **** GLL Z 20
@<TRIPOS>SET

