#    Name: 3e93_19B_1_ligand
#    Modification time : Tue Mar 25 01:15:47 2014

@<TRIPOS>MOLECULE
3e93_19B_1_ligand
   68    73     1     0     0
SMALL
NO_CHARGES


@<TRIPOS>ATOM
      1 O25        41.0000   29.8000   36.2000 O.2       1 19B361      0.0000 
      2 C22        40.1650   29.4840   35.3570 C.2       1 19B361      0.0000 
      3 N24        39.3020   28.4420   35.5360 N.am      1 19B361      0.0000 
      4 C26        39.2780   27.5910   36.6470 C.ar      1 19B361      0.0000 
      5 C27        39.5450   27.9960   37.9890 C.ar      1 19B361      0.0000 
      6 C29        39.5250   27.0920   39.0830 C.ar      1 19B361      0.0000 
      7 C32        39.2210   25.7450   38.7730 C.ar      1 19B361      0.0000 
      8 C30        38.9480   25.3350   37.4620 C.ar      1 19B361      0.0000 
      9 C28        38.9790   26.2530   36.4030 C.ar      1 19B361      0.0000 
     10 N31        39.8530   27.4950   40.3960 N.3       1 19B361      0.0000 
     11 C33        40.4560   28.8390   40.5990 C.3       1 19B361      0.0000 
     12 C35        40.3240   29.3880   42.0340 C.3       1 19B361      0.0000 
     13 O37        40.7020   28.3600   42.9180 O.3       1 19B361      0.0000 
     14 C36        39.7690   27.2960   42.9390 C.3       1 19B361      0.0000 
     15 C34        39.7280   26.5750   41.5720 C.3       1 19B361      0.0000 
     16 C19        40.0370   30.3310   34.1470 C.ar      1 19B361      0.0000 
     17 C23        38.8300   30.5450   33.4680 C.ar      1 19B361      0.0000 
     18 C20        38.8000   31.3890   32.3550 C.ar      1 19B361      0.0000 
     19 C18        39.9600   32.0220   31.9080 C.ar      1 19B361      0.0000 
     20 C21        39.8990   32.9340   30.6860 C.3       1 19B361      0.0000 
     21 C15        41.1550   31.8060   32.5980 C.ar      1 19B361      0.0000 
     22 C17        41.2020   30.9790   33.7030 C.ar      1 19B361      0.0000 
     23 C12        42.3860   32.4650   32.1310 C.ar      1 19B361      0.0000 
     24 C9         43.2440   31.7670   31.2830 C.ar      1 19B361      0.0000 
     25 C4         44.4020   32.3910   30.8140 C.ar      1 19B361      0.0000 
     26 C1         44.6680   33.7200   31.2190 C.ar      1 19B361      0.0000 
     27 C3         43.8040   34.3760   32.0510 C.ar      1 19B361      0.0000 
     28 O8         44.3090   35.6250   32.2690 O.3       1 19B361      0.0000 
     29 C7         42.6640   33.7780   32.5110 C.ar      1 19B361      0.0000 
     30 C2         45.7300   34.5770   30.9160 C.2       1 19B361      0.0000 
     31 N6         45.4450   35.7350   31.5930 N.2       1 19B361      0.0000 
     32 C5         46.9380   34.2910   30.0510 C.3       1 19B361      0.0000 
     33 C10        47.9210   33.3110   30.7360 C.3       1 19B361      0.0000 
     34 C13        48.9430   32.8140   29.7150 C.3       1 19B361      0.0000 
     35 N16        49.7120   33.9080   29.1010 N.4       1 19B361      0.0000 
     36 C14        48.9620   35.1390   28.7590 C.3       1 19B361      0.0000 
     37 C11        47.7790   35.5290   29.6890 C.3       1 19B361      0.0000 
     38 H          38.5793   28.2485   34.7722 H         1 19B361      0.0000 
     39 H          39.7626   28.9943   38.1694 H         1 19B361      0.0000 
     40 H          39.2015   25.0499   39.5392 H         1 19B361      0.0000 
     41 H          38.7218   24.3481   37.2732 H         1 19B361      0.0000 
     42 H          38.7803   25.9342   35.4474 H         1 19B361      0.0000 
     43 H          39.9905   29.5716   39.9108 H         1 19B361      0.0000 
     44 H          41.5333   28.8142   40.3425 H         1 19B361      0.0000 
     45 H          39.2892   29.6985   42.1674 H         1 19B361      0.0000 
     46 H          40.9678   30.2629   42.1059 H         1 19B361      0.0000 
     47 H          38.7463   27.6428   43.1507 H         1 19B361      0.0000 
     48 H          40.0194   26.5372   43.6956 H         1 19B361      0.0000 
     49 H          40.5420   25.8300   41.5544 H         1 19B361      0.0000 
     50 H          38.7800   26.0134   41.5106 H         1 19B361      0.0000 
     51 H          37.9739   30.0835   33.7879 H         1 19B361      0.0000 
     52 H          37.9091   31.5453   31.8585 H         1 19B361      0.0000 
     53 H          42.0847   30.8304   34.2084 H         1 19B361      0.0000 
     54 H          43.0287   30.8065   31.0060 H         1 19B361      0.0000 
     55 H          45.0442   31.9084   30.1955 H         1 19B361      0.0000 
     56 H          42.0141   34.2770   33.1274 H         1 19B361      0.0000 
     57 H          46.6303   33.8202   29.1189 H         1 19B361      0.0000 
     58 H          47.3625   32.4732   31.1302 H         1 19B361      0.0000 
     59 H          48.4290   33.8282   31.5382 H         1 19B361      0.0000 
     60 H          48.4046   32.2410   28.9408 H         1 19B361      0.0000 
     61 H          49.6202   32.1063   30.2231 H         1 19B361      0.0000 
     62 H          48.5534   35.0618   27.7201 H         1 19B361      0.0000 
     63 H          49.6583   36.0144   28.7260 H         1 19B361      0.0000 
     64 H          48.1776   35.9713   30.5952 H         1 19B361      0.0000 
     65 H          47.1542   36.2515   29.1759 H         1 19B361      0.0000 
     66 H          40.7932   33.3261   30.4702 H         1 19B361      0.0000 
     67 H          39.5899   32.4433   29.8714 H         1 19B361      0.0000 
     68 H          39.2694   33.6985   30.8242 H         1 19B361      0.0000 
@<TRIPOS>BOND
     1    2    1 2    
     2    3    2 am   
     3   16    2 1    
     4    4    3 1    
     5   38    3 1    
     6    5    4 ar   
     7    9    4 ar   
     8    6    5 ar   
     9   39    5 1    
    10    7    6 ar   
    11   10    6 1    
    12    8    7 ar   
    13   40    7 1    
    14    9    8 ar   
    15   41    8 1    
    16   42    9 1    
    17   11   10 1    
    18   15   10 1    
    19   12   11 1    
    20   43   11 1    
    21   44   11 1    
    22   13   12 1    
    23   45   12 1    
    24   46   12 1    
    25   14   13 1    
    26   15   14 1    
    27   47   14 1    
    28   48   14 1    
    29   49   15 1    
    30   50   15 1    
    31   17   16 ar   
    32   22   16 ar   
    33   18   17 ar   
    34   51   17 1    
    35   19   18 ar   
    36   52   18 1    
    37   20   19 1    
    38   21   19 ar   
    39   66   20 1    
    40   67   20 1    
    41   68   20 1    
    42   22   21 ar   
    43   23   21 1    
    44   53   22 1    
    45   24   23 ar   
    46   29   23 ar   
    47   25   24 ar   
    48   54   24 1    
    49   26   25 ar   
    50   55   25 1    
    51   27   26 ar   
    52   30   26 1    
    53   28   27 1    
    54   29   27 ar   
    55   31   28 1    
    56   56   29 1    
    57   31   30 2    
    58   32   30 1    
    59   33   32 1    
    60   37   32 1    
    61   57   32 1    
    62   34   33 1    
    63   58   33 1    
    64   59   33 1    
    65   35   34 1    
    66   60   34 1    
    67   61   34 1    
    68   36   35 1    
    69   37   36 1    
    70   62   36 1    
    71   63   36 1    
    72   64   37 1    
    73   65   37 1    
@<TRIPOS>SUBSTRUCTURE
     1 19B361      1 GROUP   
@<TRIPOS>SET

