#    Name: 1hbp_RTL_1_INTS_M
#    Modification time : Tue Mar 25 05:20:46 2014

@<TRIPOS>MOLECULE
1hbp_RTL_1_INTS_M
   71     0     3     0     0
SMALL
NO_CHARGES


@<TRIPOS>ATOM
      1 CA         31.0455   22.3945   41.9815 C.3       1 GLC5        0.0000 
      2 CA         30.0660   20.6000   42.8500 C.3       3 GLL5        0.0000 
      3 CA         32.0250   24.1890   41.1130 C.3       2 GLP5        0.0000 
      4 CA         28.4785   19.3410   41.9475 C.3       1 GLC5        0.0000 
      5 CA         26.8910   18.0820   41.0450 C.3       2 GLP5        0.0000 
      6 CA         33.9130   18.8500   47.4020 C.3       1 GLC5        0.0000 
      7 CA         31.7670   19.3340   47.7030 C.3       3 GLL5        0.0000 
      8 CA         36.0590   18.3660   47.1010 C.3       2 GLP5        0.0000 
      9 CA         31.6190   16.9870   49.6190 C.3       1 GLC5        0.0000 
     10 CA         31.8600   19.1410   49.1480 C.3       3 GLL5        0.0000 
     11 CA         31.3780   14.8330   50.0900 C.3       2 GLP5        0.0000 
     12 CA         33.7185   21.2150   48.9805 C.3       1 GLC5        0.0000 
     13 CA         33.1740   19.2650   49.4820 C.3       3 GLL5        0.0000 
     14 CA         34.2630   23.1650   48.4790 C.3       2 GLP5        0.0000 
     15 CA         34.6165   18.8155   48.2915 C.3       1 GLC5        0.0000 
     16 CA         34.3390   17.5075   49.6540 C.3       1 GLC5        0.0000 
     17 CA         33.3400   19.0230   50.9170 C.3       3 GLL5        0.0000 
     18 CA         35.3380   15.9920   48.3910 C.3       2 GLP5        0.0000 
     19 CA         35.7130   18.1205   49.7045 C.3       1 GLC5        0.0000 
     20 CA         34.6530   19.1830   51.2550 C.3       3 GLL5        0.0000 
     21 CA         36.7730   17.0580   48.1540 C.3       2 GLP5        0.0000 
     22 CA         36.8690   18.3120   55.8665 C.3       1 GLC5        0.0000 
     23 CA         36.6870   18.1570   54.0370 C.3       3 GLL5        0.0000 
     24 CA         37.0510   18.4670   57.6960 C.3       2 GLP5        0.0000 
     25 CA         38.4290   17.4615   52.8320 C.3       1 GLC5        0.0000 
     26 CA         40.1710   16.7660   51.6270 C.3       2 GLP5        0.0000 
     27 CA         28.1955   19.3590   46.0670 C.3       1 GLC5        0.0000 
     28 CA         28.4490   21.4310   45.8520 C.3       3 GLL5        0.0000 
     29 CA         27.9420   17.2870   46.2820 C.3       2 GLP5        0.0000 
     30 CA         27.3495   21.6085   47.7460 C.3       1 GLC5        0.0000 
     31 CA         26.2500   21.7860   49.6400 C.3       2 GLP5        0.0000 
     32 CA         28.6675   23.0750   47.2035 C.3       1 GLC5        0.0000 
     33 CA         28.8860   24.7190   48.5550 C.3       2 GLP5        0.0000 
     34 CA         32.3920   22.1080   44.7380 C.3       1 GLC5        0.0000 
     35 CA         30.6360   22.7050   45.6890 C.3       3 GLL5        0.0000 
     36 CA         34.1480   21.5110   43.7870 C.3       2 GLP5        0.0000 
     37 CA         29.7610   23.7120   47.1220 C.3       1 GLC5        0.0000 
     38 CA         29.5570   24.3610   44.6475 C.3       1 GLC5        0.0000 
     39 CA         28.4780   26.0170   43.6060 C.3       2 GLP5        0.0000 
     40 CA         33.6405   17.9665   45.4130 C.3       1 GLC5        0.0000 
     41 CA         31.6250   18.0130   45.1280 C.3       3 GLL5        0.0000 
     42 CA         35.6560   17.9200   45.6980 C.3       2 GLP5        0.0000 
     43 CA         29.7835   17.6500   45.7050 C.3       1 GLC5        0.0000 
     44 CA         31.2785   16.1800   45.7290 C.3       1 GLC5        0.0000 
     45 CA         30.9320   14.3470   46.3300 C.3       2 GLP5        0.0000 
     46 CA         30.0705   20.4370   51.0860 C.3       1 GLC5        0.0000 
     47 CA         30.4840   18.8990   49.7620 C.3       3 GLL5        0.0000 
     48 CA         29.6570   21.9750   52.4100 C.3       2 GLP5        0.0000 
     49 CA         30.2655   16.8705   50.1415 C.3       1 GLC5        0.0000 
     50 CA         30.0470   14.8420   50.5210 C.3       2 GLP5        0.0000 
     51 CA         35.1465   19.2970   55.6375 C.3       1 GLC5        0.0000 
     52 CA         34.1870   18.9420   53.7160 C.3       3 GLL5        0.0000 
     53 CA         36.1060   19.6520   57.5590 C.3       2 GLP5        0.0000 
     54 CA         33.6810   20.5960   54.3895 C.3       1 GLC5        0.0000 
     55 CA         33.1750   22.2500   55.0630 C.3       2 GLP5        0.0000 
     56 CA         34.2285   16.9420   53.6440 C.3       1 GLC5        0.0000 
     57 CA         34.2700   14.9420   53.5720 C.3       2 GLP5        0.0000 
     58 CA         28.6898   21.5393   41.6902 C.3       1 GLC5        0.0000 
     59 CA         29.3550   21.4850   43.8670 C.3       3 GLL5        0.0000 
     60 CA         27.6690   22.0360   40.0220 C.3       2 GLP5        0.0000 
     61 CA         30.7060   19.6138   41.1962 C.3       1 GLC5        0.0000 
     62 CA         30.7830   19.0440   39.2450 C.3       2 GLP5        0.0000 
     63 CA         29.1390   18.7553   43.8207 C.3       1 GLC5        0.0000 
     64 CA         31.1920   19.7670   43.4450 C.3       3 GLL5        0.0000 
     65 CA         27.6490   17.3270   44.4940 C.3       2 GLP5        0.0000 
     66 CA         32.4845   20.6466   43.9096 C.3       1 GLC5        0.0000 
     67 CA         31.0130   19.3810   44.9170 C.3       3 GLL5        0.0000 
     68 CA         29.2587   18.5020   46.2994 C.3       1 GLC5        0.0000 
     69 CA         37.1605   20.0533   53.9087 C.3       1 GLC5        0.0000 
     70 CA         37.8200   21.6320   54.4060 C.3       2 GLP5        0.0000 
     71 CA         35.2230   16.6729   53.4560 C.3       1 GLC5        0.0000 
@<TRIPOS>BOND
@<TRIPOS>SUBSTRUCTURE
     1 GLC5        1 GROUP        1 X    GLC  0     ROOT GLC X 6
     2 GLP5        3 GROUP        1 Y    GLP  0     ROOT GLP Y 13
     3 GLL5        2 GROUP        1 Z    GLL  0     ROOT GLL Z 20
@<TRIPOS>SET

