#    Name: 1hbp_RTL_1_ligand
#    Modification time : Tue Mar 25 05:20:46 2014

@<TRIPOS>MOLECULE
1hbp_RTL_1_ligand
   51    51     1     0     0
SMALL
NO_CHARGES


@<TRIPOS>ATOM
      1 C1         29.8770   21.4390   45.3070 C.3       1 RTL184      0.0000 
      2 C2         29.3550   21.4850   43.8670 C.3       1 RTL184      0.0000 
      3 C3         30.0660   20.6000   42.8500 C.3       1 RTL184      0.0000 
      4 C4         31.1920   19.7670   43.4450 C.3       1 RTL184      0.0000 
      5 C5         31.0130   19.3810   44.9170 C.2       1 RTL184      0.0000 
      6 C6         30.2570   20.0630   45.8380 C.2       1 RTL184      0.0000 
      7 C7         30.5160   19.7120   47.2560 C.2       1 RTL184      0.0000 
      8 C8         31.7670   19.3340   47.7030 C.2       1 RTL184      0.0000 
      9 C9         31.8600   19.1410   49.1480 C.2       1 RTL184      0.0000 
     10 C10        33.1740   19.2650   49.4820 C.2       1 RTL184      0.0000 
     11 C11        33.3400   19.0230   50.9170 C.2       1 RTL184      0.0000 
     12 C12        34.6530   19.1830   51.2550 C.2       1 RTL184      0.0000 
     13 C13        35.0150   18.5090   52.5000 C.2       1 RTL184      0.0000 
     14 C14        36.3150   18.7920   52.7860 C.2       1 RTL184      0.0000 
     15 C15        36.6870   18.1570   54.0370 C.3       1 RTL184      0.0000 
     16 O1         37.9420   18.5590   54.3660 O.3       1 RTL184      0.0000 
     17 C16        28.4490   21.4310   45.8520 C.3       1 RTL184      0.0000 
     18 C17        30.6360   22.7050   45.6890 C.3       1 RTL184      0.0000 
     19 C18        31.6250   18.0130   45.1280 C.3       1 RTL184      0.0000 
     20 C19        30.4840   18.8990   49.7620 C.3       1 RTL184      0.0000 
     21 C20        34.1870   18.9420   53.7160 C.3       1 RTL184      0.0000 
     22 H          29.3949   22.5412   43.5119 H         1 RTL184      0.0000 
     23 H          28.2720   21.2198   43.8767 H         1 RTL184      0.0000 
     24 H          30.4744   21.2350   42.0469 H         1 RTL184      0.0000 
     25 H          29.3282   19.9265   42.3842 H         1 RTL184      0.0000 
     26 H          32.1455   20.3223   43.3394 H         1 RTL184      0.0000 
     27 H          31.3080   18.8398   42.8488 H         1 RTL184      0.0000 
     28 H          29.7084   19.7652   47.8946 H         1 RTL184      0.0000 
     29 H          32.5509   19.1966   47.1317 H         1 RTL184      0.0000 
     30 H          33.9091   19.4733   48.9179 H         1 RTL184      0.0000 
     31 H          32.6116   18.7932   51.4784 H         1 RTL184      0.0000 
     32 H          35.3196   19.6852   50.7514 H         1 RTL184      0.0000 
     33 H          36.9259   19.3178   52.2789 H         1 RTL184      0.0000 
     34 H          36.6147   17.0591   53.9111 H         1 RTL184      0.0000 
     35 H          35.9403   18.4306   54.8078 H         1 RTL184      0.0000 
     36 H          28.4289   21.5637   46.8430 H         1 RTL184      0.0000 
     37 H          27.8931   22.1573   45.4477 H         1 RTL184      0.0000 
     38 H          27.9840   20.5662   45.6626 H         1 RTL184      0.0000 
     39 H          30.9730   22.6664   46.6297 H         1 RTL184      0.0000 
     40 H          31.4297   22.8544   45.0993 H         1 RTL184      0.0000 
     41 H          30.0600   23.5193   45.6171 H         1 RTL184      0.0000 
     42 H          32.5999   18.0039   44.9054 H         1 RTL184      0.0000 
     43 H          31.5382   17.7097   46.0769 H         1 RTL184      0.0000 
     44 H          31.1875   17.3183   44.5570 H         1 RTL184      0.0000 
     45 H          30.5372   18.7648   50.7515 H         1 RTL184      0.0000 
     46 H          29.8659   19.6690   49.6035 H         1 RTL184      0.0000 
     47 H          30.0442   18.0865   49.3793 H         1 RTL184      0.0000 
     48 H          34.4656   18.4590   54.5461 H         1 RTL184      0.0000 
     49 H          34.2816   19.9203   53.9004 H         1 RTL184      0.0000 
     50 H          33.2122   18.7613   53.5850 H         1 RTL184      0.0000 
     51 H          38.3249   17.8031   54.8971 H         1 RTL184      0.0000 
@<TRIPOS>BOND
     1    2    1 1    
     2    6    1 1    
     3   17    1 1    
     4   18    1 1    
     5    3    2 1    
     6   22    2 1    
     7   23    2 1    
     8    4    3 1    
     9   24    3 1    
    10   25    3 1    
    11    5    4 1    
    12   26    4 1    
    13   27    4 1    
    14    6    5 2    
    15   19    5 1    
    16    7    6 1    
    17    8    7 2    
    18   28    7 1    
    19    9    8 1    
    20   29    8 1    
    21   10    9 2    
    22   20    9 1    
    23   11   10 1    
    24   30   10 1    
    25   12   11 2    
    26   31   11 1    
    27   13   12 1    
    28   32   12 1    
    29   14   13 2    
    30   21   13 1    
    31   15   14 1    
    32   33   14 1    
    33   16   15 1    
    34   34   15 1    
    35   35   15 1    
    36   51   16 1    
    37   36   17 1    
    38   37   17 1    
    39   38   17 1    
    40   39   18 1    
    41   40   18 1    
    42   41   18 1    
    43   42   19 1    
    44   43   19 1    
    45   44   19 1    
    46   45   20 1    
    47   46   20 1    
    48   47   20 1    
    49   48   21 1    
    50   49   21 1    
    51   50   21 1    
@<TRIPOS>SUBSTRUCTURE
     1 RTL184      1 GROUP   
@<TRIPOS>SET

