#    Name: 4m11_MXM_3_INTS_M
#    Modification time : Tue Mar 25 11:49:22 2014

@<TRIPOS>MOLECULE
4m11_MXM_3_INTS_M
   57     0     6     0     0
SMALL
NO_CHARGES


@<TRIPOS>ATOM
      1 CA         72.3915   25.3015   66.7755 C.3       2 GLC5        0.0000 
      2 CA         73.1120   23.7710   66.4070 C.3       6 GLL5        0.0000 
      3 CA         71.6710   26.8320   67.1440 C.3       4 GLP5        0.0000 
      4 CA         73.6335   24.6540   67.9920 C.3       2 GLC5        0.0000 
      5 CA         74.1550   25.5370   69.5770 C.3       4 GLP5        0.0000 
      6 CA         71.8745   23.1400   67.7550 C.3       2 GLC5        0.0000 
      7 CA         70.6370   22.5090   69.1030 C.3       4 GLP5        0.0000 
      8 CA         75.8185   24.8455   65.2465 C.3       2 GLC5        0.0000 
      9 CA         74.4340   24.4170   63.9600 C.3       6 GLL5        0.0000 
     10 CA         77.2030   25.2740   66.5330 C.3       4 GLP5        0.0000 
     11 CA         74.6165   21.4385   63.3295 C.3       2 GLC5        0.0000 
     12 CA         74.8410   22.3700   65.3030 C.3       6 GLL5        0.0000 
     13 CA         74.3920   20.5070   61.3560 C.3       4 GLP5        0.0000 
     14 CA         76.6735   20.8825   61.4795 C.3       2 GLC5        0.0000 
     15 CA         77.9880   22.2900   61.0000 C.3       6 GLL5        0.0000 
     16 CA         75.3590   19.4750   61.9590 C.3       4 GLP5        0.0000 
     17 CA         75.9605   23.8680   59.6725 C.3       2 GLC5        0.0000 
     18 CA         77.9570   23.2100   59.9050 C.3       6 GLL5        0.0000 
     19 CA         73.9640   24.5260   59.4400 C.3       4 GLP5        0.0000 
     20 N          75.9960   24.8545   59.5895 N.am      1 SEC2        0.0000 
     21 N          77.0160   24.2070   59.8940 N.am      5 SEL2        0.0000 
     22 N          74.9760   25.5020   59.2850 N.am      3 SEP2        0.0000 
     23 CA         80.0195   25.7845   57.4010 C.3       2 GLC5        0.0000 
     24 CA         78.9440   24.1860   57.9110 C.3       6 GLL5        0.0000 
     25 CA         81.0950   27.3830   56.8910 C.3       4 GLP5        0.0000 
     26 CA         77.3255   23.3965   56.8555 C.3       2 GLC5        0.0000 
     27 CA         75.7070   22.6070   55.8000 C.3       4 GLP5        0.0000 
     28 CA         79.8995   23.5280   62.2595 C.3       2 GLC5        0.0000 
     29 CA         80.0660   21.8650   61.9730 C.3       6 GLL5        0.0000 
     30 CA         79.7330   25.1910   62.5460 C.3       4 GLP5        0.0000 
     31 CA         81.1095   20.7285   63.4365 C.3       2 GLC5        0.0000 
     32 CA         82.1530   19.5920   64.9000 C.3       4 GLP5        0.0000 
     33 CA         81.6630   22.7950   62.0205 C.3       2 GLC5        0.0000 
     34 CA         83.2600   23.7250   62.0680 C.3       4 GLP5        0.0000 
     35 CA         75.7140   24.1354   66.0565 C.3       2 GLC5        0.0000 
     36 CA         74.1060   23.4760   65.3070 C.3       6 GLL5        0.0000 
     37 CA         73.8895   21.2049   66.2470 C.3       2 GLC5        0.0000 
     38 CA         73.5540   19.4130   66.9140 C.3       4 GLP5        0.0000 
     39 CA         72.8353   22.4011   63.9361 C.3       2 GLC5        0.0000 
     40 CA         71.1150   21.6440   62.9040 C.3       4 GLP5        0.0000 
     41 CA         79.0374   24.0517   61.0689 C.3       2 GLC5        0.0000 
     42 CA         77.6630   21.8463   57.3180 C.3       2 GLC5        0.0000 
     43 CA         78.7110   23.0750   58.7310 C.3       6 GLL5        0.0000 
     44 CA         76.2090   21.1670   55.9430 C.3       4 GLP5        0.0000 
     45 CA         78.1075   25.5277   57.1452 C.3       2 GLC5        0.0000 
     46 CA         76.8330   26.9650   56.9090 C.3       4 GLP5        0.0000 
     47 CA         80.8077   25.1405   56.1360 C.3       2 GLC5        0.0000 
     48 CA         79.8200   23.9950   56.8520 C.3       6 GLL5        0.0000 
     49 CA         81.4590   26.8890   55.5060 C.3       4 GLP5        0.0000 
     50 CA         82.3020   22.1363   57.0555 C.3       2 GLC5        0.0000 
     51 CA         80.4930   22.7890   56.6800 C.3       6 GLL5        0.0000 
     52 CA         84.2050   22.0130   56.9930 C.3       4 GLP5        0.0000 
     53 CA         81.0685   21.3133   55.7090 C.3       2 GLC5        0.0000 
     54 CA         81.7380   20.3670   54.3000 C.3       4 GLP5        0.0000 
     55 CA         79.1979   22.0345   55.7810 C.3       2 GLC5        0.0000 
     56 CA         80.3050   21.7300   57.5560 C.3       6 GLL5        0.0000 
     57 CA         78.1650   21.5080   54.4010 C.3       4 GLP5        0.0000 
@<TRIPOS>BOND
@<TRIPOS>SUBSTRUCTURE
     1 SEC2       20 GROUP        1 X    SEC  0     ROOT SEC X 2
     2 GLC5        1 GROUP        1 X    GLC  0     **** GLC X 6
     3 SEP2       22 GROUP        1 Y    SEP  0     ROOT SEP Y 9
     4 GLP5        3 GROUP        1 Y    GLP  0     **** GLP Y 13
     5 SEL2       21 GROUP        1 Z    SEL  0     ROOT SEL Z 16
     6 GLL5        2 GROUP        1 Z    GLL  0     **** GLL Z 20
@<TRIPOS>SET

