#    Name: 4m11_MXM_3_ligand
#    Modification time : Tue Mar 25 11:49:22 2014

@<TRIPOS>MOLECULE
4m11_MXM_3_ligand
   36    38     1     0     0
SMALL
NO_CHARGES


@<TRIPOS>ATOM
      1 CAW        73.1120   23.7710   66.4070 C.3       1 MXM606      0.0000 
      2 CAV        74.1060   23.4760   65.3070 C.2       1 MXM606      0.0000 
      3 SAT        74.4340   24.4170   63.9600 S.3       1 MXM606      0.0000 
      4 CAU        74.8410   22.3700   65.3030 C.2       1 MXM606      0.0000 
      5 NAS        75.6370   22.3370   64.2210 N.2       1 MXM606      0.0000 
      6 CAR        75.6770   23.4180   63.4170 C.2       1 MXM606      0.0000 
      7 NAP        76.3070   23.3610   62.2570 N.am      1 MXM606      0.0000 
      8 CAN        77.2720   22.4280   62.1750 C.2       1 MXM606      0.0000 
      9 OAQ        77.5300   21.6020   63.0370 O.2       1 MXM606      0.0000 
     10 CAG        77.9880   22.2900   61.0000 C.2       1 MXM606      0.0000 
     11 CAC        77.9570   23.2100   59.9050 C.2       1 MXM606      0.0000 
     12 OAH        77.0160   24.2070   59.8940 O.3       1 MXM606      0.0000 
     13 CAA        78.7110   23.0750   58.7310 C.ar      1 MXM606      0.0000 
     14 CAD        78.9440   24.1860   57.9110 C.ar      1 MXM606      0.0000 
     15 CAI        79.8200   23.9950   56.8520 C.ar      1 MXM606      0.0000 
     16 CAM        80.4930   22.7890   56.6800 C.ar      1 MXM606      0.0000 
     17 CAF        80.3050   21.7300   57.5560 C.ar      1 MXM606      0.0000 
     18 CAB        79.5230   21.9760   58.6550 C.ar      1 MXM606      0.0000 
     19 SAE        79.0570   20.9000   59.7200 S.o2      1 MXM606      0.0000 
     20 OAK        80.1450   19.8090   59.7730 O.2       1 MXM606      0.0000 
     21 OAL        77.7730   20.0770   59.3290 O.2       1 MXM606      0.0000 
     22 NAJ        79.0370   21.3670   60.9970 N.pl3     1 MXM606      0.0000 
     23 CAO        80.0660   21.8650   61.9730 C.3       1 MXM606      0.0000 
     24 H          74.8131   21.6674   65.9920 H         1 MXM606      0.0000 
     25 H          76.0872   23.9723   61.4763 H         1 MXM606      0.0000 
     26 H          78.5001   25.0666   58.0844 H         1 MXM606      0.0000 
     27 H          79.9775   24.7647   56.1745 H         1 MXM606      0.0000 
     28 H          81.1465   22.6821   55.8819 H         1 MXM606      0.0000 
     29 H          80.7249   20.8293   57.3864 H         1 MXM606      0.0000 
     30 H          73.1011   23.0508   67.1006 H         1 MXM606      0.0000 
     31 H          73.3223   24.6280   66.8776 H         1 MXM606      0.0000 
     32 H          72.1800   23.8517   66.0536 H         1 MXM606      0.0000 
     33 H          80.8546   21.2524   62.0262 H         1 MXM606      0.0000 
     34 H          80.4128   22.7678   61.7187 H         1 MXM606      0.0000 
     35 H          79.6933   21.9440   62.8976 H         1 MXM606      0.0000 
     36 H          77.0141   24.5713   60.8253 H         1 MXM606      0.0000 
@<TRIPOS>BOND
     1    2    1 1    
     2   30    1 1    
     3   31    1 1    
     4   32    1 1    
     5    3    2 1    
     6    4    2 2    
     7    6    3 1    
     8    5    4 1    
     9   24    4 1    
    10    6    5 2    
    11    7    6 1    
    12    8    7 am   
    13   25    7 1    
    14    9    8 2    
    15   10    8 1    
    16   11   10 2    
    17   22   10 1    
    18   12   11 1    
    19   13   11 1    
    20   36   12 1    
    21   14   13 ar   
    22   18   13 ar   
    23   15   14 ar   
    24   26   14 1    
    25   16   15 ar   
    26   27   15 1    
    27   17   16 ar   
    28   28   16 1    
    29   18   17 ar   
    30   29   17 1    
    31   19   18 1    
    32   20   19 2    
    33   21   19 2    
    34   22   19 1    
    35   23   22 1    
    36   33   23 1    
    37   34   23 1    
    38   35   23 1    
@<TRIPOS>SUBSTRUCTURE
     1 MXM606      1 GROUP   
@<TRIPOS>SET

