#    Name: 4nyv_15E_1_INTS_M
#    Modification time : Tue Mar 25 13:25:15 2014

@<TRIPOS>MOLECULE
4nyv_15E_1_INTS_M
   30     0     6     0     0
SMALL
NO_CHARGES


@<TRIPOS>ATOM
      1 N           2.3425   48.7915   63.6040 N.am      1 SEC2        0.0000 
      2 N           2.2040   48.1340   64.8880 N.am      5 SEL2        0.0000 
      3 N           2.4810   49.4490   62.3200 N.am      3 SEP2        0.0000 
      4 CA          0.3590   47.5760   67.7335 C.3       2 GLC5        0.0000 
      5 CA         -0.8940   48.7680   66.6050 C.3       6 GLL5        0.0000 
      6 CA          1.6120   46.3840   68.8620 C.3       4 GLP5        0.0000 
      7 CA         -0.2835   50.1550   65.2655 C.3       2 GLC5        0.0000 
      8 CA          0.3270   51.5420   63.9260 C.3       4 GLP5        0.0000 
      9 CA          2.1020   51.3605   67.2670 C.3       2 GLC5        0.0000 
     10 CA          1.4590   49.4570   67.2230 C.3       6 GLL5        0.0000 
     11 CA          2.7450   53.2640   67.3110 C.3       4 GLP5        0.0000 
     12 CA          1.5355   47.9205   68.0425 C.3       2 GLC5        0.0000 
     13 CA          0.8930   50.4995   65.5745 C.3       2 GLC5        0.0000 
     14 CA         -1.2295   45.4248   64.0893 C.3       2 GLC5        0.0000 
     15 CA         -1.2540   47.5680   64.3930 C.3       6 GLL5        0.0000 
     16 CA         -0.7690   43.4940   64.2890 C.3       4 GLP5        0.0000 
     17 CA         -1.8930   49.2597   63.6797 C.3       2 GLC5        0.0000 
     18 CA         -2.1260   47.1430   63.3860 C.3       6 GLL5        0.0000 
     19 CA         -2.0960   51.1640   63.4700 C.3       4 GLP5        0.0000 
     20 CA         -2.9235   49.4145   63.7805 C.3       2 GLC5        0.0000 
     21 CA         -3.5020   47.3420   63.5270 C.3       6 GLL5        0.0000 
     22 CA         -5.2935   46.6617   65.9390 C.3       2 GLC5        0.0000 
     23 CA         -4.0000   47.9880   64.6550 C.3       6 GLL5        0.0000 
     24 CA         -5.6510   45.1850   67.0990 C.3       4 GLP5        0.0000 
     25 CA         -2.7998   46.5498   66.5080 C.3       2 GLC5        0.0000 
     26 CA         -3.1190   48.4260   65.6370 C.3       6 GLL5        0.0000 
     27 CA         -3.1650   44.7680   67.4520 C.3       4 GLP5        0.0000 
     28 CA         -2.2652   49.7478   64.5170 C.3       2 GLC5        0.0000 
     29 CA         -2.0356   50.1679   66.7562 C.3       2 GLC5        0.0000 
     30 CA         -2.4070   51.7860   67.4280 C.3       4 GLP5        0.0000 
@<TRIPOS>BOND
@<TRIPOS>SUBSTRUCTURE
     1 SEC2        1 GROUP        1 X    SEC  0     ROOT SEC X 2
     2 GLC5        4 GROUP        1 X    GLC  0     **** GLC X 6
     3 SEP2        3 GROUP        1 Y    SEP  0     ROOT SEP Y 9
     4 GLP5        6 GROUP        1 Y    GLP  0     **** GLP Y 13
     5 SEL2        2 GROUP        1 Z    SEL  0     ROOT SEL Z 16
     6 GLL5        5 GROUP        1 Z    GLL  0     **** GLL Z 20
@<TRIPOS>SET

