#    Name: 4nyv_15E_1_ligand
#    Modification time : Tue Mar 25 13:25:15 2014

@<TRIPOS>MOLECULE
4nyv_15E_1_ligand
   22    23     1     0     0
SMALL
NO_CHARGES


@<TRIPOS>ATOM
      1 OAM         2.2040   48.1340   64.8880 O.2       1 15E1201     0.0000 
      2 CAH         1.0070   48.1390   65.1280 C.2       1 15E1201     0.0000 
      3 NAG         0.1160   47.4400   64.2550 N.am      1 15E1201     0.0000 
      4 CAD        -1.2540   47.5680   64.3930 C.ar      1 15E1201     0.0000 
      5 CAC        -2.1260   47.1430   63.3860 C.ar      1 15E1201     0.0000 
      6 CAB        -3.5020   47.3420   63.5270 C.ar      1 15E1201     0.0000 
      7 CAA        -4.0000   47.9880   64.6550 C.ar      1 15E1201     0.0000 
      8 BR         -5.8720   48.2890   64.9030 Br        1 15E1201     0.0000 
      9 CAF        -3.1190   48.4260   65.6370 C.ar      1 15E1201     0.0000 
     10 CAE        -1.7500   48.2370   65.4910 C.ar      1 15E1201     0.0000 
     11 CAJ        -0.8940   48.7680   66.6050 C.3       1 15E1201     0.0000 
     12 NAI         0.5390   48.7630   66.2750 N.am      1 15E1201     0.0000 
     13 CAL         1.4590   49.4570   67.2230 C.3       1 15E1201     0.0000 
     14 H           0.5187   46.8404   63.5228 H         1 15E1201     0.0000 
     15 H          -1.7563   46.6864   62.5461 H         1 15E1201     0.0000 
     16 H          -4.1439   47.0107   62.7970 H         1 15E1201     0.0000 
     17 H          -3.4844   48.8949   66.4805 H         1 15E1201     0.0000 
     18 H          -1.0751   48.1612   67.5124 H         1 15E1201     0.0000 
     19 H          -1.2228   49.7966   66.8463 H         1 15E1201     0.0000 
     20 H           2.1419   48.8325   67.6020 H         1 15E1201     0.0000 
     21 H           1.9572   50.2017   66.7789 H         1 15E1201     0.0000 
     22 H           0.9648   49.8550   67.9959 H         1 15E1201     0.0000 
@<TRIPOS>BOND
     1    2    1 2    
     2    3    2 am   
     3   12    2 am   
     4    4    3 1    
     5   14    3 1    
     6    5    4 ar   
     7   10    4 ar   
     8    6    5 ar   
     9   15    5 1    
    10    7    6 ar   
    11   16    6 1    
    12    8    7 1    
    13    9    7 ar   
    14   10    9 ar   
    15   17    9 1    
    16   11   10 1    
    17   12   11 1    
    18   18   11 1    
    19   19   11 1    
    20   13   12 1    
    21   20   13 1    
    22   21   13 1    
    23   22   13 1    
@<TRIPOS>SUBSTRUCTURE
     1 15E1201     1 GROUP   
@<TRIPOS>SET

