#    Name: 1ur5_NAD_1_INTS_M
#    Modification time : Tue Mar 25 07:02:57 2014

@<TRIPOS>MOLECULE
1ur5_NAD_1_INTS_M
   86     0     9     0     0
SMALL
NO_CHARGES


@<TRIPOS>ATOM
      1 N          63.5585   65.3965   62.7365 N.am      2 SEC2        0.0000 
      2 N          62.2720   66.2940   62.4370 N.am      8 SEL2        0.0000 
      3 N          64.8450   64.4990   63.0360 N.am      5 SEP2        0.0000 
      4 CA         63.7235   65.4145   56.5840 C.3       3 GLC5        0.0000 
      5 CA         62.7280   66.5920   57.7700 C.3       9 GLL5        0.0000 
      6 CA         64.7190   64.2370   55.3980 C.3       6 GLP5        0.0000 
      7 CA         64.0915   66.8445   59.4340 C.3       3 GLC5        0.0000 
      8 CA         62.9830   68.1320   57.9830 C.3       9 GLL5        0.0000 
      9 CA         65.2000   65.5570   60.8850 C.3       6 GLP5        0.0000 
     10 O          65.1475   68.0680   57.2315 O.2       1 ALC1        0.0000 
     11 O          64.4420   68.3200   58.3040 O.2       7 ALL1        0.0000 
     12 O          65.8530   67.8160   56.1590 O.2       4 ALP1        0.0000 
     13 O          64.3970   69.8445   55.6925 O.2       1 ALC1        0.0000 
     14 O          63.1880   70.0060   56.3590 O.2       7 ALL1        0.0000 
     15 O          65.6060   69.6830   55.0260 O.2       4 ALP1        0.0000 
     16 O          64.5205   68.9110   56.2590 O.2       1 ALC1        0.0000 
     17 CA         63.7160   65.9555   55.5600 C.3       3 GLC5        0.0000 
     18 CA         62.7130   67.6740   55.7220 C.3       9 GLL5        0.0000 
     19 CA         61.8565   65.9400   54.7880 C.3       3 GLC5        0.0000 
     20 CA         61.0000   64.2060   53.8540 C.3       6 GLP5        0.0000 
     21 CA         59.5320   66.7050   52.1250 C.3       3 GLC5        0.0000 
     22 CA         61.3510   67.8530   52.3210 C.3       9 GLL5        0.0000 
     23 CA         57.7130   65.5570   51.9290 C.3       6 GLP5        0.0000 
     24 CA         62.7525   69.3305   51.1080 C.3       3 GLC5        0.0000 
     25 CA         61.5840   67.5930   50.8590 C.3       9 GLL5        0.0000 
     26 CA         63.9210   71.0680   51.3570 C.3       6 GLP5        0.0000 
     27 CA         61.2165   65.8095   50.3470 C.3       3 GLC5        0.0000 
     28 CA         60.8490   64.0260   49.8350 C.3       6 GLP5        0.0000 
     29 CA         63.9600   64.8610   51.1635 C.3       3 GLC5        0.0000 
     30 CA         63.8000   66.7490   51.4930 C.3       9 GLL5        0.0000 
     31 CA         64.1200   62.9730   50.8340 C.3       6 GLP5        0.0000 
     32 CA         65.4110   66.2910   50.6670 C.3       3 GLC5        0.0000 
     33 CA         67.0220   65.8330   49.8410 C.3       6 GLP5        0.0000 
     34 CA         65.4585   67.3015   52.2625 C.3       3 GLC5        0.0000 
     35 CA         67.1170   67.8540   53.0320 C.3       6 GLP5        0.0000 
     36 CA         63.8605   68.9085   51.4250 C.3       3 GLC5        0.0000 
     37 CA         62.4000   65.4775   52.6735 C.3       3 GLC5        0.0000 
     38 CA         62.3245   65.3875   50.6640 C.3       3 GLC5        0.0000 
     39 N          64.6905   68.3315   52.5715 N.am      2 SEC2        0.0000 
     40 N          63.6310   66.9770   52.8900 N.am      8 SEL2        0.0000 
     41 N          65.7500   69.6860   52.2530 N.am      5 SEP2        0.0000 
     42 N          63.1345   62.3275   62.4675 N.am      2 SEC2        0.0000 
     43 N          62.0140   63.0580   61.8860 N.am      8 SEL2        0.0000 
     44 N          64.2550   61.5970   63.0490 N.am      5 SEP2        0.0000 
     45 N          62.9000   62.9795   60.8090 N.am      2 SEC2        0.0000 
     46 N          63.7860   62.9010   59.7320 N.am      5 SEP2        0.0000 
     47 N          55.2970   60.8570   57.9270 N.am      2 SEC2        0.0000 
     48 N          56.3800   62.0910   58.4190 N.am      8 SEL2        0.0000 
     49 N          54.2140   59.6230   57.4350 N.am      5 SEP2        0.0000 
     50 CA         58.4260   58.3590   59.9725 C.3       3 GLC5        0.0000 
     51 CA         57.1200   60.0610   60.5770 C.3       9 GLL5        0.0000 
     52 CA         59.7320   56.6570   59.3680 C.3       6 GLP5        0.0000 
     53 CA         56.7555   59.6730   58.4880 C.3       3 GLC5        0.0000 
     54 CA         56.3910   59.2850   56.3990 C.3       6 GLP5        0.0000 
     55 CA         58.8670   56.5710   63.8780 C.3       3 GLC5        0.0000 
     56 CA         56.9670   57.0870   62.8710 C.3       9 GLL5        0.0000 
     57 CA         60.7670   56.0550   64.8850 C.3       6 GLP5        0.0000 
     58 N          54.8895   54.2875   62.2375 N.am      2 SEC2        0.0000 
     59 N          55.8300   55.0950   61.9670 N.am      8 SEL2        0.0000 
     60 N          53.9490   53.4800   62.5080 N.am      5 SEP2        0.0000 
     61 CA         57.5360   55.6055   65.0750 C.3       3 GLC5        0.0000 
     62 CA         57.6580   57.5660   64.0920 C.3       9 GLL5        0.0000 
     63 CA         57.4140   53.6450   66.0580 C.3       6 GLP5        0.0000 
     64 CA         63.6928   65.9193   59.5422 C.3       3 GLC5        0.0000 
     65 CA         61.6430   65.9710   58.6290 C.3       9 GLL5        0.0000 
     66 CA         61.4113   65.0853   56.7518 C.3       3 GLC5        0.0000 
     67 CA         60.6370   63.8890   55.3040 C.3       6 GLP5        0.0000 
     68 CA         62.5902   69.4585   52.7602 C.3       3 GLC5        0.0000 
     69 CA         62.3840   67.5310   53.2400 C.3       9 GLL5        0.0000 
     70 CA         63.3130   71.2250   52.7400 C.3       6 GLP5        0.0000 
     71 CA         61.4338   65.9490   53.3173 C.3       3 GLC5        0.0000 
     72 CA         60.4710   61.2122   58.1082 C.3       3 GLC5        0.0000 
     73 CA         59.8130   62.3100   59.9470 C.3       9 GLL5        0.0000 
     74 CA         61.7270   60.4670   56.5650 C.3       6 GLP5        0.0000 
     75 CA         57.4385   62.9275   57.8835 C.3       3 GLC5        0.0000 
     76 CA         58.6170   61.6050   59.3560 C.3       9 GLL5        0.0000 
     77 CA         56.9690   63.9330   56.2890 C.3       6 GLP5        0.0000 
     78 CA         57.1495   60.6035   57.9385 C.3       3 GLC5        0.0000 
     79 CA         57.1990   62.2390   59.6000 C.3       9 GLL5        0.0000 
     80 CA         58.3055   57.0645   60.8418 C.3       3 GLC5        0.0000 
     81 CA         56.7910   57.8570   61.7600 C.3       9 GLL5        0.0000 
     82 CA         58.9875   57.2328   65.1207 C.3       3 GLC5        0.0000 
     83 CA         60.0860   56.2330   66.1980 C.3       6 GLP5        0.0000 
     84 CA         59.9522   59.5835   63.2980 C.3       3 GLC5        0.0000 
     85 CA         58.1200   58.8990   63.9950 C.3       9 GLL5        0.0000 
     86 CA         61.8570   59.8680   63.1350 C.3       6 GLP5        0.0000 
@<TRIPOS>BOND
@<TRIPOS>SUBSTRUCTURE
     1 ALC1       10 GROUP        1 X    ALC  0     ROOT ALC X 1
     2 SEC2        1 GROUP        1 X    SEC  0     **** SEC X 2
     3 GLC5        4 GROUP        1 X    GLC  0     **** GLC X 6
     4 ALP1       12 GROUP        1 Y    ALP  0     ROOT ALP Y 8
     5 SEP2        3 GROUP        1 Y    SEP  0     **** SEP Y 9
     6 GLP5        6 GROUP        1 Y    GLP  0     **** GLP Y 13
     7 ALL1       11 GROUP        1 Z    ALL  0     ROOT ALL Z 15
     8 SEL2        2 GROUP        1 Z    SEL  0     **** SEL Z 16
     9 GLL5        5 GROUP        1 Z    GLL  0     **** GLL Z 20
@<TRIPOS>SET

