#    Name: 1ur5_NAD_1_ligand
#    Modification time : Tue Mar 25 07:02:57 2014

@<TRIPOS>MOLECULE
1ur5_NAD_1_ligand
   70    74     1     0     0
SMALL
NO_CHARGES


@<TRIPOS>ATOM
      1 PA         61.2420   66.2700   61.2980 P.3       1 NAD1308     0.0000 
      2 O1A        60.3080   67.3850   61.1080 O.co2     1 NAD1308     0.0000 
      3 O2A        62.2720   66.2940   62.4370 O.co2     1 NAD1308     0.0000 
      4 O5B        62.1730   66.0110   60.0030 O.3       1 NAD1308     0.0000 
      5 C5B        61.6430   65.9710   58.6290 C.3       1 NAD1308     0.0000 
      6 C4B        62.7280   66.5920   57.7700 C.3       1 NAD1308     0.0000 
      7 O4B        62.1860   66.5480   56.3710 O.3       1 NAD1308     0.0000 
      8 C3B        62.9830   68.1320   57.9830 C.3       1 NAD1308     0.0000 
      9 O3B        64.4420   68.3200   58.3040 O.3       1 NAD1308     0.0000 
     10 C2B        62.5930   68.8570   56.7310 C.3       1 NAD1308     0.0000 
     11 O2B        63.1880   70.0060   56.3590 O.3       1 NAD1308     0.0000 
     12 C1B        62.7130   67.6740   55.7220 C.3       1 NAD1308     0.0000 
     13 N9A        61.9050   67.8750   54.5420 N.pl3     1 NAD1308     0.0000 
     14 C8A        60.6540   68.3580   54.2590 C.2       1 NAD1308     0.0000 
     15 N7A        60.2990   68.3610   52.9800 N.2       1 NAD1308     0.0000 
     16 C5A        61.3510   67.8530   52.3210 C.ar      1 NAD1308     0.0000 
     17 C6A        61.5840   67.5930   50.8590 C.ar      1 NAD1308     0.0000 
     18 N6A        60.7080   67.8490   49.9230 N.pl3     1 NAD1308     0.0000 
     19 N1A        62.8190   67.0570   50.6330 N.ar      1 NAD1308     0.0000 
     20 C2A        63.8000   66.7490   51.4930 C.ar      1 NAD1308     0.0000 
     21 N3A        63.6310   66.9770   52.8900 N.ar      1 NAD1308     0.0000 
     22 C4A        62.3840   67.5310   53.2400 C.ar      1 NAD1308     0.0000 
     23 O3         60.4850   64.9350   61.4540 O.3       1 NAD1308     0.0000 
     24 PN         60.6020   63.5300   62.1010 P.3       1 NAD1308     0.0000 
     25 O1N        60.1560   63.5850   63.5070 O.co2     1 NAD1308     0.0000 
     26 O2N        62.0140   63.0580   61.8860 O.co2     1 NAD1308     0.0000 
     27 O5D        59.5500   62.5150   61.3980 O.3       1 NAD1308     0.0000 
     28 C5D        59.8130   62.3100   59.9470 C.3       1 NAD1308     0.0000 
     29 C4D        58.6170   61.6050   59.3560 C.3       1 NAD1308     0.0000 
     30 O4D        58.4720   60.2590   60.0000 O.3       1 NAD1308     0.0000 
     31 C3D        57.1990   62.2390   59.6000 C.3       1 NAD1308     0.0000 
     32 O3D        56.3800   62.0910   58.4190 O.3       1 NAD1308     0.0000 
     33 C2D        56.5710   61.5080   60.7890 C.3       1 NAD1308     0.0000 
     34 O2D        55.1700   61.5620   60.8890 O.3       1 NAD1308     0.0000 
     35 C1D        57.1200   60.0610   60.5770 C.3       1 NAD1308     0.0000 
     36 N1N        57.2840   59.1520   61.7720 N.pl3     1 NAD1308     0.0000 
     37 C2N        56.7910   57.8570   61.7600 C.ar      1 NAD1308     0.0000 
     38 C3N        56.9670   57.0870   62.8710 C.ar      1 NAD1308     0.0000 
     39 C7N        56.4300   55.6560   62.8770 C.2       1 NAD1308     0.0000 
     40 O7N        55.8300   55.0950   61.9670 O.2       1 NAD1308     0.0000 
     41 N7N        56.6980   54.9880   64.1040 N.am      1 NAD1308     0.0000 
     42 C4N        57.6580   57.5660   64.0920 C.ar      1 NAD1308     0.0000 
     43 C5N        58.1200   58.8990   63.9950 C.ar      1 NAD1308     0.0000 
     44 C6N        57.9750   59.6990   62.9270 C.ar      1 NAD1308     0.0000 
     45 H          60.7489   66.5579   58.5456 H         1 NAD1308     0.0000 
     46 H          61.4778   64.9599   58.3110 H         1 NAD1308     0.0000 
     47 H          63.6233   66.0732   57.8091 H         1 NAD1308     0.0000 
     48 H          62.3799   68.4421   58.8031 H         1 NAD1308     0.0000 
     49 H          61.4561   68.9514   56.8183 H         1 NAD1308     0.0000 
     50 H          63.7376   67.5456   55.4848 H         1 NAD1308     0.0000 
     51 H          60.0462   68.6914   55.0042 H         1 NAD1308     0.0000 
     52 H          59.8406   68.2424   50.2278 H         1 NAD1308     0.0000 
     53 H          60.9857   67.6280   48.9881 H         1 NAD1308     0.0000 
     54 H          64.6975   66.3426   51.1793 H         1 NAD1308     0.0000 
     55 H          60.6952   61.6974   59.8099 H         1 NAD1308     0.0000 
     56 H          59.9480   63.2640   59.4531 H         1 NAD1308     0.0000 
     57 H          58.7265   61.4493   58.3017 H         1 NAD1308     0.0000 
     58 H          57.3498   63.2613   59.8659 H         1 NAD1308     0.0000 
     59 H          57.0921   61.8717   61.6798 H         1 NAD1308     0.0000 
     60 H          56.5160   59.5808   59.8172 H         1 NAD1308     0.0000 
     61 H          56.3087   57.4977   60.9332 H         1 NAD1308     0.0000 
     62 H          56.3326   54.0610   64.1893 H         1 NAD1308     0.0000 
     63 H          57.2292   55.5017   64.7778 H         1 NAD1308     0.0000 
     64 H          57.7647   56.9959   64.8615 H         1 NAD1308     0.0000 
     65 H          58.6248   59.2764   64.8619 H         1 NAD1308     0.0000 
     66 H          58.3129   60.6481   62.8766 H         1 NAD1308     0.0000 
     67 H          64.8669   68.5769   57.4360 H         1 NAD1308     0.0000 
     68 H          64.0503   69.7260   55.9371 H         1 NAD1308     0.0000 
     69 H          55.4426   62.0247   58.7609 H         1 NAD1308     0.0000 
     70 H          54.8673   60.6135   60.7960 H         1 NAD1308     0.0000 
@<TRIPOS>BOND
     1    2    1 ar   
     2    3    1 ar   
     3    4    1 1    
     4   23    1 1    
     5    5    4 1    
     6    6    5 1    
     7   45    5 1    
     8   46    5 1    
     9    7    6 1    
    10    8    6 1    
    11   47    6 1    
    12   12    7 1    
    13    9    8 1    
    14   10    8 1    
    15   48    8 1    
    16   67    9 1    
    17   11   10 1    
    18   12   10 1    
    19   49   10 1    
    20   68   11 1    
    21   13   12 1    
    22   50   12 1    
    23   14   13 1    
    24   22   13 1    
    25   15   14 2    
    26   51   14 1    
    27   16   15 1    
    28   17   16 ar   
    29   22   16 ar   
    30   18   17 1    
    31   19   17 ar   
    32   52   18 1    
    33   53   18 1    
    34   20   19 ar   
    35   21   20 ar   
    36   54   20 1    
    37   22   21 ar   
    38   24   23 1    
    39   25   24 ar   
    40   26   24 ar   
    41   27   24 1    
    42   28   27 1    
    43   29   28 1    
    44   55   28 1    
    45   56   28 1    
    46   30   29 1    
    47   31   29 1    
    48   57   29 1    
    49   35   30 1    
    50   32   31 1    
    51   33   31 1    
    52   58   31 1    
    53   69   32 1    
    54   34   33 1    
    55   35   33 1    
    56   59   33 1    
    57   70   34 1    
    58   36   35 1    
    59   60   35 1    
    60   37   36 ar   
    61   44   36 ar   
    62   38   37 ar   
    63   61   37 1    
    64   39   38 1    
    65   42   38 ar   
    66   40   39 2    
    67   41   39 am   
    68   62   41 1    
    69   63   41 1    
    70   43   42 ar   
    71   64   42 1    
    72   44   43 ar   
    73   65   43 1    
    74   66   44 1    
@<TRIPOS>SUBSTRUCTURE
     1 NAD1308     1 GROUP   
@<TRIPOS>SET

