#    Name: 2r6w_LLB_1_INTS_M
#    Modification time : Mon Mar 24 23:17:46 2014

@<TRIPOS>MOLECULE
2r6w_LLB_1_INTS_M
   97     0    12     0     0
SMALL
NO_CHARGES


@<TRIPOS>ATOM
      1 CA          8.0340   56.5590   59.3665 C.3       4 GLC5        0.0000 
      2 CA          8.7920   54.8130   60.2910 C.3      12 GLL5        0.0000 
      3 CA          7.2760   58.3050   58.4420 C.3       8 GLP5        0.0000 
      4 CA          8.9030   53.7445   62.1625 C.3       4 GLC5        0.0000 
      5 CA          9.0140   52.6760   64.0340 C.3       8 GLP5        0.0000 
      6 CA         10.3710   57.1400   72.8445 C.3       4 GLC5        0.0000 
      7 CA         11.7390   56.6550   71.3940 C.3      12 GLL5        0.0000 
      8 CA          9.0030   57.6250   74.2950 C.3       8 GLP5        0.0000 
      9 CA         13.9685   56.5805   59.7735 C.3       4 GLC5        0.0000 
     10 CA         14.4950   55.3920   61.3700 C.3      12 GLL5        0.0000 
     11 CA         13.4420   57.7690   58.1770 C.3       8 GLP5        0.0000 
     12 CA         12.1510   50.7305   60.9535 C.3       4 GLC5        0.0000 
     13 CA         12.2990   51.6840   58.9650 C.3      12 GLL5        0.0000 
     14 CA         12.0030   49.7770   62.9420 C.3       8 GLP5        0.0000 
     15 CA         13.3085   50.3770   61.2760 C.3       4 GLC5        0.0000 
     16 CA         14.6140   50.9770   59.6100 C.3      12 GLL5        0.0000 
     17 CA         17.2840   50.4115   56.4460 C.3       4 GLC5        0.0000 
     18 CA         16.0650   49.8660   57.9880 C.3      12 GLL5        0.0000 
     19 CA         18.5030   50.9570   54.9040 C.3       8 GLP5        0.0000 
     20 CA         16.7890   48.2475   57.0995 C.3       4 GLC5        0.0000 
     21 CA         17.5130   46.6290   56.2110 C.3       8 GLP5        0.0000 
     22 O          18.3170   49.8955   58.1345 O.2       1 ALC1        0.0000 
     23 O          17.2630   49.2760   57.6190 O.2       9 ALL1        0.0000 
     24 O          19.3710   50.5150   58.6500 O.2       5 ALP1        0.0000 
     25 CA         15.5595   48.2730   56.3495 C.3       4 GLC5        0.0000 
     26 CA         15.0450   49.9230   57.0100 C.3      12 GLL5        0.0000 
     27 CA         16.0740   46.6230   55.6890 C.3       8 GLP5        0.0000 
     28 CA         10.3875   49.1555   59.4165 C.3       4 GLC5        0.0000 
     29 CA         10.7740   50.9350   58.7570 C.3      12 GLL5        0.0000 
     30 CA         10.0010   47.3760   60.0760 C.3       8 GLP5        0.0000 
     31 CA          7.3450   51.4775   58.1255 C.3       4 GLC5        0.0000 
     32 CA          8.4540   52.4840   59.4420 C.3      12 GLL5        0.0000 
     33 CA          6.2360   50.4710   56.8090 C.3       8 GLP5        0.0000 
     34 N           5.5705   53.9805   59.0035 N.am      2 SEC2        0.0000 
     35 N           6.5930   53.8990   60.0350 N.am     10 SEL2        0.0000 
     36 N           4.5480   54.0620   57.9720 N.am      6 SEP2        0.0000 
     37 O           6.3790   54.8810   60.7505 O.2       1 ALC1        0.0000 
     38 O           6.5930   53.8990   60.0350 O.2       9 ALL1        0.0000 
     39 O           6.1650   55.8630   61.4660 O.2       5 ALP1        0.0000 
     40 O           5.3930   54.4175   60.8525 O.2       1 ALC1        0.0000 
     41 O           4.1930   54.9360   61.6700 O.2       5 ALP1        0.0000 
     42 CA         12.4765   51.7295   62.6135 C.3       4 GLC5        0.0000 
     43 CA         12.9500   53.6820   62.2850 C.3      12 GLL5        0.0000 
     44 CA         10.9820   53.1790   63.1595 C.3       4 GLC5        0.0000 
     45 OD1        13.2510   57.4405   67.7115 O.co2     3 ASC3        0.0000 
     46 OD1        14.3510   56.6080   67.9170 O.co2    11 ASL3        0.0000 
     47 OD1        12.1510   58.2730   67.5060 O.co2     7 ASP3        0.0000 
     48 OD1        13.6905   58.4445   67.6285 O.co2     3 ASC3        0.0000 
     49 OD1        13.0300   60.2810   67.3400 O.co2     7 ASP3        0.0000 
     50 O          13.2510   57.4405   67.7115 O.2       1 ALC1        0.0000 
     51 O          14.3510   56.6080   67.9170 O.2       9 ALL1        0.0000 
     52 O          12.1510   58.2730   67.5060 O.2       5 ALP1        0.0000 
     53 CA         10.0418   55.4575   61.9262 C.3       4 GLC5        0.0000 
     54 CA         10.2010   54.6090   60.1340 C.3      12 GLL5        0.0000 
     55 CA         10.5870   56.2040   63.6400 C.3       8 GLP5        0.0000 
     56 CA         16.2213   56.0815   60.7488 C.3       4 GLC5        0.0000 
     57 CA         14.8140   55.7760   62.7110 C.3      12 GLL5        0.0000 
     58 CA         17.7880   56.5790   59.4570 C.3       8 GLP5        0.0000 
     59 CA         14.1631   57.3424   62.3936 C.3       4 GLC5        0.0000 
     60 CA         13.8260   59.2710   62.4760 C.3       8 GLP5        0.0000 
     61 CA         15.3143   58.1605   65.3330 C.3       4 GLC5        0.0000 
     62 CA         15.2480   56.4120   65.4630 C.3      12 GLL5        0.0000 
     63 CA         15.2880   59.9560   64.4470 C.3       8 GLP5        0.0000 
     64 CA         16.3362   51.8422   60.7485 C.3       4 GLC5        0.0000 
     65 CA         17.4380   53.0070   62.0530 C.3       8 GLP5        0.0000 
     66 CA         16.5265   48.6515   59.8520 C.3       4 GLC5        0.0000 
     67 CA         15.8550   50.3780   59.2780 C.3      12 GLL5        0.0000 
     68 CA         17.0930   47.1810   61.0710 C.3       8 GLP5        0.0000 
     69 CA         15.0122   51.4357   55.5750 C.3       4 GLC5        0.0000 
     70 CA         15.5990   52.6470   53.9650 C.3       8 GLP5        0.0000 
     71 CA         13.0482   49.1508   56.2145 C.3       4 GLC5        0.0000 
     72 CA         11.6710   48.0770   55.2440 C.3       8 GLP5        0.0000 
     73 CA         13.3424   48.9248   59.1325 C.3       4 GLC5        0.0000 
     74 CA         13.8060   50.5260   57.3600 C.3      12 GLL5        0.0000 
     75 CA         12.7270   47.0810   60.0190 C.3       8 GLP5        0.0000 
     76 CA          9.3707   51.1210   57.3015 C.3       4 GLC5        0.0000 
     77 CA          8.4310   50.6240   55.5790 C.3       8 GLP5        0.0000 
     78 CA          8.1081   52.0749   61.2304 C.3       4 GLC5        0.0000 
     79 CA          7.9420   53.7470   59.9390 C.3      12 GLL5        0.0000 
     80 CA          7.6700   51.0800   62.8080 C.3       8 GLP5        0.0000 
     81 CA         15.7731   53.9815   61.8266 C.3       4 GLC5        0.0000 
     82 CA         13.5620   54.3280   61.1600 C.3      12 GLL5        0.0000 
     83 CA         14.8042   52.9235   63.4125 C.3       4 GLC5        0.0000 
     84 CA         14.1970   55.0950   63.7940 C.3      12 GLL5        0.0000 
     85 CA         16.2650   51.7140   63.8350 C.3       8 GLP5        0.0000 
     86 CA         13.0857   53.6180   67.7640 C.3       4 GLC5        0.0000 
     87 CA         13.5420   55.3660   68.1680 C.3      12 GLL5        0.0000 
     88 CA         13.1660   51.8050   66.8100 C.3       8 GLP5        0.0000 
     89 CA         10.5875   55.6714   70.6308 C.3       4 GLC5        0.0000 
     90 CA         12.4690   55.4960   69.2680 C.3      12 GLL5        0.0000 
     91 CA          8.7650   55.3710   71.1410 C.3       8 GLP5        0.0000 
     92 CA         12.3960   54.4894   71.2878 C.3       4 GLC5        0.0000 
     93 CA         12.3820   53.0070   72.4550 C.3       8 GLP5        0.0000 
     94 CA         13.4170   57.4104   72.5213 C.3       4 GLC5        0.0000 
     95 CA         12.9630   56.2400   70.5520 C.3      12 GLL5        0.0000 
     96 CA         13.7710   57.8490   74.4260 C.3       8 GLP5        0.0000 
     97 CA         12.0803   55.2918   63.1067 C.3       4 GLC5        0.0000 
@<TRIPOS>BOND
@<TRIPOS>SUBSTRUCTURE
     1 ALC1       22 GROUP        1 X    ALC  0     ROOT ALC X 1
     2 SEC2       34 GROUP        1 X    SEC  0     **** SEC X 2
     3 ASC3       45 GROUP        1 X    ASC  0     **** ASC X 3
     4 GLC5        1 GROUP        1 X    GLC  0     **** GLC X 6
     5 ALP1       24 GROUP        1 Y    ALP  0     ROOT ALP Y 8
     6 SEP2       36 GROUP        1 Y    SEP  0     **** SEP Y 9
     7 ASP3       47 GROUP        1 Y    ASP  0     **** ASP Y 10
     8 GLP5        3 GROUP        1 Y    GLP  0     **** GLP Y 13
     9 ALL1       23 GROUP        1 Z    ALL  0     ROOT ALL Z 15
    10 SEL2       35 GROUP        1 Z    SEL  0     **** SEL Z 16
    11 ASL3       46 GROUP        1 Z    ASL  0     **** ASL Z 17
    12 GLL5        2 GROUP        1 Z    GLL  0     **** GLL Z 20
@<TRIPOS>SET

