#    Name: 2r6w_LLB_1_ligand
#    Modification time : Mon Mar 24 23:17:46 2014

@<TRIPOS>MOLECULE
2r6w_LLB_1_ligand
   65    69     1     0     0
SMALL
NO_CHARGES


@<TRIPOS>ATOM
      1 C4         10.7080   53.3480   59.6360 C.ar      1 LLB1        0.0000 
      2 C5         10.2010   54.6090   60.1340 C.ar      1 LLB1        0.0000 
      3 C6          8.7920   54.8130   60.2910 C.ar      1 LLB1        0.0000 
      4 C7         11.7390   56.6550   71.3940 C.3       1 LLB1        0.0000 
      5 C15        13.2350   53.9520   59.7510 C.2       1 LLB1        0.0000 
      6 C20        14.1970   55.0950   63.7940 C.ar      1 LLB1        0.0000 
      7 C21        14.8140   55.7760   62.7110 C.ar      1 LLB1        0.0000 
      8 C22        14.4950   55.3920   61.3700 C.ar      1 LLB1        0.0000 
      9 C28        15.2480   56.4120   65.4630 C.3       1 LLB1        0.0000 
     10 O17        13.8880   54.4290   58.8390 O.2       1 LLB1        0.0000 
     11 C12        12.1240   53.0060   59.4430 C.2       1 LLB1        0.0000 
     12 C11        12.2990   51.6840   58.9650 C.2       1 LLB1        0.0000 
     13 C14        13.6050   51.0450   58.6540 C.ar      1 LLB1        0.0000 
     14 C54        14.6140   50.9770   59.6100 C.ar      1 LLB1        0.0000 
     15 C53        15.8550   50.3780   59.2780 C.ar      1 LLB1        0.0000 
     16 C52        16.0650   49.8660   57.9880 C.ar      1 LLB1        0.0000 
     17 O59        17.2630   49.2760   57.6190 O.3       1 LLB1        0.0000 
     18 C51        15.0450   49.9230   57.0100 C.ar      1 LLB1        0.0000 
     19 C50        13.8060   50.5260   57.3600 C.ar      1 LLB1        0.0000 
     20 S10        10.7740   50.9350   58.7570 S.3       1 LLB1        0.0000 
     21 C3          9.8470   52.3010   59.2910 C.ar      1 LLB1        0.0000 
     22 C2          8.4540   52.4840   59.4420 C.ar      1 LLB1        0.0000 
     23 C1          7.9420   53.7470   59.9390 C.ar      1 LLB1        0.0000 
     24 O13         6.5930   53.8990   60.0350 O.3       1 LLB1        0.0000 
     25 C16        13.5620   54.3280   61.1600 C.ar      1 LLB1        0.0000 
     26 C19        13.2770   54.0730   63.5960 C.ar      1 LLB1        0.0000 
     27 C18        12.9500   53.6820   62.2850 C.ar      1 LLB1        0.0000 
     28 O27        14.4150   55.3460   65.1190 O.3       1 LLB1        0.0000 
     29 C29        15.4330   56.3180   66.9750 C.3       1 LLB1        0.0000 
     30 N61        14.3510   56.6080   67.9170 N.4       1 LLB1        0.0000 
     31 C66        13.5420   55.3660   68.1680 C.3       1 LLB1        0.0000 
     32 C65        12.4690   55.4960   69.2680 C.3       1 LLB1        0.0000 
     33 C64        12.9630   56.2400   70.5520 C.3       1 LLB1        0.0000 
     34 C63        13.7750   57.4960   70.2600 C.3       1 LLB1        0.0000 
     35 C62        14.8430   57.2060   69.1970 C.3       1 LLB1        0.0000 
     36 H          10.8534   55.3492   60.3716 H         1 LLB1        0.0000 
     37 H           8.4378   55.6809   60.6372 H         1 LLB1        0.0000 
     38 H          15.4723   56.5249   62.8808 H         1 LLB1        0.0000 
     39 H          14.9198   55.8624   60.5880 H         1 LLB1        0.0000 
     40 H          14.8094   57.3793   65.2452 H         1 LLB1        0.0000 
     41 H          16.2295   56.3464   65.0072 H         1 LLB1        0.0000 
     42 H          14.4725   51.3532   60.5487 H         1 LLB1        0.0000 
     43 H          16.5932   50.3218   59.9823 H         1 LLB1        0.0000 
     44 H          15.1895   49.5464   56.0866 H         1 LLB1        0.0000 
     45 H          13.0587   50.5806   56.6630 H         1 LLB1        0.0000 
     46 H           7.8008   51.7453   59.2084 H         1 LLB1        0.0000 
     47 H          12.8374   53.6046   64.3906 H         1 LLB1        0.0000 
     48 H          12.2737   52.9344   62.1202 H         1 LLB1        0.0000 
     49 H          16.3423   56.9694   67.2369 H         1 LLB1        0.0000 
     50 H          15.8471   55.2686   67.1917 H         1 LLB1        0.0000 
     51 H          13.6666   57.3440   67.4436 H         1 LLB1        0.0000 
     52 H          14.2179   54.5320   68.4443 H         1 LLB1        0.0000 
     53 H          13.0375   55.0557   67.2310 H         1 LLB1        0.0000 
     54 H          12.1286   54.4948   69.5594 H         1 LLB1        0.0000 
     55 H          11.6049   56.0391   68.8660 H         1 LLB1        0.0000 
     56 H          13.5498   55.5588   71.1413 H         1 LLB1        0.0000 
     57 H          14.2625   57.8328   71.1707 H         1 LLB1        0.0000 
     58 H          13.1149   58.2784   69.8961 H         1 LLB1        0.0000 
     59 H          15.3802   58.1583   68.9802 H         1 LLB1        0.0000 
     60 H          15.6074   56.5342   69.6516 H         1 LLB1        0.0000 
     61 H          12.0080   57.1374   72.2276 H         1 LLB1        0.0000 
     62 H          11.1286   57.2637   70.8871 H         1 LLB1        0.0000 
     63 H          11.1963   55.8637   71.6755 H         1 LLB1        0.0000 
     64 H          17.9640   49.7131   58.1824 H         1 LLB1        0.0000 
     65 H           6.4423   54.3097   60.9342 H         1 LLB1        0.0000 
@<TRIPOS>BOND
     1    2    1 ar   
     2   11    1 1    
     3   21    1 ar   
     4    3    2 ar   
     5   36    2 1    
     6   23    3 ar   
     7   37    3 1    
     8   33    4 1    
     9   61    4 1    
    10   62    4 1    
    11   63    4 1    
    12   10    5 2    
    13   11    5 1    
    14   25    5 1    
    15    7    6 ar   
    16   26    6 ar   
    17   28    6 1    
    18    8    7 ar   
    19   38    7 1    
    20   25    8 ar   
    21   39    8 1    
    22   28    9 1    
    23   29    9 1    
    24   40    9 1    
    25   41    9 1    
    26   12   11 2    
    27   13   12 1    
    28   20   12 1    
    29   14   13 ar   
    30   19   13 ar   
    31   15   14 ar   
    32   42   14 1    
    33   16   15 ar   
    34   43   15 1    
    35   17   16 1    
    36   18   16 ar   
    37   64   17 1    
    38   19   18 ar   
    39   44   18 1    
    40   45   19 1    
    41   21   20 1    
    42   22   21 ar   
    43   23   22 ar   
    44   46   22 1    
    45   24   23 1    
    46   65   24 1    
    47   27   25 ar   
    48   27   26 ar   
    49   47   26 1    
    50   48   27 1    
    51   30   29 1    
    52   49   29 1    
    53   50   29 1    
    54   31   30 1    
    55   35   30 1    
    56   51   30 1    
    57   32   31 1    
    58   52   31 1    
    59   53   31 1    
    60   33   32 1    
    61   54   32 1    
    62   55   32 1    
    63   34   33 1    
    64   56   33 1    
    65   35   34 1    
    66   57   34 1    
    67   58   34 1    
    68   59   35 1    
    69   60   35 1    
@<TRIPOS>SUBSTRUCTURE
     1 LLB1        1 GROUP   
@<TRIPOS>SET

