#    Name: 4j53_1J4_1_INTS_M
#    Modification time : Tue Mar 25 05:22:44 2014

@<TRIPOS>MOLECULE
4j53_1J4_1_INTS_M
   69     0     9     0     0
SMALL
NO_CHARGES


@<TRIPOS>ATOM
      1 O          50.9400   11.0720   34.7840 O.2       1 ALC1        0.0000 
      2 O          51.3450   10.9450   33.2460 O.2       7 ALL1        0.0000 
      3 O          50.5350   11.1990   36.3220 O.2       4 ALP1        0.0000 
      4 CA         51.3350    9.2945   35.1890 C.3       3 GLC5        0.0000 
      5 CA         53.1860    9.5450   33.9560 C.3       9 GLL5        0.0000 
      6 CA         49.4840    9.0440   36.4220 C.3       6 GLP5        0.0000 
      7 CA         47.0050    8.0855   32.3630 C.3       3 GLC5        0.0000 
      8 CA         46.3230    8.4080   30.5410 C.3       9 GLL5        0.0000 
      9 CA         47.6870    7.7630   34.1850 C.3       6 GLP5        0.0000 
     10 CA         44.6310    8.2005   31.6370 C.3       3 GLC5        0.0000 
     11 CA         42.9390    7.9930   32.7330 C.3       6 GLP5        0.0000 
     12 CA         45.1890    9.3895   29.2805 C.3       3 GLC5        0.0000 
     13 CA         44.0550   10.3710   28.0200 C.3       6 GLP5        0.0000 
     14 CA         48.4045   13.1070   31.3820 C.3       3 GLC5        0.0000 
     15 CA         48.4700   12.1330   33.2810 C.3       9 GLL5        0.0000 
     16 CA         48.3390   14.0810   29.4830 C.3       6 GLP5        0.0000 
     17 CA         45.9880   10.0185   33.9935 C.3       3 GLC5        0.0000 
     18 CA         46.2700   11.3880   32.5680 C.3       9 GLL5        0.0000 
     19 CA         45.7060    8.6490   35.4190 C.3       6 GLP5        0.0000 
     20 CA         44.9100   10.2730   34.5125 C.3       3 GLC5        0.0000 
     21 CA         44.1140   11.8970   33.6060 C.3       9 GLL5        0.0000 
     22 CA         43.5265    9.9450   33.1695 C.3       3 GLC5        0.0000 
     23 CA         42.6270   12.6260   32.1380 C.3       3 GLC5        0.0000 
     24 CA         41.1400   13.3550   30.6700 C.3       6 GLP5        0.0000 
     25 N          41.9630   11.3420   32.3125 N.am      2 SEC2        0.0000 
     26 N          42.7820   11.7280   33.4670 N.am      8 SEL2        0.0000 
     27 N          41.1440   10.9560   31.1580 N.am      5 SEP2        0.0000 
     28 CA         40.9550   10.7000   33.3190 C.3       3 GLC5        0.0000 
     29 CA         41.9170   12.2540   34.3240 C.3       9 GLL5        0.0000 
     30 CA         39.9930    9.1460   32.3140 C.3       6 GLP5        0.0000 
     31 CA         41.5285   12.8045   32.4970 C.3       3 GLC5        0.0000 
     32 CA         38.7755   15.0895   35.0055 C.3       3 GLC5        0.0000 
     33 CA         40.2360   14.1190   35.5470 C.3       9 GLL5        0.0000 
     34 CA         37.3150   16.0600   34.4640 C.3       6 GLP5        0.0000 
     35 CA         39.8340   13.8915   33.3680 C.3       3 GLC5        0.0000 
     36 CA         39.4320   13.6640   31.1890 C.3       6 GLP5        0.0000 
     37 CA         40.7960   15.9505   35.5140 C.3       3 GLC5        0.0000 
     38 CA         41.3560   17.7820   35.4810 C.3       6 GLP5        0.0000 
     39 CA         41.7840   10.5865   37.5810 C.3       3 GLC5        0.0000 
     40 CA         42.3060   12.1350   38.9790 C.3       9 GLL5        0.0000 
     41 CA         41.2620    9.0380   36.1830 C.3       6 GLP5        0.0000 
     42 CA         47.2295   15.4935   40.1770 C.3       3 GLC5        0.0000 
     43 CA         47.3040   15.3080   38.1360 C.3       9 GLL5        0.0000 
     44 CA         47.1550   15.6790   42.2180 C.3       6 GLP5        0.0000 
     45 CA         49.1880   12.6665   38.5485 C.3       3 GLC5        0.0000 
     46 CA         47.6230   13.8280   38.0240 C.3       9 GLL5        0.0000 
     47 CA         50.7530   11.5050   39.0730 C.3       6 GLP5        0.0000 
     48 CA         46.4100   12.7720   39.4005 C.3       3 GLC5        0.0000 
     49 CA         45.1970   11.7160   40.7770 C.3       6 GLP5        0.0000 
     50 CA         47.3660   11.2795   36.5485 C.3       3 GLC5        0.0000 
     51 CA         46.7380   13.2490   36.9280 C.3       9 GLL5        0.0000 
     52 CA         47.9940    9.3100   36.1690 C.3       6 GLP5        0.0000 
     53 CA         46.2455   11.7720   38.3580 C.3       3 GLC5        0.0000 
     54 CA         45.7530   10.2950   39.7880 C.3       6 GLP5        0.0000 
     55 CA         47.7310    9.2475   32.9799 C.3       3 GLC5        0.0000 
     56 CA         49.0810   11.2980   32.3360 C.3       9 GLL5        0.0000 
     57 CA         48.0570   12.4065   30.6289 C.3       3 GLC5        0.0000 
     58 CA         48.2710   10.5160   31.5070 C.3       9 GLL5        0.0000 
     59 CA         47.9741   10.8296   34.8564 C.3       3 GLC5        0.0000 
     60 CA         41.7025   10.8285   35.5270 C.3       3 GLC5        0.0000 
     61 CA         42.3690   12.9840   35.4180 C.3       9 GLL5        0.0000 
     62 CA         40.4862   12.4507   39.1338 C.3       3 GLC5        0.0000 
     63 CA         38.5050   12.1760   39.5360 C.3       6 GLP5        0.0000 
     64 CA         43.9301   12.3196   39.8399 C.3       3 GLC5        0.0000 
     65 CA         42.0451   13.0199   40.7640 C.3       3 GLC5        0.0000 
     66 CA         41.6010   13.0960   42.5490 C.3       6 GLP5        0.0000 
     67 CA         44.5607   15.7137   35.8942 C.3       3 GLC5        0.0000 
     68 CA         45.7070   14.3130   36.5210 C.3       9 GLL5        0.0000 
     69 CA         43.2630   16.4980   34.8400 C.3       6 GLP5        0.0000 
@<TRIPOS>BOND
@<TRIPOS>SUBSTRUCTURE
     1 ALC1        1 GROUP        1 X    ALC  0     ROOT ALC X 1
     2 SEC2       25 GROUP        1 X    SEC  0     **** SEC X 2
     3 GLC5        4 GROUP        1 X    GLC  0     **** GLC X 6
     4 ALP1        3 GROUP        1 Y    ALP  0     ROOT ALP Y 8
     5 SEP2       27 GROUP        1 Y    SEP  0     **** SEP Y 9
     6 GLP5        6 GROUP        1 Y    GLP  0     **** GLP Y 13
     7 ALL1        2 GROUP        1 Z    ALL  0     ROOT ALL Z 15
     8 SEL2       26 GROUP        1 Z    SEL  0     **** SEL Z 16
     9 GLL5        5 GROUP        1 Z    GLL  0     **** GLL Z 20
@<TRIPOS>SET

