#    Name: 4j53_1J4_1_ligand
#    Modification time : Tue Mar 25 05:22:44 2014

@<TRIPOS>MOLECULE
4j53_1J4_1_ligand
   75    79     1     0     0
SMALL
NO_CHARGES


@<TRIPOS>ATOM
      1 O7         51.0580   11.3520   31.0740 O.2       1 1J4403      0.0000 
      2 C6         50.5810   11.2080   32.1790 C.2       1 1J4403      0.0000 
      3 N8         51.3450   10.9450   33.2460 N.am      1 1J4403      0.0000 
      4 C9         52.8080   10.8340   33.2340 C.3       1 1J4403      0.0000 
      5 C10        53.3570   12.0100   34.0400 C.3       1 1J4403      0.0000 
      6 C11        54.8580   11.8870   34.2810 C.3       1 1J4403      0.0000 
      7 N12        55.1960   10.6100   34.9330 N.4       1 1J4403      0.0000 
      8 C13        56.6620   10.5090   35.1010 C.3       1 1J4403      0.0000 
      9 C14        54.7010    9.4710   34.1330 C.3       1 1J4403      0.0000 
     10 C15        53.1860    9.5450   33.9560 C.3       1 1J4403      0.0000 
     11 C5         49.0810   11.2980   32.3360 C.ar      1 1J4403      0.0000 
     12 C4         48.2710   10.5160   31.5070 C.ar      1 1J4403      0.0000 
     13 C3         46.8740   10.5570   31.6280 C.ar      1 1J4403      0.0000 
     14 O2         46.0670    9.7880   30.8160 O.3       1 1J4403      0.0000 
     15 C1         46.3230    8.4080   30.5410 C.3       1 1J4403      0.0000 
     16 C16        48.4700   12.1330   33.2810 C.ar      1 1J4403      0.0000 
     17 F17        49.1810   12.9220   34.1120 F         1 1J4403      0.0000 
     18 C18        47.0830   12.1710   33.3910 C.ar      1 1J4403      0.0000 
     19 C19        46.2700   11.3880   32.5680 C.ar      1 1J4403      0.0000 
     20 N20        44.9100   11.3330   32.6530 N.pl3     1 1J4403      0.0000 
     21 C21        44.1140   11.8970   33.6060 C.ar      1 1J4403      0.0000 
     22 N22        42.7820   11.7280   33.4670 N.ar      1 1J4403      0.0000 
     23 C23        41.9170   12.2540   34.3240 C.ar      1 1J4403      0.0000 
     24 C24        42.3690   12.9840   35.4180 C.ar      1 1J4403      0.0000 
     25 N25        41.4050   13.5860   36.2650 N.am      1 1J4403      0.0000 
     26 C26        40.2360   14.1190   35.5470 C.3       1 1J4403      0.0000 
     27 C27        41.4980   13.7860   37.5920 C.2       1 1J4403      0.0000 
     28 O28        40.5760   14.3630   38.1640 O.2       1 1J4403      0.0000 
     29 N40        44.5830   12.6080   34.6520 N.ar      1 1J4403      0.0000 
     30 C39        43.7490   13.1800   35.5530 C.ar      1 1J4403      0.0000 
     31 N33        44.2670   13.9240   36.6490 N.3       1 1J4403      0.0000 
     32 C32        44.0210   13.1510   37.8750 C.3       1 1J4403      0.0000 
     33 C29        42.6290   13.3160   38.4840 C.3       1 1J4403      0.0000 
     34 F30        42.7160   14.1890   39.4740 F         1 1J4403      0.0000 
     35 F31        42.3060   12.1350   38.9790 F         1 1J4403      0.0000 
     36 C34        45.7070   14.3130   36.5210 C.3       1 1J4403      0.0000 
     37 C35        46.0100   15.5460   37.3760 C.3       1 1J4403      0.0000 
     38 C36        47.3040   15.3080   38.1360 C.3       1 1J4403      0.0000 
     39 C37        47.6230   13.8280   38.0240 C.3       1 1J4403      0.0000 
     40 C38        46.7380   13.2490   36.9280 C.3       1 1J4403      0.0000 
     41 H          50.9042   10.7965   34.2023 H         1 1J4403      0.0000 
     42 H          53.1976   10.8424   32.2708 H         1 1J4403      0.0000 
     43 H          52.8405   12.0559   35.0035 H         1 1J4403      0.0000 
     44 H          53.1543   12.9398   33.5000 H         1 1J4403      0.0000 
     45 H          55.1791   12.7325   34.9035 H         1 1J4403      0.0000 
     46 H          55.3719   11.9722   33.3145 H         1 1J4403      0.0000 
     47 H          54.7303   10.5799   35.9163 H         1 1J4403      0.0000 
     48 H          54.9467    8.5233   34.6238 H         1 1J4403      0.0000 
     49 H          55.1661    9.4691   33.1415 H         1 1J4403      0.0000 
     50 H          52.8506    8.6932   33.3726 H         1 1J4403      0.0000 
     51 H          52.7091    9.5246   34.9310 H         1 1J4403      0.0000 
     52 H          48.7018    9.9037   30.8005 H         1 1J4403      0.0000 
     53 H          46.6436   12.7903   34.0951 H         1 1J4403      0.0000 
     54 H          44.4004   10.7737   31.8687 H         1 1J4403      0.0000 
     55 H          40.8895   12.1361   34.2024 H         1 1J4403      0.0000 
     56 H          44.7689   13.4233   38.6558 H         1 1J4403      0.0000 
     57 H          44.1816   12.0648   37.6814 H         1 1J4403      0.0000 
     58 H          45.9250   14.6008   35.4848 H         1 1J4403      0.0000 
     59 H          45.2006   15.7028   38.0747 H         1 1J4403      0.0000 
     60 H          46.1184   16.4077   36.7328 H         1 1J4403      0.0000 
     61 H          47.1701   15.5727   39.1698 H         1 1J4403      0.0000 
     62 H          48.0958   15.8841   37.6912 H         1 1J4403      0.0000 
     63 H          47.4063   13.3379   38.9579 H         1 1J4403      0.0000 
     64 H          48.6580   13.6986   37.7566 H         1 1J4403      0.0000 
     65 H          47.3405   12.9929   36.0708 H         1 1J4403      0.0000 
     66 H          46.2211   12.3782   37.2994 H         1 1J4403      0.0000 
     67 H          57.1398   10.5453   34.2233 H         1 1J4403      0.0000 
     68 H          57.0236   11.2532   35.6625 H         1 1J4403      0.0000 
     69 H          56.9269    9.6524   35.5437 H         1 1J4403      0.0000 
     70 H          47.2117    8.2754   30.1021 H         1 1J4403      0.0000 
     71 H          46.3230    7.8568   31.3754 H         1 1J4403      0.0000 
     72 H          45.6337    8.0167   29.9313 H         1 1J4403      0.0000 
     73 H          40.4959   14.8200   34.8828 H         1 1J4403      0.0000 
     74 H          39.7514   13.4036   35.0436 H         1 1J4403      0.0000 
     75 H          39.5757   14.5369   36.1710 H         1 1J4403      0.0000 
@<TRIPOS>BOND
     1    2    1 2    
     2    3    2 am   
     3   11    2 1    
     4    4    3 1    
     5   41    3 1    
     6    5    4 1    
     7   10    4 1    
     8   42    4 1    
     9    6    5 1    
    10   43    5 1    
    11   44    5 1    
    12    7    6 1    
    13   45    6 1    
    14   46    6 1    
    15    8    7 1    
    16    9    7 1    
    17   47    7 1    
    18   67    8 1    
    19   68    8 1    
    20   69    8 1    
    21   10    9 1    
    22   48    9 1    
    23   49    9 1    
    24   50   10 1    
    25   51   10 1    
    26   12   11 ar   
    27   16   11 ar   
    28   13   12 ar   
    29   52   12 1    
    30   14   13 1    
    31   19   13 ar   
    32   15   14 1    
    33   70   15 1    
    34   71   15 1    
    35   72   15 1    
    36   17   16 1    
    37   18   16 ar   
    38   19   18 ar   
    39   53   18 1    
    40   20   19 1    
    41   21   20 1    
    42   54   20 1    
    43   22   21 ar   
    44   29   21 ar   
    45   23   22 ar   
    46   24   23 ar   
    47   55   23 1    
    48   25   24 1    
    49   30   24 ar   
    50   26   25 1    
    51   27   25 am   
    52   73   26 1    
    53   74   26 1    
    54   75   26 1    
    55   28   27 2    
    56   33   27 1    
    57   30   29 ar   
    58   31   30 1    
    59   32   31 1    
    60   36   31 1    
    61   33   32 1    
    62   56   32 1    
    63   57   32 1    
    64   34   33 1    
    65   35   33 1    
    66   37   36 1    
    67   40   36 1    
    68   58   36 1    
    69   38   37 1    
    70   59   37 1    
    71   60   37 1    
    72   39   38 1    
    73   61   38 1    
    74   62   38 1    
    75   40   39 1    
    76   63   39 1    
    77   64   39 1    
    78   65   40 1    
    79   66   40 1    
@<TRIPOS>SUBSTRUCTURE
     1 1J4403      1 GROUP   
@<TRIPOS>SET

