#    Name: 3c49_KU8_1_INTS_M
#    Modification time : Mon Mar 24 20:29:22 2014

@<TRIPOS>MOLECULE
3c49_KU8_1_INTS_M
   52     0     9     0     0
SMALL
NO_CHARGES


@<TRIPOS>ATOM
      1 CA         25.9140   -4.7100    9.9295 C.3       3 GLC5        0.0000 
      2 CA         23.8820   -4.0580    9.6090 C.3       9 GLL5        0.0000 
      3 CA         27.9460   -5.3620   10.2500 C.3       6 GLP5        0.0000 
      4 CA         26.0125   -0.7435    9.6780 C.3       3 GLC5        0.0000 
      5 CA         24.1360   -1.5330   10.1480 C.3       9 GLL5        0.0000 
      6 CA         27.8890    0.0460    9.2080 C.3       6 GLP5        0.0000 
      7 CA         20.9120   -0.1285    7.9780 C.3       3 GLC5        0.0000 
      8 CA         22.6230   -1.3810    8.2200 C.3       9 GLL5        0.0000 
      9 CA         19.2010    1.1240    7.7360 C.3       6 GLP5        0.0000 
     10 CA         23.6920   -0.0440    6.7905 C.3       3 GLC5        0.0000 
     11 CA         24.7610    1.2930    5.3610 C.3       6 GLP5        0.0000 
     12 N          20.1870   -5.4235    7.5510 N.am      2 SEC2        0.0000 
     13 N          20.5070   -4.7510    8.8080 N.am      8 SEL2        0.0000 
     14 N          19.8670   -6.0960    6.2940 N.am      5 SEP2        0.0000 
     15 CA         26.1515   -5.8845    9.8880 C.3       3 GLC5        0.0000 
     16 CA         24.3570   -6.4070    9.5260 C.3       9 GLL5        0.0000 
     17 CA         23.5035   -7.7865    8.6040 C.3       3 GLC5        0.0000 
     18 CA         22.6500   -9.1660    7.6820 C.3       6 GLP5        0.0000 
     19 CA         18.8980   -8.5370   13.9220 C.3       3 GLC5        0.0000 
     20 CA         19.9190   -7.9680   12.6340 C.3       9 GLL5        0.0000 
     21 CA         17.8770   -9.1060   15.2100 C.3       6 GLP5        0.0000 
     22 CA         15.3050   -7.3965    8.2695 C.3       3 GLC5        0.0000 
     23 CA         15.5490   -8.0180   10.3590 C.3       9 GLL5        0.0000 
     24 CA         15.0610   -6.7750    6.1800 C.3       6 GLP5        0.0000 
     25 CA         14.1400   -9.5490   10.9880 C.3       3 GLC5        0.0000 
     26 CA         12.7310  -11.0800   11.6170 C.3       6 GLP5        0.0000 
     27 N          14.5800   -4.3470   11.6165 N.am      2 SEC2        0.0000 
     28 N          15.2440   -5.4520   11.3190 N.am      8 SEL2        0.0000 
     29 N          13.9160   -3.2420   11.9140 N.am      5 SEP2        0.0000 
     30 N          13.8215   -5.7535   11.0455 N.am      2 SEC2        0.0000 
     31 N          12.3990   -6.0550   10.7720 N.am      5 SEP2        0.0000 
     32 O          16.7985   -4.1810   12.8685 O.2       1 ALC1        0.0000 
     33 O          17.2880   -5.4570   12.3630 O.2       7 ALL1        0.0000 
     34 O          16.3090   -2.9050   13.3740 O.2       4 ALP1        0.0000 
     35 CA         21.1923   -2.4567    6.6632 C.3       3 GLC5        0.0000 
     36 CA         21.9520   -2.7220    8.4070 C.3       9 GLL5        0.0000 
     37 CA         20.0970   -2.8620    5.0130 C.3       6 GLP5        0.0000 
     38 CA         20.2229   -7.3294    9.5291 C.3       3 GLC5        0.0000 
     39 CA         22.0380   -6.1120   10.0290 C.3       9 GLL5        0.0000 
     40 CA         19.1360   -7.7490    7.9460 C.3       6 GLP5        0.0000 
     41 CA         18.4713   -8.1847    9.6013 C.3       3 GLC5        0.0000 
     42 CA         17.6740   -7.9730   11.4690 C.3       9 GLL5        0.0000 
     43 CA         17.7707   -8.6885    9.0228 C.3       3 GLC5        0.0000 
     44 CA         17.0030   -9.9400   10.2700 C.3       9 GLL5        0.0000 
     45 CA         16.3777  -11.3105    9.3773 C.3       3 GLC5        0.0000 
     46 CA         16.3500  -12.9930    8.6550 C.3       6 GLP5        0.0000 
     47 CA         13.7978   -8.7950    9.5125 C.3       3 GLC5        0.0000 
     48 CA         15.8080   -9.3160    9.9290 C.3       9 GLL5        0.0000 
     49 CA         11.9170   -8.9230    8.8810 C.3       6 GLP5        0.0000 
     50 CA         15.7383  -10.9290   11.1240 C.3       3 GLC5        0.0000 
     51 CA         14.8370  -12.3980   11.9550 C.3       6 GLP5        0.0000 
     52 CA         17.5775   -7.7165    9.3455 C.3       3 GLC5        0.0000 
@<TRIPOS>BOND
@<TRIPOS>SUBSTRUCTURE
     1 ALC1       32 GROUP        1 X    ALC  0     ROOT ALC X 1
     2 SEC2       12 GROUP        1 X    SEC  0     **** SEC X 2
     3 GLC5        1 GROUP        1 X    GLC  0     **** GLC X 6
     4 ALP1       34 GROUP        1 Y    ALP  0     ROOT ALP Y 8
     5 SEP2       14 GROUP        1 Y    SEP  0     **** SEP Y 9
     6 GLP5        3 GROUP        1 Y    GLP  0     **** GLP Y 13
     7 ALL1       33 GROUP        1 Z    ALL  0     ROOT ALL Z 15
     8 SEL2       13 GROUP        1 Z    SEL  0     **** SEL Z 16
     9 GLL5        2 GROUP        1 Z    GLL  0     **** GLL Z 20
@<TRIPOS>SET

