#    Name: 3c49_KU8_1_ligand
#    Modification time : Mon Mar 24 20:29:22 2014

@<TRIPOS>MOLECULE
3c49_KU8_1_ligand
   48    51     1     0     0
SMALL
NO_CHARGES


@<TRIPOS>ATOM
      1 C1N        23.8820   -4.0580    9.6090 C.3       1 KU8601      0.0000 
      2 C1K        24.1480   -2.9670   10.6680 C.3       1 KU8601      0.0000 
      3 C1L        24.1360   -1.5330   10.1480 C.3       1 KU8601      0.0000 
      4 N1R        23.0770   -0.7550    9.4790 N.4       1 KU8601      0.0000 
      5 C1M        22.6230   -1.3810    8.2200 C.3       1 KU8601      0.0000 
      6 C1O        21.9520   -2.7220    8.4070 C.3       1 KU8601      0.0000 
      7 N2B        22.5630   -3.8850    9.0150 N.am      1 KU8601      0.0000 
      8 C1T        21.6680   -4.8580    9.2120 C.2       1 KU8601      0.0000 
      9 O1A        20.5070   -4.7510    8.8080 O.2       1 KU8601      0.0000 
     10 C1W        22.0380   -6.1120   10.0290 C.ar      1 KU8601      0.0000 
     11 C1J        20.9950   -6.4750   10.8740 C.ar      1 KU8601      0.0000 
     12 C1V        23.2850   -6.6960   10.2880 C.ar      1 KU8601      0.0000 
     13 F1C        24.3570   -6.4070    9.5260 F         1 KU8601      0.0000 
     14 C1G        23.3890   -7.7910   11.1450 C.ar      1 KU8601      0.0000 
     15 C1F        22.3070   -8.1890   11.9100 C.ar      1 KU8601      0.0000 
     16 C1U        21.1030   -7.5260   11.7730 C.ar      1 KU8601      0.0000 
     17 C1P        19.9190   -7.9680   12.6340 C.3       1 KU8601      0.0000 
     18 C1X        18.6070   -7.2990   12.2330 C.2       1 KU8601      0.0000 
     19 C1Z        17.6740   -7.9730   11.4690 C.ar      1 KU8601      0.0000 
     20 C1H        17.9390   -9.2680   11.0440 C.ar      1 KU8601      0.0000 
     21 C1D        17.0030   -9.9400   10.2700 C.ar      1 KU8601      0.0000 
     22 C1E        15.8080   -9.3160    9.9290 C.ar      1 KU8601      0.0000 
     23 C1I        15.5490   -8.0180   10.3590 C.ar      1 KU8601      0.0000 
     24 C2A        16.4890   -7.3500   11.1310 C.ar      1 KU8601      0.0000 
     25 C1Y        16.2820   -6.0580   11.5870 C.2       1 KU8601      0.0000 
     26 O1B        15.2440   -5.4520   11.3190 O.2       1 KU8601      0.0000 
     27 N1S        17.2880   -5.4570   12.3630 N.am      1 KU8601      0.0000 
     28 N1Q        18.3380   -6.0460   12.6460 N.2       1 KU8601      0.0000 
     29 H          23.9700   -5.0309   10.1025 H         1 KU8601      0.0000 
     30 H          24.6698   -3.9881    8.8524 H         1 KU8601      0.0000 
     31 H          25.1284   -3.1719   11.1407 H         1 KU8601      0.0000 
     32 H          23.3903   -3.0672   11.4694 H         1 KU8601      0.0000 
     33 H          25.1158   -1.4361    9.4770 H         1 KU8601      0.0000 
     34 H          24.5365   -0.8695   11.0529 H         1 KU8601      0.0000 
     35 H          23.4848   -1.5116    7.5327 H         1 KU8601      0.0000 
     36 H          21.9161   -0.7038    7.6968 H         1 KU8601      0.0000 
     37 H          21.5351   -3.0259    7.3613 H         1 KU8601      0.0000 
     38 H          20.9419   -2.5077    8.9486 H         1 KU8601      0.0000 
     39 H          20.1007   -5.9374   10.8293 H         1 KU8601      0.0000 
     40 H          24.2819   -8.3054   11.2058 H         1 KU8601      0.0000 
     41 H          22.3990   -8.9679   12.5712 H         1 KU8601      0.0000 
     42 H          20.1348   -7.7340   13.6850 H         1 KU8601      0.0000 
     43 H          19.8059   -9.0574   12.5534 H         1 KU8601      0.0000 
     44 H          18.8210   -9.7251   11.3005 H         1 KU8601      0.0000 
     45 H          17.1920  -10.8982    9.9486 H         1 KU8601      0.0000 
     46 H          15.1128   -9.8151    9.3570 H         1 KU8601      0.0000 
     47 H          14.6670   -7.5588   10.1056 H         1 KU8601      0.0000 
     48 H          17.0698   -4.4618   12.6823 H         1 KU8601      0.0000 
@<TRIPOS>BOND
     1    2    1 1    
     2    7    1 1    
     3   29    1 1    
     4   30    1 1    
     5    3    2 1    
     6   31    2 1    
     7   32    2 1    
     8    4    3 1    
     9   33    3 1    
    10   34    3 1    
    11    5    4 1    
    12    6    5 1    
    13   35    5 1    
    14   36    5 1    
    15    7    6 1    
    16   37    6 1    
    17   38    6 1    
    18    8    7 am   
    19    9    8 2    
    20   10    8 1    
    21   11   10 ar   
    22   12   10 ar   
    23   16   11 ar   
    24   39   11 1    
    25   13   12 1    
    26   14   12 ar   
    27   15   14 ar   
    28   40   14 1    
    29   16   15 ar   
    30   41   15 1    
    31   17   16 1    
    32   18   17 1    
    33   42   17 1    
    34   43   17 1    
    35   19   18 1    
    36   28   18 2    
    37   20   19 ar   
    38   24   19 ar   
    39   21   20 ar   
    40   44   20 1    
    41   22   21 ar   
    42   45   21 1    
    43   23   22 ar   
    44   46   22 1    
    45   24   23 ar   
    46   47   23 1    
    47   25   24 1    
    48   26   25 2    
    49   27   25 am   
    50   28   27 1    
    51   48   27 1    
@<TRIPOS>SUBSTRUCTURE
     1 KU8601      1 GROUP   
@<TRIPOS>SET

