#    Name: 1z7y_AA5_1_INTS_M
#    Modification time : Mon Apr  7 16:54:01 2014

@<TRIPOS>MOLECULE
1z7y_AA5_1_INTS_M
   64     0     6     0     0
SMALL
NO_CHARGES


@<TRIPOS>ATOM
      1 CA         77.8110   41.6550  -11.8995 C.3       2 GLC5        0.0000 
      2 CA         78.8690   43.0960  -13.0760 C.3       6 GLL5        0.0000 
      3 CA         76.7530   40.2140  -10.7230 C.3       4 GLP5        0.0000 
      4 N          75.8090   43.7250  -10.8935 N.am      1 SEC2        0.0000 
      5 N          77.0130   43.2560  -11.4800 N.am      5 SEL2        0.0000 
      6 N          74.6050   44.1940  -10.3070 N.am      3 SEP2        0.0000 
      7 N          76.2695   41.8405  -12.1800 N.am      1 SEC2        0.0000 
      8 N          75.5260   40.4250  -12.8800 N.am      3 SEP2        0.0000 
      9 N          77.4865   43.4395  -10.2600 N.am      1 SEC2        0.0000 
     10 N          77.9600   43.6230   -9.0400 N.am      3 SEP2        0.0000 
     11 CA         81.1500   44.0035  -11.5920 C.3       2 GLC5        0.0000 
     12 CA         79.7120   44.4120  -12.8710 C.3       6 GLL5        0.0000 
     13 CA         82.5880   43.5950  -10.3130 C.3       4 GLP5        0.0000 
     14 CA         81.9530   46.9105  -13.5580 C.3       2 GLC5        0.0000 
     15 CA         80.0140   47.2380  -13.1020 C.3       6 GLL5        0.0000 
     16 CA         83.8920   46.5830  -14.0140 C.3       4 GLP5        0.0000 
     17 N          76.0340   42.0470  -13.2220 N.am      1 SEC2        0.0000 
     18 N          76.5420   43.6690  -13.5640 N.am      5 SEL2        0.0000 
     19 CA         77.8510   41.9290  -20.9950 C.3       2 GLC5        0.0000 
     20 CA         78.4150   43.1700  -19.8330 C.3       6 GLL5        0.0000 
     21 CA         77.2870   40.6880  -22.1570 C.3       4 GLP5        0.0000 
     22 CA         76.5415   43.5735  -20.9125 C.3       2 GLC5        0.0000 
     23 CA         74.6680   43.9770  -21.9920 C.3       4 GLP5        0.0000 
     24 CA         81.0270   40.9210  -16.8925 C.3       2 GLC5        0.0000 
     25 CA         80.3400   42.8790  -16.5000 C.3       6 GLL5        0.0000 
     26 CA         81.7140   38.9630  -17.2850 C.3       4 GLP5        0.0000 
     27 CA         83.3060   45.1335  -14.8995 C.3       2 GLC5        0.0000 
     28 CA         82.7200   43.6840  -15.7850 C.3       6 GLL5        0.0000 
     29 CA         81.3145   44.9000  -20.0600 C.3       2 GLC5        0.0000 
     30 CA         81.7500   44.0070  -18.1290 C.3       6 GLL5        0.0000 
     31 CA         80.8790   45.7930  -21.9910 C.3       4 GLP5        0.0000 
     32 CA         81.7485   42.6985  -19.4760 C.3       2 GLC5        0.0000 
     33 CA         81.7470   41.3900  -20.8230 C.3       4 GLP5        0.0000 
     34 N          80.5585   44.1740  -20.6090 N.am      1 SEC2        0.0000 
     35 N          80.7250   43.8850  -19.0950 N.am      5 SEL2        0.0000 
     36 N          80.3920   44.4630  -22.1230 N.am      3 SEP2        0.0000 
     37 N          86.8370   40.9735  -13.7850 N.am      1 SEC2        0.0000 
     38 N          85.7570   41.6660  -14.3010 N.am      5 SEL2        0.0000 
     39 N          87.9170   40.2810  -13.2690 N.am      3 SEP2        0.0000 
     40 N          86.0670   40.4855  -14.9355 N.am      1 SEC2        0.0000 
     41 N          86.3770   39.3050  -15.5700 N.am      3 SEP2        0.0000 
     42 N          85.3720   45.2365  -14.6500 N.am      1 SEC2        0.0000 
     43 N          85.5940   44.0970  -14.5930 N.am      5 SEL2        0.0000 
     44 N          85.1500   46.3760  -14.7070 N.am      3 SEP2        0.0000 
     45 N          86.1575   44.4320  -13.1870 N.am      1 SEC2        0.0000 
     46 N          86.7210   44.7670  -11.7810 N.am      3 SEP2        0.0000 
     47 N          84.0705   44.1190  -12.5735 N.am      1 SEC2        0.0000 
     48 N          83.8880   42.9860  -13.1500 N.am      5 SEL2        0.0000 
     49 N          84.2530   45.2520  -11.9970 N.am      3 SEP2        0.0000 
     50 N          84.3470   42.8060  -11.7440 N.am      1 SEC2        0.0000 
     51 N          84.8060   42.6260  -10.3380 N.am      3 SEP2        0.0000 
     52 CA         79.3730   46.7043  -15.3362 C.3       2 GLC5        0.0000 
     53 CA         79.0580   45.7150  -13.3730 C.3       6 GLL5        0.0000 
     54 CA         79.2100   46.9320  -17.4350 C.3       4 GLP5        0.0000 
     55 CA         79.9802   47.4335  -10.7440 C.3       2 GLC5        0.0000 
     56 CA         80.5970   47.0810   -8.7070 C.3       4 GLP5        0.0000 
     57 CA         79.3063   44.9765  -17.7885 C.3       2 GLC5        0.0000 
     58 CA         79.2990   42.7630  -17.5020 C.3       6 GLL5        0.0000 
     59 CA         79.9197   44.5087  -20.6492 C.3       2 GLC5        0.0000 
     60 CA         79.5060   43.2790  -18.7820 C.3       6 GLL5        0.0000 
     61 CA         80.4384   42.1919  -19.6139 C.3       2 GLC5        0.0000 
     62 CA         80.2824   45.2659  -17.4158 C.3       2 GLC5        0.0000 
     63 CA         82.7244   45.4060  -17.6859 C.3       2 GLC5        0.0000 
     64 CA         83.4990   47.0110  -18.1540 C.3       4 GLP5        0.0000 
@<TRIPOS>BOND
@<TRIPOS>SUBSTRUCTURE
     1 SEC2        4 GROUP        1 X    SEC  0     ROOT SEC X 2
     2 GLC5        1 GROUP        1 X    GLC  0     **** GLC X 6
     3 SEP2        6 GROUP        1 Y    SEP  0     ROOT SEP Y 9
     4 GLP5        3 GROUP        1 Y    GLP  0     **** GLP Y 13
     5 SEL2        5 GROUP        1 Z    SEL  0     ROOT SEL Z 16
     6 GLL5        2 GROUP        1 Z    GLL  0     **** GLL Z 20
@<TRIPOS>SET

