#    Name: 1z7y_AA5_1_ligand
#    Modification time : Mon Apr  7 16:54:01 2014

@<TRIPOS>MOLECULE
1z7y_AA5_1_ligand
   40    40     1     0     0
SMALL
NO_CHARGES


@<TRIPOS>ATOM
      1 N          78.9700   42.5890  -14.4870 N.2       1 AA5501      0.0000 
      2 CA         78.8690   43.0960  -13.0760 C.3       1 AA5501      0.0000 
      3 C          77.3660   43.3500  -12.6800 C.2       1 AA5501      0.0000 
      4 O1         77.0130   43.2560  -11.4800 O.co2     1 AA5501      0.0000 
      5 CB         79.7120   44.4120  -12.8710 C.3       1 AA5501      0.0000 
      6 CG         79.0580   45.7150  -13.3730 C.3       1 AA5501      0.0000 
      7 SD         80.0140   47.2380  -13.1020 S.3       1 AA5501      0.0000 
      8 CE         78.7130   48.3340  -12.4600 C.3       1 AA5501      0.0000 
      9 O2         76.5420   43.6690  -13.5640 O.co2     1 AA5501      0.0000 
     10 C2         79.5060   43.2790  -18.7820 C.ar      1 AA5501      0.0000 
     11 C2A        78.4150   43.1700  -19.8330 C.3       1 AA5501      0.0000 
     12 C3         79.2990   42.7630  -17.5020 C.ar      1 AA5501      0.0000 
     13 C4         80.3400   42.8790  -16.5000 C.ar      1 AA5501      0.0000 
     14 C4A        80.0880   42.3030  -15.0700 C.2       1 AA5501      0.0000 
     15 C5         81.5790   43.5060  -16.8280 C.ar      1 AA5501      0.0000 
     16 C5A        82.7200   43.6840  -15.7850 C.3       1 AA5501      0.0000 
     17 C6         81.7500   44.0070  -18.1290 C.ar      1 AA5501      0.0000 
     18 N1         80.7250   43.8850  -19.0950 N.ar      1 AA5501      0.0000 
     19 O1P        85.7570   41.6660  -14.3010 O.co2     1 AA5501      0.0000 
     20 O2P        85.5940   44.0970  -14.5930 O.co2     1 AA5501      0.0000 
     21 O3         78.0830   42.1710  -17.2170 O.3       1 AA5501      0.0000 
     22 O3P        83.8880   42.9860  -13.1500 O.co2     1 AA5501      0.0000 
     23 O4P        83.7610   42.6750  -15.6910 O.3       1 AA5501      0.0000 
     24 P          84.7450   42.7450  -14.3610 P.3       1 AA5501      0.0000 
     25 H          79.2594   42.3518  -12.3892 H         1 AA5501      0.0000 
     26 H          80.6822   44.2743  -13.3802 H         1 AA5501      0.0000 
     27 H          79.9305   44.5085  -11.7928 H         1 AA5501      0.0000 
     28 H          78.1216   45.9385  -12.8728 H         1 AA5501      0.0000 
     29 H          78.9065   45.7259  -14.4472 H         1 AA5501      0.0000 
     30 H          80.8493   41.7399  -14.7201 H         1 AA5501      0.0000 
     31 H          82.2150   43.8223  -14.7808 H         1 AA5501      0.0000 
     32 H          83.1759   44.7018  -15.9821 H         1 AA5501      0.0000 
     33 H          82.6318   44.4698  -18.3864 H         1 AA5501      0.0000 
     34 H          79.0920   49.1788  -12.0824 H         1 AA5501      0.0000 
     35 H          78.0637   48.5973  -13.1735 H         1 AA5501      0.0000 
     36 H          78.1861   47.8975  -11.7307 H         1 AA5501      0.0000 
     37 H          78.6952   43.5763  -20.7027 H         1 AA5501      0.0000 
     38 H          78.1722   42.2179  -20.0190 H         1 AA5501      0.0000 
     39 H          77.5772   43.6359  -19.5483 H         1 AA5501      0.0000 
     40 H          77.9227   42.3624  -16.2486 H         1 AA5501      0.0000 
@<TRIPOS>BOND
     1    2    1 1    
     2   14    1 2    
     3    3    2 1    
     4    5    2 1    
     5   25    2 1    
     6    4    3 ar   
     7    9    3 ar   
     8    6    5 1    
     9   26    5 1    
    10   27    5 1    
    11    7    6 1    
    12   28    6 1    
    13   29    6 1    
    14    8    7 1    
    15   34    8 1    
    16   35    8 1    
    17   36    8 1    
    18   11   10 1    
    19   12   10 ar   
    20   18   10 ar   
    21   37   11 1    
    22   38   11 1    
    23   39   11 1    
    24   13   12 ar   
    25   21   12 1    
    26   14   13 1    
    27   15   13 ar   
    28   30   14 1    
    29   16   15 1    
    30   17   15 ar   
    31   23   16 1    
    32   31   16 1    
    33   32   16 1    
    34   18   17 ar   
    35   33   17 1    
    36   24   19 ar   
    37   24   20 ar   
    38   40   21 1    
    39   24   22 ar   
    40   24   23 1    
@<TRIPOS>SUBSTRUCTURE
     1 AA5501      1 GROUP   
@<TRIPOS>SET

