#    Name: 2fe4_GDP_1_INTS_M
#    Modification time : Tue Mar 25 12:29:08 2014

@<TRIPOS>MOLECULE
2fe4_GDP_1_INTS_M
   67     0    15     0     0
SMALL
NO_CHARGES


@<TRIPOS>ATOM
      1 N          11.7010   32.5980   29.8755 N.am      2 SEC2        0.0000 
      2 N          12.8830   33.1970   29.5160 N.am     12 SEL2        0.0000 
      3 N          10.5190   31.9990   30.2350 N.am      7 SEP2        0.0000 
      4 NZ         12.5385   31.7615   26.9525 N.4       3 LYC4        0.0000 
      5 NZ         13.2440   31.2010   28.1670 N.4      13 LYL4        0.0000 
      6 NZ         11.8330   32.3220   25.7380 N.4       8 LYP4        0.0000 
      7 N          13.4260   29.8625   28.7230 N.am      2 SEC2        0.0000 
      8 N          13.2440   31.2010   28.1670 N.am     12 SEL2        0.0000 
      9 N          13.6080   28.5240   29.2790 N.am      7 SEP2        0.0000 
     10 N          14.3210   30.3795   27.7800 N.am      2 SEC2        0.0000 
     11 N          15.3980   29.5580   27.3930 N.am      7 SEP2        0.0000 
     12 N          12.5385   31.7615   26.9525 N.am      2 SEC2        0.0000 
     13 N          11.8330   32.3220   25.7380 N.am      7 SEP2        0.0000 
     14 Zn         15.4320   33.6920   28.5085 Zn        4 ZIC7        0.0000 
     15 Zn         15.0650   32.6560   28.5560 Zn       14 ZIL7        0.0000 
     16 Zn         15.7990   34.7280   28.4610 Zn        9 ZIP7        0.0000 
     17 N          16.3370   32.0610   28.0030 N.am      2 SEC2        0.0000 
     18 N          15.0650   32.6560   28.5560 N.am     12 SEL2        0.0000 
     19 N          17.6090   31.4660   27.4500 N.am      7 SEP2        0.0000 
     20 N          13.8690   29.9335   29.8710 N.am      2 SEC2        0.0000 
     21 N          14.1300   31.3430   30.4630 N.am     12 SEL2        0.0000 
     22 N          17.9110   30.6020   30.0660 N.am      2 SEC2        0.0000 
     23 N          16.5770   30.9760   30.7190 N.am     12 SEL2        0.0000 
     24 N          19.2450   30.2280   29.4130 N.am      7 SEP2        0.0000 
     25 N          17.5710   30.1040   31.3945 N.am      2 SEC2        0.0000 
     26 N          18.5650   29.2320   32.0700 N.am      7 SEP2        0.0000 
     27 CA         12.3735   30.7590   32.2545 C.3       5 GLC5        0.0000 
     28 CA         13.7610   30.5360   33.3400 C.3      15 GLL5        0.0000 
     29 CA         10.9860   30.9820   31.1690 C.3      10 GLP5        0.0000 
     30 CA         12.0525   30.4580   33.5900 C.3       5 GLC5        0.0000 
     31 CA         13.9040   29.8540   34.7000 C.3      15 GLL5        0.0000 
     32 CA         10.2010   31.0620   32.4800 C.3      10 GLP5        0.0000 
     33 N          12.8430   27.4745   34.0790 N.am      2 SEC2        0.0000 
     34 N          14.0170   28.4100   34.4590 N.am     12 SEL2        0.0000 
     35 N          11.6690   26.5390   33.6990 N.am      7 SEP2        0.0000 
     36 O          15.7260   30.5715   37.9730 O.2       1 ALC1        0.0000 
     37 O          14.7640   30.4230   36.8220 O.2      11 ALL1        0.0000 
     38 O          16.6880   30.7200   39.1240 O.2       6 ALP1        0.0000 
     39 O          18.6015   29.6255   36.3255 O.2       1 ALC1        0.0000 
     40 O          17.1370   28.9440   36.2580 O.2      11 ALL1        0.0000 
     41 O          20.0660   30.3070   36.3930 O.2       6 ALP1        0.0000 
     42 CA         13.9205   26.7920   33.9300 C.3       5 GLC5        0.0000 
     43 CA         15.2540   27.8760   35.0030 C.3      15 GLL5        0.0000 
     44 CA         12.5870   25.7080   32.8570 C.3      10 GLP5        0.0000 
     45 N          16.0385   25.3130   30.8550 N.am      2 SEC2        0.0000 
     46 N          16.7460   25.9560   32.1320 N.am     12 SEL2        0.0000 
     47 N          15.3310   24.6700   29.5780 N.am      7 SEP2        0.0000 
     48 CA         14.9210   24.1990   32.6215 C.3       5 GLC5        0.0000 
     49 CA         16.5150   24.9950   33.0810 C.3      15 GLL5        0.0000 
     50 CA         13.3270   23.4030   32.1620 C.3      10 GLP5        0.0000 
     51 CA         18.2125   25.0310   31.8510 C.3       5 GLC5        0.0000 
     52 CA         19.9100   25.0670   30.6210 C.3      10 GLP5        0.0000 
     53 N          18.3335   22.7850   31.4450 N.am      2 SEC2        0.0000 
     54 N          17.2170   22.8970   32.1930 N.am     12 SEL2        0.0000 
     55 N          19.4500   22.6730   30.6970 N.am      7 SEP2        0.0000 
     56 N          18.7720   22.9860   32.6780 N.am      2 SEC2        0.0000 
     57 N          20.3270   23.0750   33.1630 N.am      7 SEP2        0.0000 
     58 O          16.3890   21.5520   34.3425 O.2       1 ALC1        0.0000 
     59 O          16.3480   22.9110   34.2780 O.2      11 ALL1        0.0000 
     60 O          16.4300   20.1930   34.4070 O.2       6 ALP1        0.0000 
     61 O          15.9105   21.5210   36.5435 O.2       1 ALC1        0.0000 
     62 O          15.4370   22.8380   36.4780 O.2      11 ALL1        0.0000 
     63 O          16.3840   20.2040   36.6090 O.2       6 ALP1        0.0000 
     64 CA         14.2555   25.6310   33.5555 C.3       5 GLC5        0.0000 
     65 CA         15.9240   25.5540   34.2540 C.3      15 GLL5        0.0000 
     66 CA         17.4270   27.4285   35.5333 C.3       5 GLC5        0.0000 
     67 CA         19.1490   26.3700   35.9680 C.3      10 GLP5        0.0000 
@<TRIPOS>BOND
@<TRIPOS>SUBSTRUCTURE
     1 ALC1       36 GROUP        1 X    ALC  0     ROOT ALC X 1
     2 SEC2        1 GROUP        1 X    SEC  0     **** SEC X 2
     3 LYC4        4 GROUP        1 X    LYC  0     **** LYC X 4
     4 ZIC7       14 GROUP        1 X    ZIC  0     **** ZIC X 5
     5 GLC5       27 GROUP        1 X    GLC  0     **** GLC X 6
     6 ALP1       38 GROUP        1 Y    ALP  0     ROOT ALP Y 8
     7 SEP2        3 GROUP        1 Y    SEP  0     **** SEP Y 9
     8 LYP4        6 GROUP        1 Y    LYP  0     **** LYP Y 11
     9 ZIP7       16 GROUP        1 Y    ZIP  0     **** ZIP Y 12
    10 GLP5       29 GROUP        1 Y    GLP  0     **** GLP Y 13
    11 ALL1       37 GROUP        1 Z    ALL  0     ROOT ALL Z 15
    12 SEL2        2 GROUP        1 Z    SEL  0     **** SEL Z 16
    13 LYL4        5 GROUP        1 Z    LYL  0     **** LYL Z 18
    14 ZIL7       15 GROUP        1 Z    ZIL  0     **** ZIL Z 19
    15 GLL5       28 GROUP        1 Z    GLL  0     **** GLL Z 20
@<TRIPOS>SET

