#    Name: 2fe4_GDP_1_ligand
#    Modification time : Tue Mar 25 12:29:08 2014

@<TRIPOS>MOLECULE
2fe4_GDP_1_ligand
   40    42     1     0     0
SMALL
NO_CHARGES


@<TRIPOS>ATOM
      1 PB         13.8010   32.1490   29.1310 P.3       1 GDP201      0.0000 
      2 O1B        12.8830   33.1970   29.5160 O.co2     1 GDP201      0.0000 
      3 O2B        13.2440   31.2010   28.1670 O.co2     1 GDP201      0.0000 
      4 O3B        15.0650   32.6560   28.5560 O.co2     1 GDP201      0.0000 
      5 O3A        14.1300   31.3430   30.4630 O.3       1 GDP201      0.0000 
      6 PA         15.3730   31.4190   31.4730 P.3       1 GDP201      0.0000 
      7 O1A        15.4470   32.7630   32.0040 O.co2     1 GDP201      0.0000 
      8 O2A        16.5770   30.9760   30.7190 O.co2     1 GDP201      0.0000 
      9 O5'        14.9170   30.3200   32.5050 O.3       1 GDP201      0.0000 
     10 C5'        13.7610   30.5360   33.3400 C.3       1 GDP201      0.0000 
     11 C4'        13.9040   29.8540   34.7000 C.3       1 GDP201      0.0000 
     12 O4'        14.0170   28.4100   34.4590 O.3       1 GDP201      0.0000 
     13 C3'        15.1730   30.2580   35.4590 C.3       1 GDP201      0.0000 
     14 O3'        14.7640   30.4230   36.8220 O.3       1 GDP201      0.0000 
     15 C2'        16.1560   29.0980   35.1940 C.3       1 GDP201      0.0000 
     16 O2'        17.1370   28.9440   36.2580 O.3       1 GDP201      0.0000 
     17 C1'        15.2540   27.8760   35.0030 C.3       1 GDP201      0.0000 
     18 N9         15.8220   26.8720   34.0210 N.pl3     1 GDP201      0.0000 
     19 C8         16.3250   27.0440   32.7260 C.2       1 GDP201      0.0000 
     20 N7         16.7460   25.9560   32.1320 N.2       1 GDP201      0.0000 
     21 C5         16.5150   24.9950   33.0810 C.2       1 GDP201      0.0000 
     22 C6         16.7310   23.5710   33.0830 C.2       1 GDP201      0.0000 
     23 O6         17.2170   22.8970   32.1930 O.2       1 GDP201      0.0000 
     24 N1         16.3480   22.9110   34.2780 N.am      1 GDP201      0.0000 
     25 C2         15.7620   23.5580   35.4180 C.2       1 GDP201      0.0000 
     26 N2         15.4370   22.8380   36.4780 N.pl3     1 GDP201      0.0000 
     27 N3         15.5520   24.8970   35.4300 N.2       1 GDP201      0.0000 
     28 C4         15.9240   25.5540   34.2540 C.2       1 GDP201      0.0000 
     29 H          12.8459   30.1459   32.8626 H         1 GDP201      0.0000 
     30 H          13.5940   31.6119   33.5191 H         1 GDP201      0.0000 
     31 H          13.0517   30.0547   35.3004 H         1 GDP201      0.0000 
     32 H          15.5379   31.1407   35.0117 H         1 GDP201      0.0000 
     33 H          16.6239   29.3037   34.2363 H         1 GDP201      0.0000 
     34 H          15.0795   27.4227   35.9447 H         1 GDP201      0.0000 
     35 H          16.3427   27.9686   32.3151 H         1 GDP201      0.0000 
     36 H          16.5011   21.8735   34.3409 H         1 GDP201      0.0000 
     37 H          15.0235   23.3375   37.2393 H         1 GDP201      0.0000 
     38 H          15.6342   21.8592   36.4224 H         1 GDP201      0.0000 
     39 H          15.5050   30.0269   37.3642 H         1 GDP201      0.0000 
     40 H          17.9273   29.4798   35.9607 H         1 GDP201      0.0000 
@<TRIPOS>BOND
     1    2    1 ar   
     2    3    1 ar   
     3    4    1 ar   
     4    5    1 1    
     5    6    5 1    
     6    7    6 ar   
     7    8    6 ar   
     8    9    6 1    
     9   10    9 1    
    10   11   10 1    
    11   29   10 1    
    12   30   10 1    
    13   12   11 1    
    14   13   11 1    
    15   31   11 1    
    16   17   12 1    
    17   14   13 1    
    18   15   13 1    
    19   32   13 1    
    20   39   14 1    
    21   16   15 1    
    22   17   15 1    
    23   33   15 1    
    24   40   16 1    
    25   18   17 1    
    26   34   17 1    
    27   19   18 1    
    28   28   18 1    
    29   20   19 2    
    30   35   19 1    
    31   21   20 1    
    32   22   21 1    
    33   28   21 2    
    34   23   22 2    
    35   24   22 am   
    36   25   24 1    
    37   36   24 1    
    38   26   25 1    
    39   27   25 2    
    40   37   26 1    
    41   38   26 1    
    42   28   27 1    
@<TRIPOS>SUBSTRUCTURE
     1 GDP201      1 GROUP   
@<TRIPOS>SET

