#    Name: 3ed1_GA3_3_INTS_M
#    Modification time : Tue Mar 25 01:29:28 2014

@<TRIPOS>MOLECULE
3ed1_GA3_3_INTS_M
   47     0     9     0     0
SMALL
NO_CHARGES


@<TRIPOS>ATOM
      1 N          -6.1475   56.4045  -14.4855 N.am      2 SEC2        0.0000 
      2 N          -5.8370   54.9460  -14.1790 N.am      8 SEL2        0.0000 
      3 N          -6.4580   57.8630  -14.7920 N.am      5 SEP2        0.0000 
      4 N          -6.1540   54.6035  -12.8575 N.am      2 SEC2        0.0000 
      5 N          -6.4710   54.2610  -11.5360 N.am      5 SEP2        0.0000 
      6 N          -7.9450   54.1825  -14.3845 N.am      2 SEC2        0.0000 
      7 N          -6.9810   53.1050  -14.4760 N.am      8 SEL2        0.0000 
      8 N          -8.9090   55.2600  -14.2930 N.am      5 SEP2        0.0000 
      9 O          -3.4240   49.5185  -11.2885 O.2       1 ALC1        0.0000 
     10 O          -2.8380   49.4690  -12.7500 O.2       7 ALL1        0.0000 
     11 O          -4.0100   49.5680   -9.8270 O.2       4 ALP1        0.0000 
     12 CA          0.4865   49.8490  -14.6440 C.3       3 GLC5        0.0000 
     13 CA         -1.4980   50.5050  -14.4740 C.3       9 GLL5        0.0000 
     14 CA          2.4710   49.1930  -14.8140 C.3       6 GLP5        0.0000 
     15 CA         -1.2740   50.5330  -17.4155 C.3       3 GLC5        0.0000 
     16 CA         -1.7730   51.2590  -15.7920 C.3       9 GLL5        0.0000 
     17 CA         -0.7750   49.8070  -19.0390 C.3       6 GLP5        0.0000 
     18 CA         -1.3545   54.3085  -14.6440 C.3       3 GLC5        0.0000 
     19 CA         -2.4630   52.6070  -15.5120 C.3       9 GLL5        0.0000 
     20 CA         -0.2460   56.0100  -13.7760 C.3       6 GLP5        0.0000 
     21 CA         -1.0545   55.1260  -15.5760 C.3       3 GLC5        0.0000 
     22 CA         -1.8630   54.2420  -17.3760 C.3       9 GLL5        0.0000 
     23 CA         -4.8555   57.4145  -18.9250 C.3       3 GLC5        0.0000 
     24 CA         -3.7670   55.5340  -18.4140 C.3       9 GLL5        0.0000 
     25 CA         -5.9440   59.2950  -19.4360 C.3       6 GLP5        0.0000 
     26 CA         -3.9100   55.5865  -20.4585 C.3       3 GLC5        0.0000 
     27 CA         -4.0530   55.6390  -22.5030 C.3       6 GLP5        0.0000 
     28 O          -5.0605   57.4645  -18.2535 O.2       1 ALC1        0.0000 
     29 O          -3.9950   56.8010  -17.7630 O.2       7 ALL1        0.0000 
     30 O          -6.1260   58.1280  -18.7440 O.2       4 ALP1        0.0000 
     31 CA         -7.7925   55.1235  -16.7380 C.3       3 GLC5        0.0000 
     32 CA         -6.1740   54.8650  -17.8580 C.3       9 GLL5        0.0000 
     33 CA         -9.4110   55.3820  -15.6180 C.3       6 GLP5        0.0000 
     34 CA         -2.8310   52.4950  -10.4010 C.3       3 GLC5        0.0000 
     35 CA         -2.6220   51.8890  -12.7180 C.3       9 GLL5        0.0000 
     36 CA         -3.3910   53.0640   -8.6430 C.3       6 GLP5        0.0000 
     37 CA         -1.1331   53.6345  -12.5860 C.3       3 GLC5        0.0000 
     38 CA         -1.9200   51.9630  -11.6000 C.3       9 GLL5        0.0000 
     39 CA          0.2020   55.0500  -12.8730 C.3       6 GLP5        0.0000 
     40 CA         -4.3042   49.1183  -14.3955 C.3       3 GLC5        0.0000 
     41 CA         -2.7170   50.6480  -13.5480 C.3       9 GLL5        0.0000 
     42 CA         -5.2510   47.4130  -14.8520 C.3       6 GLP5        0.0000 
     43 CA         -0.2632   54.8852  -17.9185 C.3       3 GLC5        0.0000 
     44 CA          1.5490   55.0310  -18.0590 C.3       6 GLP5        0.0000 
     45 CA         -2.6627   56.8892  -19.4455 C.3       3 GLC5        0.0000 
     46 CA         -2.2880   55.2370  -18.1800 C.3       9 GLL5        0.0000 
     47 CA         -2.2980   58.3930  -20.5940 C.3       6 GLP5        0.0000 
@<TRIPOS>BOND
@<TRIPOS>SUBSTRUCTURE
     1 ALC1        9 GROUP        1 X    ALC  0     ROOT ALC X 1
     2 SEC2        1 GROUP        1 X    SEC  0     **** SEC X 2
     3 GLC5       12 GROUP        1 X    GLC  0     **** GLC X 6
     4 ALP1       11 GROUP        1 Y    ALP  0     ROOT ALP Y 8
     5 SEP2        3 GROUP        1 Y    SEP  0     **** SEP Y 9
     6 GLP5       14 GROUP        1 Y    GLP  0     **** GLP Y 13
     7 ALL1       10 GROUP        1 Z    ALL  0     ROOT ALL Z 15
     8 SEL2        2 GROUP        1 Z    SEL  0     **** SEL Z 16
     9 GLL5       13 GROUP        1 Z    GLL  0     **** GLL Z 20
@<TRIPOS>SET

