#    Name: 3ed1_GA3_3_ligand
#    Modification time : Tue Mar 25 01:29:28 2014

@<TRIPOS>MOLECULE
3ed1_GA3_3_ligand
   44    48     1     0     0
SMALL
NO_CHARGES


@<TRIPOS>ATOM
      1 O71        -5.8370   54.9460  -14.1790 O.co2     1 GA3401      0.0000 
      2 C7         -5.9550   53.8010  -14.6460 C.2       1 GA3401      0.0000 
      3 O72        -6.9810   53.1050  -14.4760 O.co2     1 GA3401      0.0000 
      4 C6         -4.8380   53.1800  -15.4480 C.3       1 GA3401      0.0000 
      5 C5         -4.1240   54.1500  -16.3910 C.3       1 GA3401      0.0000 
      6 C8         -3.7390   52.4740  -14.6450 C.3       1 GA3401      0.0000 
      7 C15        -3.4110   53.0610  -13.2780 C.3       1 GA3401      0.0000 
      8 C16        -2.6220   51.8890  -12.7180 C.2       1 GA3401      0.0000 
      9 C17        -1.9200   51.9630  -11.6000 C.2       1 GA3401      0.0000 
     10 C13        -2.7170   50.6480  -13.5480 C.3       1 GA3401      0.0000 
     11 C14        -3.9980   50.9990  -14.3300 C.3       1 GA3401      0.0000 
     12 O13        -2.8380   49.4690  -12.7500 O.3       1 GA3401      0.0000 
     13 C12        -1.4980   50.5050  -14.4740 C.3       1 GA3401      0.0000 
     14 C11        -1.7730   51.2590  -15.7920 C.3       1 GA3401      0.0000 
     15 C9         -2.4630   52.6070  -15.5120 C.3       1 GA3401      0.0000 
     16 C10        -2.8970   53.3300  -16.7600 C.3       1 GA3401      0.0000 
     17 O92        -3.3970   52.4560  -17.8030 O.3       1 GA3401      0.0000 
     18 C1         -1.8630   54.2420  -17.3760 C.2       1 GA3401      0.0000 
     19 C2         -2.2880   55.2370  -18.1800 C.2       1 GA3401      0.0000 
     20 C3         -3.7670   55.5340  -18.4140 C.3       1 GA3401      0.0000 
     21 O31        -3.9950   56.8010  -17.7630 O.3       1 GA3401      0.0000 
     22 C4         -4.6840   54.4630  -17.7910 C.3       1 GA3401      0.0000 
     23 C18        -6.1740   54.8650  -17.8580 C.3       1 GA3401      0.0000 
     24 C19        -4.4480   53.1460  -18.4760 C.2       1 GA3401      0.0000 
     25 O91        -5.0350   52.7010  -19.4500 O.2       1 GA3401      0.0000 
     26 H          -5.2770   52.3904  -16.1158 H         1 GA3401      0.0000 
     27 H          -3.7842   55.0012  -15.9054 H         1 GA3401      0.0000 
     28 H          -4.2859   53.1998  -12.7300 H         1 GA3401      0.0000 
     29 H          -2.7923   53.8921  -13.3857 H         1 GA3401      0.0000 
     30 H          -4.0330   50.4429  -15.2157 H         1 GA3401      0.0000 
     31 H          -4.8300   50.9061  -13.7023 H         1 GA3401      0.0000 
     32 H          -1.3321   49.4612  -14.6903 H         1 GA3401      0.0000 
     33 H          -0.6311   50.9326  -13.9948 H         1 GA3401      0.0000 
     34 H          -2.4159   50.6522  -16.4208 H         1 GA3401      0.0000 
     35 H          -0.8322   51.4381  -16.3017 H         1 GA3401      0.0000 
     36 H          -1.7774   53.2553  -14.9663 H         1 GA3401      0.0000 
     37 H          -0.9029   54.0506  -17.1467 H         1 GA3401      0.0000 
     38 H          -1.6442   55.8658  -18.6922 H         1 GA3401      0.0000 
     39 H          -3.9470   55.6027  -19.4561 H         1 GA3401      0.0000 
     40 H          -6.3617   55.6862  -17.3191 H         1 GA3401      0.0000 
     41 H          -6.4652   55.0566  -18.7953 H         1 GA3401      0.0000 
     42 H          -6.7698   54.1422  -17.5079 H         1 GA3401      0.0000 
     43 H          -3.4445   49.7268  -11.9979 H         1 GA3401      0.0000 
     44 H          -4.8164   57.1708  -18.1972 H         1 GA3401      0.0000 
@<TRIPOS>BOND
     1    2    1 ar   
     2    3    2 ar   
     3    4    2 1    
     4    5    4 1    
     5    6    4 1    
     6   26    4 1    
     7   16    5 1    
     8   22    5 1    
     9   27    5 1    
    10    7    6 1    
    11   11    6 1    
    12   15    6 1    
    13    8    7 1    
    14   28    7 1    
    15   29    7 1    
    16    9    8 2    
    17   10    8 1    
    18   11   10 1    
    19   12   10 1    
    20   13   10 1    
    21   30   11 1    
    22   31   11 1    
    23   43   12 1    
    24   14   13 1    
    25   32   13 1    
    26   33   13 1    
    27   15   14 1    
    28   34   14 1    
    29   35   14 1    
    30   16   15 1    
    31   36   15 1    
    32   17   16 1    
    33   18   16 1    
    34   24   17 1    
    35   19   18 2    
    36   37   18 1    
    37   20   19 1    
    38   38   19 1    
    39   21   20 1    
    40   22   20 1    
    41   39   20 1    
    42   44   21 1    
    43   23   22 1    
    44   24   22 1    
    45   40   23 1    
    46   41   23 1    
    47   42   23 1    
    48   25   24 2    
@<TRIPOS>SUBSTRUCTURE
     1 GA3401      1 GROUP   
@<TRIPOS>SET

