#    Name: 4IIY_2_CAVITY_N1_6.mol2
#    Modification time : Tue Mar 11 05:33:59 2014

@<TRIPOS>MOLECULE
4IIY_2_CAVITY_N1_6.mol2
  117     0     7     0     0
SMALL
NO_CHARGES


@<TRIPOS>ATOM
      1 CA         33.8400   50.2638   39.2981 C.3       6 GLY6        0.0000 
      2 CZ         38.8770   55.0963   49.1736 C.ar      5 PHE5        0.0000 
      3 N          37.5142   55.4199   49.7104 N.2       2 ALA2        0.0000 
      4 OD1        36.1514   55.7435   50.2471 O.3       3 ASP3        0.0000 
      5 CZ         38.2508   54.3358   48.0424 C.ar      5 PHE5        0.0000 
      6 NZ         36.8881   54.6594   48.5792 N.2       4 LYS4        0.0000 
      7 NZ         35.5253   54.9830   49.1159 N.2       4 LYS4        0.0000 
      8 CA         41.7131   52.6045   45.3010 C.3       6 GLY6        0.0000 
      9 CZ         40.3503   52.9281   45.8378 C.ar      5 PHE5        0.0000 
     10 CZ         38.9875   53.2517   46.3745 C.ar      5 PHE5        0.0000 
     11 NZ         37.6247   53.5753   46.9113 N.2       4 LYS4        0.0000 
     12 CA         41.0870   51.8439   44.1699 C.3       6 GLY6        0.0000 
     13 DU         39.7242   52.1675   44.7066 H         7 CUB7        0.0000 
     14 DU         38.3614   52.4911   45.2433 H         7 CUB7        0.0000 
     15 NZ         36.9986   52.8147   45.7801 N.2       4 LYS4        0.0000 
     16 CA         41.8237   50.7598   42.5019 C.3       6 GLY6        0.0000 
     17 DU         40.4609   51.0834   43.0387 H         7 CUB7        0.0000 
     18 DU         39.0981   51.4070   43.5754 H         7 CUB7        0.0000 
     19 NZ         37.7353   51.7306   44.1121 N.2       4 LYS4        0.0000 
     20 CA         42.5604   49.6757   40.8340 C.3       6 GLY6        0.0000 
     21 O          41.1976   49.9993   41.3707 O.2       2 ALA2        0.0000 
     22 DU         39.8348   50.3229   41.9075 H         7 CUB7        0.0000 
     23 DU         38.4720   50.6465   42.4442 H         7 CUB7        0.0000 
     24 OG         37.1092   50.9701   42.9810 O.2       1 SER1        0.0000 
     25 OG         35.7464   51.2937   43.5177 O.2       1 SER1        0.0000 
     26 N          40.5715   49.2387   40.2396 N.2       2 ALA2        0.0000 
     27 DU         39.2087   49.5623   40.7763 H         7 CUB7        0.0000 
     28 DU         37.8459   49.8859   41.3130 H         7 CUB7        0.0000 
     29 OG         36.4831   50.2095   41.8498 O.2       1 SER1        0.0000 
     30 DU         37.2198   49.1254   40.1819 H         7 CUB7        0.0000 
     31 OG         35.8570   49.4490   40.7186 O.2       1 SER1        0.0000 
     32 N          34.4942   49.7726   41.2553 N.2       2 ALA2        0.0000 
     33 N          39.3192   47.7177   37.9772 N.2       2 ALA2        0.0000 
     34 OD1        36.5937   48.3649   39.0507 O.3       3 ASP3        0.0000 
     35 OD1        35.2309   48.6885   39.5874 O.3       3 ASP3        0.0000 
     36 OD1        35.9675   47.6043   37.9195 O.3       3 ASP3        0.0000 
     37 CA         39.6417   52.7604   48.3317 C.3       6 GLY6        0.0000 
     38 N          38.2789   53.0840   48.8685 N.2       2 ALA2        0.0000 
     39 N          36.9162   53.4076   49.4052 N.2       2 ALA2        0.0000 
     40 CA         41.7412   51.3527   46.1271 C.3       6 GLY6        0.0000 
     41 CA         40.3784   51.6763   46.6638 C.3       6 GLY6        0.0000 
     42 CA         39.0156   51.9999   47.2005 C.3       6 GLY6        0.0000 
     43 NZ         37.6528   52.3235   47.7373 N.2       4 LYS4        0.0000 
     44 CA         41.1151   50.5922   44.9959 C.3       6 GLY6        0.0000 
     45 DU         39.7523   50.9158   45.5326 H         7 CUB7        0.0000 
     46 CA         38.3895   51.2394   46.0694 C.3       6 GLY6        0.0000 
     47 NZ         37.0267   51.5630   46.6061 N.2       4 LYS4        0.0000 
     48 CA         41.8518   49.5081   43.3280 C.3       6 GLY6        0.0000 
     49 DU         40.4890   49.8317   43.8647 H         7 CUB7        0.0000 
     50 CA         39.1262   50.1552   44.4014 C.3       6 GLY6        0.0000 
     51 CA         37.7634   50.4788   44.9382 C.3       6 GLY6        0.0000 
     52 O          41.2257   48.7475   42.1968 O.2       2 ALA2        0.0000 
     53 DU         39.8629   49.0711   42.7335 H         7 CUB7        0.0000 
     54 N          38.5001   49.3947   43.2703 N.2       2 ALA2        0.0000 
     55 CA         37.1373   49.7183   43.8070 C.3       6 GLY6        0.0000 
     56 N          40.5996   47.9870   41.0656 N.2       2 ALA2        0.0000 
     57 N          39.2368   48.3106   41.6023 N.2       2 ALA2        0.0000 
     58 N          37.8740   48.6342   42.1391 N.2       2 ALA2        0.0000 
     59 OG         36.5112   48.9578   42.6758 O.2       1 SER1        0.0000 
     60 N          38.6107   47.5501   40.4711 N.2       2 ALA2        0.0000 
     61 DU         37.2479   47.8737   41.0079 H         7 CUB7        0.0000 
     62 OG         35.8851   48.1973   41.5446 O.2       1 SER1        0.0000 
     63 N          37.9846   46.7895   39.3400 N.2       2 ALA2        0.0000 
     64 OD1        36.6218   47.1131   39.8767 O.3       3 ASP3        0.0000 
     65 N          35.2590   47.4367   40.4134 N.2       2 ALA2        0.0000 
     66 NZ         38.7212   45.7054   37.6720 N.2       4 LYS4        0.0000 
     67 O          37.3584   46.0290   38.2088 O.2       2 ALA2        0.0000 
     68 OD1        35.9957   46.3526   38.7455 O.3       3 ASP3        0.0000 
     69 NZ         38.0951   44.9449   36.5409 N.2       4 LYS4        0.0000 
     70 O          36.7323   45.2685   37.0776 O.2       2 ALA2        0.0000 
     71 N          37.6809   51.0718   48.5633 N.2       2 ALA2        0.0000 
     72 OG         41.1432   49.3404   45.8219 O.2       1 SER1        0.0000 
     73 OG         39.7804   49.6640   46.3587 O.2       1 SER1        0.0000 
     74 CA         38.4176   49.9876   46.8954 C.3       6 GLY6        0.0000 
     75 O          41.8799   48.2563   44.1540 O.2       2 ALA2        0.0000 
     76 CA         40.5171   48.5799   44.6907 C.3       6 GLY6        0.0000 
     77 CA         39.1543   48.9035   45.2275 C.3       6 GLY6        0.0000 
     78 O          41.2538   47.4958   43.0228 O.2       2 ALA2        0.0000 
     79 CA         39.8910   47.8194   43.5595 C.3       6 GLY6        0.0000 
     80 O          40.6277   46.7352   41.8916 O.2       2 ALA2        0.0000 
     81 CA         39.2649   47.0588   42.4284 C.3       6 GLY6        0.0000 
     82 N          38.6388   46.2983   41.2972 N.2       2 ALA2        0.0000 
     83 N          37.2760   46.6219   41.8339 N.2       2 ALA2        0.0000 
     84 CA         35.9132   46.9455   42.3707 C.3       6 GLY6        0.0000 
     85 N          38.0127   45.5378   40.1660 N.2       2 ALA2        0.0000 
     86 N          36.6499   45.8614   40.7027 N.2       2 ALA2        0.0000 
     87 N          35.2871   46.1850   41.2395 N.2       2 ALA2        0.0000 
     88 N          38.7493   44.4537   38.4981 N.2       2 ALA2        0.0000 
     89 O          37.3866   44.7772   39.0348 O.2       2 ALA2        0.0000 
     90 OD1        36.0238   45.1008   39.5715 O.3       3 ASP3        0.0000 
     91 O          38.6669   45.0466   42.1232 O.2       2 ALA2        0.0000 
     92 O          37.3041   45.3702   42.6600 O.2       2 ALA2        0.0000 
     93 OG         38.0408   44.2860   40.9920 O.2       1 SER1        0.0000 
     94 N          36.6780   44.6096   41.5288 N.2       2 ALA2        0.0000 
     95 CA         39.5293   57.7674   45.0276 C.3       6 GLY6        0.0000 
     96 OG         37.5404   57.3305   44.4332 O.2       1 SER1        0.0000 
     97 CZ         38.1946   56.8393   46.3904 C.ar      5 PHE5        0.0000 
     98 OG         36.8318   57.1629   46.9271 O.2       1 SER1        0.0000 
     99 CZ         38.9313   55.7552   44.7224 C.ar      5 PHE5        0.0000 
    100 O          37.5685   56.0788   45.2592 O.2       2 ALA2        0.0000 
    101 O          38.3052   54.9946   43.5913 O.2       2 ALA2        0.0000 
    102 CZ         37.4861   56.6717   48.8843 C.ar      5 PHE5        0.0000 
    103 CZ         38.2227   55.5875   47.2164 C.ar      5 PHE5        0.0000 
    104 NZ         36.8599   55.9111   47.7531 N.2       4 LYS4        0.0000 
    105 N          35.4972   56.2347   48.2899 N.2       2 ALA2        0.0000 
    106 CZ         41.6850   53.8562   44.4750 C.ar      5 PHE5        0.0000 
    107 CZ         40.3222   54.1798   45.0117 C.ar      5 PHE5        0.0000 
    108 CZ         38.9594   54.5034   45.5485 C.ar      5 PHE5        0.0000 
    109 O          37.5966   54.8270   46.0852 O.2       2 ALA2        0.0000 
    110 NZ         36.2338   55.1506   46.6220 N.2       4 LYS4        0.0000 
    111 DU         39.6961   53.4193   43.8806 H         7 CUB7        0.0000 
    112 O          38.3333   53.7429   44.4173 O.2       2 ALA2        0.0000 
    113 O          36.9705   54.0665   44.9540 O.2       2 ALA2        0.0000 
    114 DU         39.0700   52.6588   42.7494 H         7 CUB7        0.0000 
    115 O          37.7072   52.9823   43.2861 O.2       2 ALA2        0.0000 
    116 DU         38.4439   51.8982   41.6182 H         7 CUB7        0.0000 
    117 CA         34.4661   51.0243   40.4293 C.3       6 GLY6        0.0000 
@<TRIPOS>BOND
@<TRIPOS>SUBSTRUCTURE
     1 SER1       24 GROUP   
     2 ALA2        3 GROUP   
     3 ASP3        4 GROUP   
     4 LYS4        6 GROUP   
     5 PHE5        2 GROUP   
     6 GLY6        1 GROUP   
     7 CUB7       13 GROUP   
@<TRIPOS>SET

