#    Name: 4iiy_1EI_2_INTS_M
#    Modification time : Tue Mar 25 04:04:50 2014

@<TRIPOS>MOLECULE
4iiy_1EI_2_INTS_M
   49     0    12     0     0
SMALL
NO_CHARGES


@<TRIPOS>ATOM
      1 CA         40.2645   54.4140   46.7725 C.3       4 GLC5        0.0000 
      2 CA         39.1560   53.5270   45.6680 C.3      12 GLL5        0.0000 
      3 CA         41.3730   55.3010   47.8770 C.3       8 GLP5        0.0000 
      4 N          35.8650   54.3240   44.3830 N.am      2 SEC2        0.0000 
      5 N          36.8020   53.4310   45.1570 N.am     10 SEL2        0.0000 
      6 N          34.9280   55.2170   43.6090 N.am      6 SEP2        0.0000 
      7 N          35.6940   53.1690   46.0700 N.am      2 SEC2        0.0000 
      8 N          34.5860   52.9070   46.9830 N.am      6 SEP2        0.0000 
      9 N          35.8245   52.0625   46.6920 N.am      2 SEC2        0.0000 
     10 N          37.0630   51.2180   46.4010 N.am     10 SEL2        0.0000 
     11 O          35.7570   51.1475   46.0945 O.2       1 ALC1        0.0000 
     12 O          37.0630   51.2180   46.4010 O.2       9 ALL1        0.0000 
     13 O          34.4510   51.0770   45.7880 O.2       5 ALP1        0.0000 
     14 CA         42.4120   50.2730   45.4320 C.3       4 GLC5        0.0000 
     15 CA         40.2780   50.1260   45.7210 C.3      12 GLL5        0.0000 
     16 CA         44.5460   50.4200   45.1430 C.3       8 GLP5        0.0000 
     17 CA         40.1110   48.8365   47.4305 C.3       4 GLC5        0.0000 
     18 CA         39.9440   47.5470   49.1400 C.3       8 GLP5        0.0000 
     19 N          43.1355   47.7840   44.4430 N.am      2 SEC2        0.0000 
     20 N          41.7520   48.1940   44.5450 N.am     10 SEL2        0.0000 
     21 N          44.5190   47.3740   44.3410 N.am      6 SEP2        0.0000 
     22 N          42.0170   46.7180   41.5885 N.am      2 SEC2        0.0000 
     23 N          40.7540   46.4150   42.1170 N.am     10 SEL2        0.0000 
     24 N          43.2800   47.0210   41.0600 N.am      6 SEP2        0.0000 
     25 N          40.8130   44.9620   42.5300 N.am      2 SEC2        0.0000 
     26 N          40.8720   43.5090   42.9430 N.am      6 SEP2        0.0000 
     27 CA         39.1480   45.9335   43.3950 C.3       4 GLC5        0.0000 
     28 CA         38.4660   46.7450   41.8690 C.3      12 GLL5        0.0000 
     29 CA         39.8300   45.1220   44.9210 C.3       8 GLP5        0.0000 
     30 O          37.2635   47.4545   43.5820 O.2       1 ALC1        0.0000 
     31 O          37.4780   47.7830   42.1060 O.2       9 ALL1        0.0000 
     32 O          37.0490   47.1260   45.0580 O.2       5 ALP1        0.0000 
     33 NZ         34.7315   46.5830   39.1230 N.4       3 LYC4        0.0000 
     34 NZ         35.8430   46.7090   40.4170 N.4      11 LYL4        0.0000 
     35 NZ         33.6200   46.4570   37.8290 N.4       7 LYP4        0.0000 
     36 N          34.7315   46.5830   39.1230 N.am      2 SEC2        0.0000 
     37 N          35.8430   46.7090   40.4170 N.am     10 SEL2        0.0000 
     38 N          33.6200   46.4570   37.8290 N.am      6 SEP2        0.0000 
     39 NZ         34.5075   45.6440   38.6065 N.4       3 LYC4        0.0000 
     40 NZ         35.3950   44.8310   39.3840 N.4      11 LYL4        0.0000 
     41 N          35.2630   44.0775   38.1380 N.am      2 SEC2        0.0000 
     42 N          35.3950   44.8310   39.3840 N.am     10 SEL2        0.0000 
     43 N          35.1310   43.3240   36.8920 N.am      6 SEP2        0.0000 
     44 N          34.5075   45.6440   38.6065 N.am      2 SEC2        0.0000 
     45 CA         40.9412   51.0392   47.6210 C.3       4 GLC5        0.0000 
     46 CA         39.4410   51.3030   46.2050 C.3      12 GLL5        0.0000 
     47 CA         42.0230   51.3640   49.2790 C.3       8 GLP5        0.0000 
     48 CA         38.0876   49.4752   45.7882 C.3       4 GLC5        0.0000 
     49 CA         36.6460   48.2110   45.7990 C.3       8 GLP5        0.0000 
@<TRIPOS>BOND
@<TRIPOS>SUBSTRUCTURE
     1 ALC1       11 GROUP        1 X    ALC  0     ROOT ALC X 1
     2 SEC2        4 GROUP        1 X    SEC  0     **** SEC X 2
     3 LYC4       33 GROUP        1 X    LYC  0     **** LYC X 4
     4 GLC5        1 GROUP        1 X    GLC  0     **** GLC X 6
     5 ALP1       13 GROUP        1 Y    ALP  0     ROOT ALP Y 8
     6 SEP2        6 GROUP        1 Y    SEP  0     **** SEP Y 9
     7 LYP4       35 GROUP        1 Y    LYP  0     **** LYP Y 11
     8 GLP5        3 GROUP        1 Y    GLP  0     **** GLP Y 13
     9 ALL1       12 GROUP        1 Z    ALL  0     ROOT ALL Z 15
    10 SEL2        5 GROUP        1 Z    SEL  0     **** SEL Z 16
    11 LYL4       34 GROUP        1 Z    LYL  0     **** LYL Z 18
    12 GLL5        2 GROUP        1 Z    GLL  0     **** GLL Z 20
@<TRIPOS>SET

