#    Name: 4iiy_1EI_2_ligand
#    Modification time : Tue Mar 25 04:04:50 2014

@<TRIPOS>MOLECULE
4iiy_1EI_2_ligand
   52    54     1     0     0
SMALL
NO_CHARGES


@<TRIPOS>ATOM
      1 O6         40.4860   58.6330   42.7830 O.2       1 1EI401      0.0000 
      2 C6         39.8440   57.9690   43.6260 C.2       1 1EI401      0.0000 
      3 N1         38.9020   58.5430   44.4020 N.am      1 1EI401      0.0000 
      4 C2         38.2070   57.8430   45.3150 C.2       1 1EI401      0.0000 
      5 N3         38.3920   56.5300   45.5320 N.2       1 1EI401      0.0000 
      6 C5         40.1050   56.5290   43.8020 C.2       1 1EI401      0.0000 
      7 C4         39.3090   55.8440   44.8170 C.2       1 1EI401      0.0000 
      8 N7         40.9280   55.6050   43.2660 N.2       1 1EI401      0.0000 
      9 C8         40.6780   54.4250   43.8820 C.2       1 1EI401      0.0000 
     10 N9         39.7120   54.5790   44.8010 N.pl3     1 1EI401      0.0000 
     11 C1'        39.1560   53.5270   45.6680 C.3       1 1EI401      0.0000 
     12 O4'        40.1220   52.5360   45.9870 O.3       1 1EI401      0.0000 
     13 C2'        38.0620   52.8080   44.9070 C.3       1 1EI401      0.0000 
     14 O2'        36.8020   53.4310   45.1570 O.3       1 1EI401      0.0000 
     15 C3'        38.1200   51.4030   45.4630 C.3       1 1EI401      0.0000 
     16 O3'        37.0630   51.2180   46.4010 O.3       1 1EI401      0.0000 
     17 C4'        39.4410   51.3030   46.2050 C.3       1 1EI401      0.0000 
     18 C5'        40.2780   50.1260   45.7210 C.3       1 1EI401      0.0000 
     19 O5'        40.6260   50.2810   44.3420 O.3       1 1EI401      0.0000 
     20 SBF        41.1280   49.0520   43.5730 S.o2      1 1EI401      0.0000 
     21 OAE        42.0580   49.4930   42.5560 O.2       1 1EI401      0.0000 
     22 OAF        41.7520   48.1940   44.5450 O.2       1 1EI401      0.0000 
     23 NAQ        39.8730   48.3720   42.9740 N.pl3     1 1EI401      0.0000 
     24 C          39.8250   47.1850   42.3330 C.2       1 1EI401      0.0000 
     25 O          40.7540   46.4150   42.1170 O.2       1 1EI401      0.0000 
     26 CA         38.4660   46.7450   41.8690 C.3       1 1EI401      0.0000 
     27 N          37.4780   47.7830   42.1060 N.4       1 1EI401      0.0000 
     28 CB         38.5250   46.3550   40.3960 C.3       1 1EI401      0.0000 
     29 CG         37.6240   45.1580   40.1060 C.3       1 1EI401      0.0000 
     30 CD         36.1850   45.5990   39.9600 C.2       1 1EI401      0.0000 
     31 OE1        35.8430   46.7090   40.4170 O.co2     1 1EI401      0.0000 
     32 OE2        35.3950   44.8310   39.3840 O.co2     1 1EI401      0.0000 
     33 H          38.7057   59.5751   44.2872 H         1 1EI401      0.0000 
     34 H          37.4736   58.3544   45.8948 H         1 1EI401      0.0000 
     35 H          41.1381   53.5866   43.6814 H         1 1EI401      0.0000 
     36 H          38.7187   53.9511   46.5446 H         1 1EI401      0.0000 
     37 H          38.3309   52.7826   43.8830 H         1 1EI401      0.0000 
     38 H          38.1103   50.7086   44.6768 H         1 1EI401      0.0000 
     39 H          39.2232   51.1700   47.2551 H         1 1EI401      0.0000 
     40 H          39.6955   49.2071   45.8895 H         1 1EI401      0.0000 
     41 H          41.1733   50.0650   46.3588 H         1 1EI401      0.0000 
     42 H          38.9981   48.9569   43.1202 H         1 1EI401      0.0000 
     43 H          38.1972   45.8430   42.4325 H         1 1EI401      0.0000 
     44 H          39.5528   46.1034   40.1312 H         1 1EI401      0.0000 
     45 H          38.2052   47.2012   39.7865 H         1 1EI401      0.0000 
     46 H          37.7067   44.4434   40.9244 H         1 1EI401      0.0000 
     47 H          37.9550   44.6778   39.1856 H         1 1EI401      0.0000 
     48 H          37.0546   47.6938   43.0076 H         1 1EI401      0.0000 
     49 H          37.8813   48.6969   42.0606 H         1 1EI401      0.0000 
     50 H          36.7402   47.7544   41.4316 H         1 1EI401      0.0000 
     51 H          36.9950   54.1432   45.8319 H         1 1EI401      0.0000 
     52 H          36.2885   50.8945   45.8575 H         1 1EI401      0.0000 
@<TRIPOS>BOND
     1    2    1 2    
     2    3    2 am   
     3    6    2 1    
     4    4    3 1    
     5   33    3 1    
     6    5    4 2    
     7   34    4 1    
     8    7    5 1    
     9    7    6 2    
    10    8    6 1    
    11   10    7 1    
    12    9    8 2    
    13   10    9 1    
    14   35    9 1    
    15   11   10 1    
    16   12   11 1    
    17   13   11 1    
    18   36   11 1    
    19   17   12 1    
    20   14   13 1    
    21   15   13 1    
    22   37   13 1    
    23   51   14 1    
    24   16   15 1    
    25   17   15 1    
    26   38   15 1    
    27   52   16 1    
    28   18   17 1    
    29   39   17 1    
    30   19   18 1    
    31   40   18 1    
    32   41   18 1    
    33   20   19 1    
    34   21   20 2    
    35   22   20 2    
    36   23   20 1    
    37   24   23 am   
    38   42   23 1    
    39   25   24 2    
    40   26   24 1    
    41   27   26 1    
    42   28   26 1    
    43   43   26 1    
    44   48   27 1    
    45   49   27 1    
    46   50   27 1    
    47   29   28 1    
    48   44   28 1    
    49   45   28 1    
    50   30   29 1    
    51   46   29 1    
    52   47   29 1    
    53   31   30 ar   
    54   32   30 ar   
@<TRIPOS>SUBSTRUCTURE
     1 1EI401      1 GROUP   
@<TRIPOS>SET

