#    Name: 4ajp_0SN_2_INTS_M
#    Modification time : Tue Mar 25 05:39:49 2014

@<TRIPOS>MOLECULE
4ajp_0SN_2_INTS_M
  111     0    12     0     0
SMALL
NO_CHARGES


@<TRIPOS>ATOM
      1 CA        -19.4165    4.6580   32.0520 C.3       4 GLC5        0.0000 
      2 CA        -17.2440    4.7420   32.2400 C.3      12 GLL5        0.0000 
      3 CA        -21.5890    4.5740   31.8640 C.3       8 GLP5        0.0000 
      4 CA        -15.6375    1.9920   32.3500 C.3       4 GLC5        0.0000 
      5 CA        -16.4540    3.8820   32.9810 C.3      12 GLL5        0.0000 
      6 CA        -14.8210    0.1020   31.7190 C.3       8 GLP5        0.0000 
      7 CA        -22.8975   12.3730   22.3130 C.3       4 GLC5        0.0000 
      8 CA        -22.8140   11.1680   23.9630 C.3      12 GLL5        0.0000 
      9 CA        -22.9810   13.5780   20.6630 C.3       8 GLP5        0.0000 
     10 CA        -13.9400    2.7670   32.0830 C.3       4 GLC5        0.0000 
     11 CA        -15.1210    4.1690   33.2150 C.3      12 GLL5        0.0000 
     12 CA        -12.7590    1.3650   30.9510 C.3       8 GLP5        0.0000 
     13 CA        -26.5570   12.3915   21.8900 C.3       4 GLC5        0.0000 
     14 CA        -27.9560   12.3160   23.6330 C.3      12 GLL5        0.0000 
     15 CA        -25.1580   12.4670   20.1470 C.3       8 GLP5        0.0000 
     16 CA        -29.1910   11.2970   22.5775 C.3       4 GLC5        0.0000 
     17 CA        -30.4260   10.2780   21.5220 C.3       8 GLP5        0.0000 
     18 CA        -16.8810    8.7605   31.7720 C.3       4 GLC5        0.0000 
     19 CA        -17.5850    6.8540   30.9030 C.3      12 GLL5        0.0000 
     20 CA        -16.1770   10.6670   32.6410 C.3       8 GLP5        0.0000 
     21 CA        -13.7735    1.7590   32.9410 C.3       4 GLC5        0.0000 
     22 CA        -14.2530    3.2560   34.0390 C.3      12 GLL5        0.0000 
     23 CA        -13.2940    0.2620   31.8430 C.3       8 GLP5        0.0000 
     24 CA        -19.2940    7.9965   23.5695 C.3       4 GLC5        0.0000 
     25 CA        -18.5850    9.7530   24.5700 C.3      12 GLL5        0.0000 
     26 CA        -20.0030    6.2400   22.5690 C.3       8 GLP5        0.0000 
     27 CA        -15.5405    5.9550   29.4005 C.3       4 GLC5        0.0000 
     28 CA        -17.0720    7.2560   29.5300 C.3      12 GLL5        0.0000 
     29 CA        -14.0090    4.6540   29.2710 C.3       8 GLP5        0.0000 
     30 CA        -12.5140    4.5440   36.9835 C.3       4 GLC5        0.0000 
     31 CA        -13.6380    3.9700   35.2580 C.3      12 GLL5        0.0000 
     32 CA        -11.3900    5.1180   38.7090 C.3       8 GLP5        0.0000 
     33 CA        -11.6295    4.2800   34.3730 C.3       4 GLC5        0.0000 
     34 CA         -9.6210    4.5900   33.4880 C.3       8 GLP5        0.0000 
     35 O         -20.1655    9.5435   22.2720 O.2       1 ALC1        0.0000 
     36 O         -20.7710    9.8870   23.5590 O.2       9 ALL1        0.0000 
     37 O         -19.5600    9.2000   20.9850 O.2       5 ALP1        0.0000 
     38 O         -18.9290   10.4635   28.0210 O.2       1 ALC1        0.0000 
     39 O         -18.0650    9.8270   26.9810 O.2       9 ALL1        0.0000 
     40 O         -19.7930   11.1000   29.0610 O.2       5 ALP1        0.0000 
     41 N         -21.0995    9.9730   26.8070 N.am      2 SEC2        0.0000 
     42 N         -20.5320   10.5690   25.7120 N.am     10 SEL2        0.0000 
     43 N         -21.6670    9.3770   27.9020 N.am      6 SEP2        0.0000 
     44 N         -16.8490    7.2040   25.9375 N.am      2 SEC2        0.0000 
     45 N         -16.5880    8.1350   26.8980 N.am     10 SEL2        0.0000 
     46 N         -17.1100    6.2730   24.9770 N.am      6 SEP2        0.0000 
     47 NZ        -15.0325    5.1595   38.2335 N.4       3 LYC4        0.0000 
     48 NZ        -14.6470    5.7150   36.5060 N.4      11 LYL4        0.0000 
     49 NZ        -15.4180    4.6040   39.9610 N.4       7 LYP4        0.0000 
     50 N         -14.7530    6.9330   37.2880 N.am      2 SEC2        0.0000 
     51 N         -14.6470    5.7150   36.5060 N.am     10 SEL2        0.0000 
     52 N         -14.8590    8.1510   38.0700 N.am      6 SEP2        0.0000 
     53 NZ        -10.5975    2.1565   36.1775 N.4       3 LYC4        0.0000 
     54 NZ        -11.5900    2.8010   35.4870 N.4      11 LYL4        0.0000 
     55 NZ         -9.9520    0.6960   37.8400 N.4       7 LYP4        0.0000 
     56 N         -10.5975    2.1565   36.1775 N.am      2 SEC2        0.0000 
     57 N         -11.5900    2.8010   35.4870 N.am     10 SEL2        0.0000 
     58 N          -9.6050    1.5120   36.8680 N.am      6 SEP2        0.0000 
     59 N         -11.2910    3.4730   34.4580 N.am      2 SEC2        0.0000 
     60 N         -10.9920    4.1450   33.4290 N.am      6 SEP2        0.0000 
     61 NZ        -14.9980    3.8590   38.0225 N.4       3 LYC4        0.0000 
     62 NZ        -15.6490    3.7220   36.5250 N.4      11 LYL4        0.0000 
     63 N         -16.0755    4.2035   37.8570 N.am      2 SEC2        0.0000 
     64 N         -15.6490    3.7220   36.5250 N.am     10 SEL2        0.0000 
     65 N         -16.5020    4.6850   39.1890 N.am      6 SEP2        0.0000 
     66 N         -14.9980    3.8590   38.0225 N.am      2 SEC2        0.0000 
     67 N         -14.3470    3.9960   39.5200 N.am      6 SEP2        0.0000 
     68 N         -16.7895    4.4485   36.0740 N.am      2 SEC2        0.0000 
     69 N         -17.9300    5.1750   35.6230 N.am      6 SEP2        0.0000 
     70 N         -15.9815    2.7045   37.2050 N.am      2 SEC2        0.0000 
     71 N         -16.3140    1.6870   37.8850 N.am      6 SEP2        0.0000 
     72 NZ        -12.0820    1.7380   37.7855 N.4       3 LYC4        0.0000 
     73 NZ        -13.0110    2.6740   37.1940 N.4      11 LYL4        0.0000 
     74 N         -13.6790    3.3350   38.3570 N.am      2 SEC2        0.0000 
     75 N         -13.0110    2.6740   37.1940 N.am     10 SEL2        0.0000 
     76 N         -12.0820    1.7380   37.7855 N.am      2 SEC2        0.0000 
     77 N         -11.1530    0.8020   38.3770 N.am      6 SEP2        0.0000 
     78 CA        -25.8520   12.5145   26.1565 C.3       4 GLC5        0.0000 
     79 CA        -25.2470   12.5530   24.3370 C.3      12 GLL5        0.0000 
     80 CA        -26.4570   12.4760   27.9760 C.3       8 GLP5        0.0000 
     81 CA        -15.4968    4.9902   30.6240 C.3       4 GLC5        0.0000 
     82 CA        -16.7250    5.9110   31.7140 C.3      12 GLL5        0.0000 
     83 CA        -17.5940    2.6290   31.6668 C.3       4 GLC5        0.0000 
     84 CA        -18.3390    0.9460   30.7230 C.3       8 GLP5        0.0000 
     85 CA        -23.9305    7.2142   22.5705 C.3       4 GLC5        0.0000 
     86 CA        -22.8740    9.1610   22.6350 C.3      12 GLL5        0.0000 
     87 CA        -24.3070    5.1940   22.6050 C.3       8 GLP5        0.0000 
     88 CA        -22.8340    9.0358   20.6845 C.3       4 GLC5        0.0000 
     89 CA        -24.2340    9.3080   22.4370 C.3      12 GLL5        0.0000 
     90 CA        -22.1140    8.8370   18.8330 C.3       8 GLP5        0.0000 
     91 CA        -24.8635   11.1582   21.4337 C.3       4 GLC5        0.0000 
     92 CA        -23.3500    8.4247   24.0765 C.3       4 GLC5        0.0000 
     93 CA        -23.1460    7.6150   25.6170 C.3       8 GLP5        0.0000 
     94 CA        -25.5400    8.6397   23.8993 C.3       4 GLC5        0.0000 
     95 CA        -26.5110    7.4300   25.0780 C.3       8 GLP5        0.0000 
     96 CA        -21.2602    7.9312   22.7900 C.3       4 GLC5        0.0000 
     97 CA        -22.8167    9.1205   24.6460 C.3       4 GLC5        0.0000 
     98 CA        -22.1610   10.0840   23.3870 C.3      12 GLL5        0.0000 
     99 CA        -14.5336    4.8102   31.0181 C.3       4 GLC5        0.0000 
    100 CA        -14.6010    5.3360   32.6870 C.3      12 GLL5        0.0000 
    101 CA        -23.8435    9.2317   24.5005 C.3       4 GLC5        0.0000 
    102 CA        -24.1780   11.3060   23.7640 C.3      12 GLL5        0.0000 
    103 CA        -25.4715   10.4558   25.2990 C.3       4 GLC5        0.0000 
    104 CA        -24.9040   10.3910   23.0040 C.3      12 GLL5        0.0000 
    105 CA        -26.4020   10.0630   27.2140 C.3       8 GLP5        0.0000 
    106 CA        -24.9352   12.1983   22.0987 C.3       4 GLC5        0.0000 
    107 CA        -16.4573    9.1020   24.4352 C.3       4 GLC5        0.0000 
    108 CA        -14.7430    8.1370   23.7520 C.3       8 GLP5        0.0000 
    109 CA        -16.1095    9.3960   29.8885 C.3       4 GLC5        0.0000 
    110 CA        -17.8260    8.4280   28.9240 C.3      12 GLL5        0.0000 
    111 CA        -14.7700   10.9500   30.5500 C.3       8 GLP5        0.0000 
@<TRIPOS>BOND
@<TRIPOS>SUBSTRUCTURE
     1 ALC1       35 GROUP        1 X    ALC  0     ROOT ALC X 1
     2 SEC2       41 GROUP        1 X    SEC  0     **** SEC X 2
     3 LYC4       47 GROUP        1 X    LYC  0     **** LYC X 4
     4 GLC5        1 GROUP        1 X    GLC  0     **** GLC X 6
     5 ALP1       37 GROUP        1 Y    ALP  0     ROOT ALP Y 8
     6 SEP2       43 GROUP        1 Y    SEP  0     **** SEP Y 9
     7 LYP4       49 GROUP        1 Y    LYP  0     **** LYP Y 11
     8 GLP5        3 GROUP        1 Y    GLP  0     **** GLP Y 13
     9 ALL1       36 GROUP        1 Z    ALL  0     ROOT ALL Z 15
    10 SEL2       42 GROUP        1 Z    SEL  0     **** SEL Z 16
    11 LYL4       48 GROUP        1 Z    LYL  0     **** LYL Z 18
    12 GLL5        2 GROUP        1 Z    GLL  0     **** GLL Z 20
@<TRIPOS>SET

