#    Name: 4ajp_0SN_2_ligand
#    Modification time : Tue Mar 25 05:39:49 2014

@<TRIPOS>MOLECULE
4ajp_0SN_2_ligand
   60    62     1     0     0
SMALL
NO_CHARGES


@<TRIPOS>ATOM
      1 C23       -17.2440    4.7420   32.2400 C.ar      1 0SN1333     0.0000 
      2 C27       -15.3900    6.1920   31.9440 C.ar      1 0SN1333     0.0000 
      3 C24       -16.4540    3.8820   32.9810 C.ar      1 0SN1333     0.0000 
      4 C26       -14.6010    5.3360   32.6870 C.ar      1 0SN1333     0.0000 
      5 C5        -24.2340    9.3080   22.4370 C.ar      1 0SN1333     0.0000 
      6 C6        -22.8740    9.1610   22.6350 C.ar      1 0SN1333     0.0000 
      7 C8        -22.8140   11.1680   23.9630 C.ar      1 0SN1333     0.0000 
      8 C22       -16.7250    5.9110   31.7140 C.ar      1 0SN1333     0.0000 
      9 C25       -15.1210    4.1690   33.2150 C.ar      1 0SN1333     0.0000 
     10 C4        -24.9040   10.3910   23.0040 C.ar      1 0SN1333     0.0000 
     11 C7        -22.1610   10.0840   23.3870 C.ar      1 0SN1333     0.0000 
     12 C9        -24.1780   11.3060   23.7640 C.ar      1 0SN1333     0.0000 
     13 C2        -26.5720   11.7600   23.5530 C.2       1 0SN1333     0.0000 
     14 C12       -20.0510   10.1130   24.6780 C.2       1 0SN1333     0.0000 
     15 C17       -17.4390    8.7780   27.5060 C.2       1 0SN1333     0.0000 
     16 C30       -14.7040    4.5450   36.1690 C.2       1 0SN1333     0.0000 
     17 C33       -12.6540    3.0870   36.0110 C.2       1 0SN1333     0.0000 
     18 C1        -27.9560   12.3160   23.6330 C.3       1 0SN1333     0.0000 
     19 C21       -17.5850    6.8540   30.9030 C.3       1 0SN1333     0.0000 
     20 C28       -14.2530    3.2560   34.0390 C.3       1 0SN1333     0.0000 
     21 C14       -18.5850    9.7530   24.5700 C.3       1 0SN1333     0.0000 
     22 C19       -17.8260    8.4280   28.9240 C.3       1 0SN1333     0.0000 
     23 C20       -17.0720    7.2560   29.5300 C.3       1 0SN1333     0.0000 
     24 C15       -17.7580   10.3810   25.6670 C.3       1 0SN1333     0.0000 
     25 C29       -13.6380    3.9700   35.2580 C.3       1 0SN1333     0.0000 
     26 N3        -26.2680   10.6640   22.9000 N.2       1 0SN1333     0.0000 
     27 N11       -20.7710    9.8870   23.5590 N.am      1 0SN1333     0.0000 
     28 N16       -18.0650    9.8270   26.9810 N.am      1 0SN1333     0.0000 
     29 O13       -20.5320   10.5690   25.7120 O.2       1 0SN1333     0.0000 
     30 O18       -16.5880    8.1350   26.8980 O.2       1 0SN1333     0.0000 
     31 O31       -14.6470    5.7150   36.5060 O.co2     1 0SN1333     0.0000 
     32 O34       -11.5900    2.8010   35.4870 O.co2     1 0SN1333     0.0000 
     33 O32       -15.6490    3.7220   36.5250 O.co2     1 0SN1333     0.0000 
     34 O35       -13.0110    2.6740   37.1940 O.co2     1 0SN1333     0.0000 
     35 S10       -25.2470   12.5530   24.3370 S.3       1 0SN1333     0.0000 
     36 H         -18.2414    4.5065   32.0762 H         1 0SN1333     0.0000 
     37 H         -14.9763    7.0594   31.5518 H         1 0SN1333     0.0000 
     38 H         -16.8653    3.0121   33.3657 H         1 0SN1333     0.0000 
     39 H         -13.6039    5.5715   32.8516 H         1 0SN1333     0.0000 
     40 H         -24.7547    8.6235   21.8741 H         1 0SN1333     0.0000 
     41 H         -22.3785    8.3525   22.2179 H         1 0SN1333     0.0000 
     42 H         -22.2965   11.8475   24.5211 H         1 0SN1333     0.0000 
     43 H         -17.7610    7.7840   31.5011 H         1 0SN1333     0.0000 
     44 H         -18.6010    6.3994   30.7819 H         1 0SN1333     0.0000 
     45 H         -13.4375    2.8603   33.4213 H         1 0SN1333     0.0000 
     46 H         -14.8441    2.4044   34.3979 H         1 0SN1333     0.0000 
     47 H         -18.2035   10.0829   23.5940 H         1 0SN1333     0.0000 
     48 H         -18.4776    8.6606   24.6148 H         1 0SN1333     0.0000 
     49 H         -18.9138    8.2070   28.9582 H         1 0SN1333     0.0000 
     50 H         -17.6773    9.3189   29.5702 H         1 0SN1333     0.0000 
     51 H         -17.1459    6.3915   28.8514 H         1 0SN1333     0.0000 
     52 H         -16.0045    7.5166   29.6073 H         1 0SN1333     0.0000 
     53 H         -17.9360   11.4717   25.6567 H         1 0SN1333     0.0000 
     54 H         -16.6895   10.2336   25.4259 H         1 0SN1333     0.0000 
     55 H         -13.0556    4.8340   34.8533 H         1 0SN1333     0.0000 
     56 H         -20.2516    9.5151   22.6869 H         1 0SN1333     0.0000 
     57 H         -18.8358   10.3240   27.5034 H         1 0SN1333     0.0000 
     58 H         -27.9874   13.1582   24.1713 H         1 0SN1333     0.0000 
     59 H         -28.3220   12.5328   22.7280 H         1 0SN1333     0.0000 
     60 H         -28.5910   11.6718   24.0594 H         1 0SN1333     0.0000 
@<TRIPOS>BOND
     1    3    1 ar   
     2    8    1 ar   
     3   36    1 1    
     4    4    2 ar   
     5    8    2 ar   
     6   37    2 1    
     7    9    3 ar   
     8   38    3 1    
     9    9    4 ar   
    10   39    4 1    
    11    6    5 ar   
    12   10    5 ar   
    13   40    5 1    
    14   11    6 ar   
    15   41    6 1    
    16   11    7 ar   
    17   12    7 ar   
    18   42    7 1    
    19   19    8 1    
    20   20    9 1    
    21   12   10 ar   
    22   26   10 1    
    23   27   11 1    
    24   35   12 1    
    25   18   13 1    
    26   26   13 2    
    27   35   13 1    
    28   21   14 1    
    29   27   14 am   
    30   29   14 2    
    31   22   15 1    
    32   28   15 am   
    33   30   15 2    
    34   25   16 1    
    35   31   16 ar   
    36   33   16 ar   
    37   25   17 1    
    38   32   17 ar   
    39   34   17 ar   
    40   58   18 1    
    41   59   18 1    
    42   60   18 1    
    43   23   19 1    
    44   43   19 1    
    45   44   19 1    
    46   25   20 1    
    47   45   20 1    
    48   46   20 1    
    49   24   21 1    
    50   47   21 1    
    51   48   21 1    
    52   23   22 1    
    53   49   22 1    
    54   50   22 1    
    55   51   23 1    
    56   52   23 1    
    57   28   24 1    
    58   53   24 1    
    59   54   24 1    
    60   55   25 1    
    61   56   27 1    
    62   57   28 1    
@<TRIPOS>SUBSTRUCTURE
     1 0SN1333     1 GROUP   
@<TRIPOS>SET

