#    Name: 1ju6_LYA_4_INTS_M
#    Modification time : Mon Apr  7 13:04:42 2014

@<TRIPOS>MOLECULE
1ju6_LYA_4_INTS_M
   48     0    12     0     0
SMALL
NO_CHARGES


@<TRIPOS>ATOM
      1 CA         47.6805   63.7095   53.0880 C.3       4 GLC5        0.0000 
      2 CA         45.8350   63.0240   52.8570 C.3      12 GLL5        0.0000 
      3 CA         49.5260   64.3950   53.3190 C.3       8 GLP5        0.0000 
      4 CA         48.4610   62.6920   53.2030 C.3       4 GLC5        0.0000 
      5 CA         47.3960   60.9890   53.0870 C.3      12 GLL5        0.0000 
      6 CA         49.2690   60.3140   53.3050 C.3       4 GLC5        0.0000 
      7 CA         51.1420   59.6390   53.5230 C.3       8 GLP5        0.0000 
      8 CA         48.7490   59.0935   52.6850 C.3       4 GLC5        0.0000 
      9 CA         46.7440   59.6430   52.6190 C.3      12 GLL5        0.0000 
     10 CA         50.7540   58.5440   52.7510 C.3       8 GLP5        0.0000 
     11 O          47.4965   57.3920   57.0085 O.2       1 ALC1        0.0000 
     12 O          46.6330   57.3730   55.6350 O.2       9 ALL1        0.0000 
     13 O          48.3600   57.4110   58.3820 O.2       5 ALP1        0.0000 
     14 CA         44.2385   55.7100   54.5325 C.3       4 GLC5        0.0000 
     15 CA         45.2990   57.4300   55.3220 C.3      12 GLL5        0.0000 
     16 CA         43.1780   53.9900   53.7430 C.3       8 GLP5        0.0000 
     17 CA         44.2955   56.8765   53.0020 C.3       4 GLC5        0.0000 
     18 CA         45.1580   58.2570   54.1770 C.3      12 GLL5        0.0000 
     19 CA         43.4330   55.4960   51.8270 C.3       8 GLP5        0.0000 
     20 N          41.1895   58.1825   54.0375 N.am      2 SEC2        0.0000 
     21 N          42.7050   57.8760   54.2570 N.am     10 SEL2        0.0000 
     22 N          39.6740   58.4890   53.8180 N.am      6 SEP2        0.0000 
     23 O          42.0995   56.2730   57.4885 O.2       1 ALC1        0.0000 
     24 O          41.8460   56.4500   56.0520 O.2       9 ALL1        0.0000 
     25 O          42.3530   56.0960   58.9250 O.2       5 ALP1        0.0000 
     26 CA         40.8215   65.4890   54.8995 C.3       4 GLC5        0.0000 
     27 CA         42.1270   67.0140   55.1780 C.3      12 GLL5        0.0000 
     28 CA         39.5160   63.9640   54.6210 C.3       8 GLP5        0.0000 
     29 CA         45.8010   67.0290   55.9350 C.3       4 GLC5        0.0000 
     30 CA         44.0000   68.2150   56.5420 C.3      12 GLL5        0.0000 
     31 CA         47.6020   65.8430   55.3280 C.3       8 GLP5        0.0000 
     32 NZ         39.5935   66.7760   51.8710 N.4       3 LYC4        0.0000 
     33 NZ         41.1290   66.6430   53.0080 N.4      11 LYL4        0.0000 
     34 NZ         38.0580   66.9090   50.7340 N.4       7 LYP4        0.0000 
     35 CA         46.1815   64.9125   54.7130 C.3       4 GLC5        0.0000 
     36 CA         44.5870   63.9790   54.7930 C.3      12 GLL5        0.0000 
     37 CA         47.0643   63.5382   55.2927 C.3       4 GLC5        0.0000 
     38 CA         45.1890   62.9610   55.6060 C.3      12 GLL5        0.0000 
     39 CA         48.4080   64.5880   55.5960 C.3       8 GLP5        0.0000 
     40 CA         45.2048   61.1737   56.7145 C.3       4 GLC5        0.0000 
     41 CA         46.0880   62.0040   55.0620 C.3      12 GLL5        0.0000 
     42 CA         44.7710   59.8650   58.0950 C.3       8 GLP5        0.0000 
     43 CA         46.9266   57.6150   52.3414 C.3       4 GLC5        0.0000 
     44 CA         46.3950   58.7170   53.7860 C.3      12 GLL5        0.0000 
     45 CA         46.9200   56.5590   50.7360 C.3       8 GLP5        0.0000 
     46 CA         44.9997   58.8543   56.4222 C.3       4 GLC5        0.0000 
     47 CA         44.9662   69.3798   55.0495 C.3       4 GLC5        0.0000 
     48 CA         46.5040   70.4740   54.0840 C.3       8 GLP5        0.0000 
@<TRIPOS>BOND
@<TRIPOS>SUBSTRUCTURE
     1 ALC1       11 GROUP        1 X    ALC  0     ROOT ALC X 1
     2 SEC2       20 GROUP        1 X    SEC  0     **** SEC X 2
     3 LYC4       32 GROUP        1 X    LYC  0     **** LYC X 4
     4 GLC5        1 GROUP        1 X    GLC  0     **** GLC X 6
     5 ALP1       13 GROUP        1 Y    ALP  0     ROOT ALP Y 8
     6 SEP2       22 GROUP        1 Y    SEP  0     **** SEP Y 9
     7 LYP4       34 GROUP        1 Y    LYP  0     **** LYP Y 11
     8 GLP5        3 GROUP        1 Y    GLP  0     **** GLP Y 13
     9 ALL1       12 GROUP        1 Z    ALL  0     ROOT ALL Z 15
    10 SEL2       21 GROUP        1 Z    SEL  0     **** SEL Z 16
    11 LYL4       33 GROUP        1 Z    LYL  0     **** LYL Z 18
    12 GLL5        2 GROUP        1 Z    GLL  0     **** GLL Z 20
@<TRIPOS>SET

