#    Name: 1ju6_LYA_4_ligand
#    Modification time : Mon Apr  7 13:04:42 2014

@<TRIPOS>MOLECULE
1ju6_LYA_4_ligand
   50    52     1     0     0
SMALL
NO_CHARGES


@<TRIPOS>ATOM
      1 C1         46.4160   62.0280   53.6840 C.ar      1 LYA315      0.0000 
      2 C2         45.8350   63.0240   52.8570 C.ar      1 LYA315      0.0000 
      3 C3         44.9350   63.9850   53.4030 C.ar      1 LYA315      0.0000 
      4 C4         44.5870   63.9790   54.7930 C.ar      1 LYA315      0.0000 
      5 C5         45.1890   62.9610   55.6060 C.ar      1 LYA315      0.0000 
      6 C6         46.0880   62.0040   55.0620 C.ar      1 LYA315      0.0000 
      7 C7         47.3960   60.9890   53.0870 C.3       1 LYA315      0.0000 
      8 C8         46.7440   59.6430   52.6190 C.3       1 LYA315      0.0000 
      9 C9         46.3950   58.7170   53.7860 C.2       1 LYA315      0.0000 
     10 C10        47.2970   58.1620   54.6910 C.2       1 LYA315      0.0000 
     11 N11        46.6330   57.3730   55.6350 N.pl3     1 LYA315      0.0000 
     12 C12        45.2990   57.4300   55.3220 C.2       1 LYA315      0.0000 
     13 C13        45.1580   58.2570   54.1770 C.2       1 LYA315      0.0000 
     14 C14        43.7260   58.4940   53.6000 C.2       1 LYA315      0.0000 
     15 O15        43.4800   59.1770   52.6280 O.2       1 LYA315      0.0000 
     16 N16        42.7050   57.8760   54.2570 N.2       1 LYA315      0.0000 
     17 C17        42.9210   57.0400   55.4350 C.2       1 LYA315      0.0000 
     18 N18        44.1150   56.8430   55.9100 N.pl3     1 LYA315      0.0000 
     19 N19        41.8460   56.4500   56.0520 N.pl3     1 LYA315      0.0000 
     20 C20        43.6240   64.9850   55.4620 C.2       1 LYA315      0.0000 
     21 O21        43.3800   64.9130   56.6740 O.2       1 LYA315      0.0000 
     22 N22        43.0550   65.9570   54.7000 N.am      1 LYA315      0.0000 
     23 C23        42.1270   67.0140   55.1780 C.3       1 LYA315      0.0000 
     24 C24        42.8570   68.3560   55.4880 C.3       1 LYA315      0.0000 
     25 C25        44.0000   68.2150   56.5420 C.3       1 LYA315      0.0000 
     26 C26        44.8330   69.4290   56.9500 C.2       1 LYA315      0.0000 
     27 O27        45.6580   69.2990   57.8750 O.co2     1 LYA315      0.0000 
     28 O28        44.6950   70.5120   56.3450 O.co2     1 LYA315      0.0000 
     29 C29        40.9450   67.1080   54.1570 C.2       1 LYA315      0.0000 
     30 O30        39.8430   67.6140   54.4690 O.co2     1 LYA315      0.0000 
     31 O31        41.1290   66.6430   53.0080 O.co2     1 LYA315      0.0000 
     32 H          46.0620   63.0549   51.8612 H         1 LYA315      0.0000 
     33 H          44.5254   64.6984   52.7897 H         1 LYA315      0.0000 
     34 H          44.9601   62.9281   56.6080 H         1 LYA315      0.0000 
     35 H          46.4999   61.2939   55.6712 H         1 LYA315      0.0000 
     36 H          48.1686   60.7541   53.8373 H         1 LYA315      0.0000 
     37 H          47.9121   61.4395   52.2234 H         1 LYA315      0.0000 
     38 H          47.4447   59.1401   51.9481 H         1 LYA315      0.0000 
     39 H          45.8385   59.8808   52.0555 H         1 LYA315      0.0000 
     40 H          48.2505   58.3014   54.6713 H         1 LYA315      0.0000 
     41 H          47.0366   56.9016   56.3407 H         1 LYA315      0.0000 
     42 H          44.2924   56.2395   56.7578 H         1 LYA315      0.0000 
     43 H          41.9275   56.3095   57.0387 H         1 LYA315      0.0000 
     44 H          41.0753   56.2122   55.4608 H         1 LYA315      0.0000 
     45 H          43.2638   66.0059   53.6583 H         1 LYA315      0.0000 
     46 H          41.6779   66.6537   56.1306 H         1 LYA315      0.0000 
     47 H          42.1244   69.0776   55.8600 H         1 LYA315      0.0000 
     48 H          43.2825   68.7479   54.5600 H         1 LYA315      0.0000 
     49 H          44.6983   67.4076   56.1735 H         1 LYA315      0.0000 
     50 H          43.5453   67.7626   57.4714 H         1 LYA315      0.0000 
@<TRIPOS>BOND
     1    2    1 ar   
     2    6    1 ar   
     3    7    1 1    
     4    3    2 ar   
     5   32    2 1    
     6    4    3 ar   
     7   33    3 1    
     8    5    4 ar   
     9   20    4 1    
    10    6    5 ar   
    11   34    5 1    
    12   35    6 1    
    13    8    7 1    
    14   36    7 1    
    15   37    7 1    
    16    9    8 1    
    17   38    8 1    
    18   39    8 1    
    19   10    9 2    
    20   13    9 1    
    21   11   10 1    
    22   40   10 1    
    23   12   11 1    
    24   41   11 1    
    25   13   12 2    
    26   18   12 1    
    27   14   13 1    
    28   15   14 2    
    29   16   14 1    
    30   17   16 2    
    31   18   17 1    
    32   19   17 1    
    33   42   18 1    
    34   43   19 1    
    35   44   19 1    
    36   21   20 2    
    37   22   20 am   
    38   23   22 1    
    39   45   22 1    
    40   24   23 1    
    41   29   23 1    
    42   46   23 1    
    43   25   24 1    
    44   47   24 1    
    45   48   24 1    
    46   26   25 1    
    47   49   25 1    
    48   50   25 1    
    49   27   26 ar   
    50   28   26 ar   
    51   30   29 ar   
    52   31   29 ar   
@<TRIPOS>SUBSTRUCTURE
     1 LYA315      1 GROUP   
@<TRIPOS>SET

