#    Name: 3ux8_ADP_1_INTS_M
#    Modification time : Mon Mar 24 23:41:57 2014

@<TRIPOS>MOLECULE
3ux8_ADP_1_INTS_M
   61     0    12     0     0
SMALL
NO_CHARGES


@<TRIPOS>ATOM
      1 NZ         40.3610   46.6010   25.7085 N.4       3 LYC4        0.0000 
      2 NZ         39.4320   47.7360   25.1900 N.4      11 LYL4        0.0000 
      3 NZ         41.2900   45.4660   26.2270 N.4       7 LYP4        0.0000 
      4 N          37.9465   48.0785   25.2080 N.am      2 SEC2        0.0000 
      5 N          39.4320   47.7360   25.1900 N.am     10 SEL2        0.0000 
      6 N          36.4610   48.4210   25.2260 N.am      6 SEP2        0.0000 
      7 N          38.7665   48.4515   26.2605 N.am      2 SEC2        0.0000 
      8 N          38.1010   49.1670   27.3310 N.am      6 SEP2        0.0000 
      9 N          40.3610   46.6010   25.7085 N.am      2 SEC2        0.0000 
     10 N          41.2900   45.4660   26.2270 N.am      6 SEP2        0.0000 
     11 NZ         41.1600   46.6820   24.7430 N.4       3 LYC4        0.0000 
     12 NZ         41.0300   47.8980   23.2590 N.4      11 LYL4        0.0000 
     13 N          40.2110   47.1300   22.5925 N.am      2 SEC2        0.0000 
     14 N          41.0300   47.8980   23.2590 N.am     10 SEL2        0.0000 
     15 N          39.3920   46.3620   21.9260 N.am      6 SEP2        0.0000 
     16 N          40.6655   50.4030   26.2395 N.am      2 SEC2        0.0000 
     17 N          40.9590   49.7730   24.9710 N.am     10 SEL2        0.0000 
     18 N          40.3720   51.0330   27.5080 N.am      6 SEP2        0.0000 
     19 N          41.2480   51.0680   25.0600 N.am      2 SEC2        0.0000 
     20 N          41.5370   52.3630   25.1490 N.am      6 SEP2        0.0000 
     21 N          39.9835   51.9810   24.7775 N.am      2 SEC2        0.0000 
     22 N          38.4300   51.5990   24.4060 N.am     10 SEL2        0.0000 
     23 N          38.7330   52.4740   25.5780 N.am      2 SEC2        0.0000 
     24 N          39.0360   53.3490   26.7500 N.am      6 SEP2        0.0000 
     25 N          37.8435   52.7410   24.4590 N.am      2 SEC2        0.0000 
     26 N          37.2570   53.8830   24.5120 N.am      6 SEP2        0.0000 
     27 N          37.7600   48.9030   24.3145 N.am      2 SEC2        0.0000 
     28 N          39.0590   49.3850   23.4030 N.am     10 SEL2        0.0000 
     29 CA         37.3960   48.9245   21.7950 C.3       4 GLC5        0.0000 
     30 CA         36.5520   50.7020   22.1000 C.3      12 GLL5        0.0000 
     31 CA         38.2400   47.1470   21.4900 C.3       8 GLP5        0.0000 
     32 CA         36.3690   50.1930   24.0015 C.3       4 GLC5        0.0000 
     33 CA         36.1860   49.6840   25.9030 C.3       8 GLP5        0.0000 
     34 CA         33.9305   50.9565   21.2385 C.3       4 GLC5        0.0000 
     35 CA         35.8440   51.0020   20.7790 C.3      12 GLL5        0.0000 
     36 CA         32.0170   50.9110   21.6980 C.3       8 GLP5        0.0000 
     37 CA         37.4150   48.7765   20.5445 C.3       4 GLC5        0.0000 
     38 CA         36.5900   50.4060   19.5990 C.3      12 GLL5        0.0000 
     39 CA         35.0830   48.9315   19.2735 C.3       4 GLC5        0.0000 
     40 CA         33.5760   47.4570   18.9480 C.3       8 GLP5        0.0000 
     41 O          35.9130   49.3725   17.0810 O.2       1 ALC1        0.0000 
     42 O          35.6500   49.7480   18.7450 O.2       9 ALL1        0.0000 
     43 O          36.1760   48.9970   15.4170 O.2       5 ALP1        0.0000 
     44 N          38.4550   52.1645   17.7115 N.am      2 SEC2        0.0000 
     45 N          37.2290   51.4220   17.4620 N.am     10 SEL2        0.0000 
     46 N          39.6810   52.9070   17.9610 N.am      6 SEP2        0.0000 
     47 CA         35.2835   53.9640   20.7000 C.3       4 GLC5        0.0000 
     48 CA         36.3550   52.7910   19.3250 C.3      12 GLL5        0.0000 
     49 CA         34.2120   55.1370   22.0750 C.3       8 GLP5        0.0000 
     50 CA         38.5075   56.1785   16.4290 C.3       4 GLC5        0.0000 
     51 CA         36.5040   56.6270   17.0170 C.3      12 GLL5        0.0000 
     52 CA         40.5110   55.7300   15.8410 C.3       8 GLP5        0.0000 
     53 CA         35.8420   57.0030   19.0235 C.3       4 GLC5        0.0000 
     54 CA         35.1800   57.3790   21.0300 C.3       8 GLP5        0.0000 
     55 CA         37.7265   49.4495   18.5280 C.3       4 GLC5        0.0000 
     56 CA         37.2040   51.5980   18.8870 C.3      12 GLL5        0.0000 
     57 CA         38.5560   47.8970   17.8130 C.3       8 GLP5        0.0000 
     58 CA         39.0819   55.8036   17.3000 C.3       4 GLC5        0.0000 
     59 CA         38.1330   56.0310   19.1910 C.3      12 GLL5        0.0000 
     60 CA         36.4164   56.6281   19.8945 C.3       4 GLC5        0.0000 
     61 CA         38.2400   57.3180   18.4690 C.3      12 GLL5        0.0000 
@<TRIPOS>BOND
@<TRIPOS>SUBSTRUCTURE
     1 ALC1       41 GROUP        1 X    ALC  0     ROOT ALC X 1
     2 SEC2        4 GROUP        1 X    SEC  0     **** SEC X 2
     3 LYC4        1 GROUP        1 X    LYC  0     **** LYC X 4
     4 GLC5       29 GROUP        1 X    GLC  0     **** GLC X 6
     5 ALP1       43 GROUP        1 Y    ALP  0     ROOT ALP Y 8
     6 SEP2        6 GROUP        1 Y    SEP  0     **** SEP Y 9
     7 LYP4        3 GROUP        1 Y    LYP  0     **** LYP Y 11
     8 GLP5       31 GROUP        1 Y    GLP  0     **** GLP Y 13
     9 ALL1       42 GROUP        1 Z    ALL  0     ROOT ALL Z 15
    10 SEL2        5 GROUP        1 Z    SEL  0     **** SEL Z 16
    11 LYL4        2 GROUP        1 Z    LYL  0     **** LYL Z 18
    12 GLL5       30 GROUP        1 Z    GLL  0     **** GLL Z 20
@<TRIPOS>SET

