#    Name: 3ux8_ADP_1_ligand
#    Modification time : Mon Mar 24 23:41:57 2014

@<TRIPOS>MOLECULE
3ux8_ADP_1_ligand
   39    41     1     0     0
SMALL
NO_CHARGES


@<TRIPOS>ATOM
      1 PB         40.2060   48.6590   24.2690 P.3       1 ADP1001     0.0000 
      2 O1B        39.4320   47.7360   25.1900 O.co2     1 ADP1001     0.0000 
      3 O2B        41.0300   47.8980   23.2590 O.co2     1 ADP1001     0.0000 
      4 O3B        40.9590   49.7730   24.9710 O.co2     1 ADP1001     0.0000 
      5 PA         38.9810   50.9810   23.1350 P.3       1 ADP1001     0.0000 
      6 O1A        40.2410   51.5260   22.5390 O.co2     1 ADP1001     0.0000 
      7 O2A        38.4300   51.5990   24.4060 O.co2     1 ADP1001     0.0000 
      8 O3A        39.0590   49.3850   23.4030 O.3       1 ADP1001     0.0000 
      9 O5'        37.9120   51.0780   21.9440 O.3       1 ADP1001     0.0000 
     10 C5'        36.5520   50.7020   22.1000 C.3       1 ADP1001     0.0000 
     11 C4'        35.8440   51.0020   20.7790 C.3       1 ADP1001     0.0000 
     12 O4'        35.7750   52.4230   20.5740 O.3       1 ADP1001     0.0000 
     13 C3'        36.5900   50.4060   19.5990 C.3       1 ADP1001     0.0000 
     14 O3'        35.6500   49.7480   18.7450 O.3       1 ADP1001     0.0000 
     15 C2'        37.2040   51.5980   18.8870 C.3       1 ADP1001     0.0000 
     16 O2'        37.2290   51.4220   17.4620 O.3       1 ADP1001     0.0000 
     17 C1'        36.3550   52.7910   19.3250 C.3       1 ADP1001     0.0000 
     18 N9         37.1960   54.0080   19.4810 N.pl3     1 ADP1001     0.0000 
     19 C8         38.1670   54.2170   20.4100 C.2       1 ADP1001     0.0000 
     20 N7         38.7430   55.4430   20.2430 N.2       1 ADP1001     0.0000 
     21 C5         38.1330   56.0310   19.1910 C.ar      1 ADP1001     0.0000 
     22 C6         38.2400   57.3180   18.4690 C.ar      1 ADP1001     0.0000 
     23 N6         39.1390   58.2420   18.8540 N.pl3     1 ADP1001     0.0000 
     24 N1         37.4120   57.5440   17.4210 N.ar      1 ADP1001     0.0000 
     25 C2         36.5040   56.6270   17.0170 C.ar      1 ADP1001     0.0000 
     26 N3         36.3500   55.4290   17.6170 N.ar      1 ADP1001     0.0000 
     27 C4         37.1190   55.0800   18.6880 C.ar      1 ADP1001     0.0000 
     28 H          36.0543   51.2711   22.8812 H         1 ADP1001     0.0000 
     29 H          36.4390   49.6403   22.3046 H         1 ADP1001     0.0000 
     30 H          34.8567   50.5751   20.8100 H         1 ADP1001     0.0000 
     31 H          37.3516   49.7787   19.9544 H         1 ADP1001     0.0000 
     32 H          38.1953   51.7428   19.2997 H         1 ADP1001     0.0000 
     33 H          35.6022   52.9499   18.5816 H         1 ADP1001     0.0000 
     34 H          38.4198   53.5782   21.1036 H         1 ADP1001     0.0000 
     35 H          39.1987   59.0619   18.2846 H         1 ADP1001     0.0000 
     36 H          39.6674   58.0265   19.6752 H         1 ADP1001     0.0000 
     37 H          35.8830   56.8629   16.1872 H         1 ADP1001     0.0000 
     38 H          35.8138   50.1313   17.8361 H         1 ADP1001     0.0000 
     39 H          36.5771   52.0922   17.1071 H         1 ADP1001     0.0000 
@<TRIPOS>BOND
     1    2    1 ar   
     2    3    1 ar   
     3    4    1 ar   
     4    8    1 1    
     5    6    5 ar   
     6    7    5 ar   
     7    8    5 1    
     8    9    5 1    
     9   10    9 1    
    10   11   10 1    
    11   28   10 1    
    12   29   10 1    
    13   12   11 1    
    14   13   11 1    
    15   30   11 1    
    16   17   12 1    
    17   14   13 1    
    18   15   13 1    
    19   31   13 1    
    20   38   14 1    
    21   16   15 1    
    22   17   15 1    
    23   32   15 1    
    24   39   16 1    
    25   18   17 1    
    26   33   17 1    
    27   19   18 1    
    28   27   18 1    
    29   20   19 2    
    30   34   19 1    
    31   21   20 1    
    32   22   21 ar   
    33   27   21 ar   
    34   23   22 1    
    35   24   22 ar   
    36   35   23 1    
    37   36   23 1    
    38   25   24 ar   
    39   26   25 ar   
    40   37   25 1    
    41   27   26 ar   
@<TRIPOS>SUBSTRUCTURE
     1 ADP1001     1 GROUP   
@<TRIPOS>SET

