#    Name: 2hl2_SSA_1_INTS_M
#    Modification time : Tue Mar 25 16:40:50 2014

@<TRIPOS>MOLECULE
2hl2_SSA_1_INTS_M
   51     0     9     0     0
SMALL
NO_CHARGES


@<TRIPOS>ATOM
      1 CA         29.3195    3.1310   -5.4150 C.3       3 GLC5        0.0000 
      2 CA         28.1580    2.9510   -3.6450 C.3       9 GLL5        0.0000 
      3 CA         30.4810    3.3110   -7.1850 C.3       6 GLP5        0.0000 
      4 CA         28.0290    2.9205   -6.0990 C.3       3 GLC5        0.0000 
      5 CA         26.8310    3.1120   -4.3910 C.3       9 GLL5        0.0000 
      6 CA         29.2270    2.7290   -7.8070 C.3       6 GLP5        0.0000 
      7 CA         26.6640    4.0765   -6.1380 C.3       3 GLC5        0.0000 
      8 CA         26.4970    5.0410   -7.8850 C.3       6 GLP5        0.0000 
      9 CA         25.5890    0.9335   -2.4475 C.3       3 GLC5        0.0000 
     10 CA         25.6800    2.4450   -3.6350 C.3       9 GLL5        0.0000 
     11 CA         25.4980   -0.5780   -1.2600 C.3       6 GLP5        0.0000 
     12 CA         22.7420    1.9085   -5.5315 C.3       3 GLC5        0.0000 
     13 CA         24.7110    2.2030   -4.7910 C.3       9 GLL5        0.0000 
     14 CA         20.7730    1.6140   -6.2720 C.3       6 GLP5        0.0000 
     15 CA         24.5035    0.9020   -6.5830 C.3       3 GLC5        0.0000 
     16 CA         24.2960   -0.3990   -8.3750 C.3       6 GLP5        0.0000 
     17 N          24.6605    3.9760   -6.6640 N.am      2 SEC2        0.0000 
     18 N          24.1700    3.4330   -5.2810 N.am      8 SEL2        0.0000 
     19 N          25.1510    4.5190   -8.0470 N.am      5 SEP2        0.0000 
     20 CA         27.4645    2.1805   -6.8065 C.3       3 GLC5        0.0000 
     21 CA         25.7020    1.6320   -5.8060 C.3       9 GLL5        0.0000 
     22 CA         25.6900    0.6280   -7.1855 C.3       3 GLC5        0.0000 
     23 CA         25.6780   -0.3760   -8.5650 C.3       6 GLP5        0.0000 
     24 CA         26.0995    3.3365   -6.8455 C.3       3 GLC5        0.0000 
     25 CA         24.2210   -4.8325   -5.4345 C.3       3 GLC5        0.0000 
     26 CA         25.3920   -3.0860   -4.6680 C.3       9 GLL5        0.0000 
     27 CA         23.0500   -6.5790   -6.2010 C.3       6 GLP5        0.0000 
     28 CA         25.5660   -3.9730   -2.6845 C.3       3 GLC5        0.0000 
     29 CA         25.7400   -4.8600   -0.7010 C.3       6 GLP5        0.0000 
     30 O          25.4880   -5.5705   -4.2190 O.2       1 ALC1        0.0000 
     31 O          26.0850   -4.2110   -4.5150 O.2       7 ALL1        0.0000 
     32 O          24.8910   -6.9300   -3.9230 O.2       4 ALP1        0.0000 
     33 O          27.4640   -4.7895   -5.1325 O.2       1 ALC1        0.0000 
     34 O          28.8430   -5.3680   -5.7500 O.2       4 ALP1        0.0000 
     35 N          23.1885   -4.4865   -4.2495 N.am      2 SEC2        0.0000 
     36 N          24.0570   -3.0940   -4.5440 N.am      8 SEL2        0.0000 
     37 N          22.3200   -5.8790   -3.9550 N.am      5 SEP2        0.0000 
     38 CA         22.3520   -3.3980   -3.3585 C.3       3 GLC5        0.0000 
     39 CA         23.3450   -1.9920   -4.7140 C.3       9 GLL5        0.0000 
     40 CA         21.3590   -4.8040   -2.0030 C.3       6 GLP5        0.0000 
     41 CA         24.4215   -1.2850   -2.9870 C.3       3 GLC5        0.0000 
     42 CA         24.4010   -3.1155   -6.3175 C.3       3 GLC5        0.0000 
     43 CA         25.4570   -4.2390   -7.9210 C.3       6 GLP5        0.0000 
     44 CA         22.0435   -1.7395   -6.4965 C.3       3 GLC5        0.0000 
     45 CA         20.7420   -1.4870   -8.2790 C.3       6 GLP5        0.0000 
     46 CA         28.2097    5.0053   -3.9230 C.3       3 GLC5        0.0000 
     47 CA         28.9250    6.9790   -3.8280 C.3       6 GLP5        0.0000 
     48 CA         25.4924   -1.1007   -3.1244 C.3       3 GLC5        0.0000 
     49 CA         26.0370   -1.8940   -4.9790 C.3       9 GLL5        0.0000 
     50 CA         25.4719   -2.9312   -6.4549 C.3       3 GLC5        0.0000 
     51 CA         25.2590   -0.7570   -5.1540 C.3       9 GLL5        0.0000 
@<TRIPOS>BOND
@<TRIPOS>SUBSTRUCTURE
     1 ALC1       30 GROUP        1 X    ALC  0     ROOT ALC X 1
     2 SEC2       17 GROUP        1 X    SEC  0     **** SEC X 2
     3 GLC5        1 GROUP        1 X    GLC  0     **** GLC X 6
     4 ALP1       32 GROUP        1 Y    ALP  0     ROOT ALP Y 8
     5 SEP2       19 GROUP        1 Y    SEP  0     **** SEP Y 9
     6 GLP5        3 GROUP        1 Y    GLP  0     **** GLP Y 13
     7 ALL1       31 GROUP        1 Z    ALL  0     ROOT ALL Z 15
     8 SEL2       18 GROUP        1 Z    SEL  0     **** SEL Z 16
     9 GLL5        2 GROUP        1 Z    GLL  0     **** GLL Z 20
@<TRIPOS>SET

