#    Name: 2hl2_SSA_1_ligand
#    Modification time : Tue Mar 25 16:40:50 2014

@<TRIPOS>MOLECULE
2hl2_SSA_1_ligand
   49    51     1     0     0
SMALL
NO_CHARGES


@<TRIPOS>ATOM
      1 N10        33.4760    1.5830   -4.1970 N.4       1 SSA500      0.0000 
      2 CA         33.3970    1.6320   -2.7300 C.3       1 SSA500      0.0000 
      3 CB         33.6120    3.0620   -2.2290 C.3       1 SSA500      0.0000 
      4 OG         32.5690    3.9140   -2.7100 O.3       1 SSA500      0.0000 
      5 C9         32.0310    1.1240   -2.2650 C.2       1 SSA500      0.0000 
      6 O9         31.9480    0.3730   -1.2940 O.2       1 SSA500      0.0000 
      7 N8         30.9960    1.5270   -2.9990 N.am      1 SSA500      0.0000 
      8 S1         29.4750    1.0760   -2.6190 S.o2      1 SSA500      0.0000 
      9 O1S        29.1140    1.6150   -1.2660 O.2       1 SSA500      0.0000 
     10 O2S        29.4100   -0.3520   -2.5840 O.2       1 SSA500      0.0000 
     11 O5'        28.5400    1.5730   -3.5830 O.3       1 SSA500      0.0000 
     12 C5'        28.1580    2.9510   -3.6450 C.3       1 SSA500      0.0000 
     13 C4'        26.8310    3.1120   -4.3910 C.3       1 SSA500      0.0000 
     14 O4'        26.8580    2.4820   -5.6850 O.3       1 SSA500      0.0000 
     15 C3'        25.6800    2.4450   -3.6350 C.3       1 SSA500      0.0000 
     16 O3'        25.1070    3.3640   -2.7000 O.3       1 SSA500      0.0000 
     17 C2'        24.7110    2.2030   -4.7910 C.3       1 SSA500      0.0000 
     18 O2'        24.1700    3.4330   -5.2810 O.3       1 SSA500      0.0000 
     19 C1'        25.7020    1.6320   -5.8060 C.3       1 SSA500      0.0000 
     20 N9         26.0850    0.2430   -5.4570 N.pl3     1 SSA500      0.0000 
     21 C8         27.3260   -0.2420   -5.4610 C.2       1 SSA500      0.0000 
     22 N7         27.3040   -1.5410   -5.1720 N.2       1 SSA500      0.0000 
     23 C5         26.0370   -1.8940   -4.9790 C.ar      1 SSA500      0.0000 
     24 C6         25.3920   -3.0860   -4.6680 C.ar      1 SSA500      0.0000 
     25 N6         26.0850   -4.2110   -4.5150 N.pl3     1 SSA500      0.0000 
     26 N1         24.0570   -3.0940   -4.5440 N.ar      1 SSA500      0.0000 
     27 C2         23.3450   -1.9920   -4.7140 C.ar      1 SSA500      0.0000 
     28 N3         23.9280   -0.8430   -5.0130 N.ar      1 SSA500      0.0000 
     29 C4         25.2590   -0.7570   -5.1540 C.ar      1 SSA500      0.0000 
     30 H          34.1567    1.0019   -2.2929 H         1 SSA500      0.0000 
     31 H          34.5989    3.3922   -2.5766 H         1 SSA500      0.0000 
     32 H          33.6377    3.0308   -1.1325 H         1 SSA500      0.0000 
     33 H          31.0178    2.1178   -3.8215 H         1 SSA500      0.0000 
     34 H          28.9106    3.5571   -4.1694 H         1 SSA500      0.0000 
     35 H          28.0304    3.3818   -2.6415 H         1 SSA500      0.0000 
     36 H          26.5979    4.1585   -4.4828 H         1 SSA500      0.0000 
     37 H          25.9951    1.5434   -3.2548 H         1 SSA500      0.0000 
     38 H          24.0376    1.4726   -4.5293 H         1 SSA500      0.0000 
     39 H          25.2803    1.6937   -6.7678 H         1 SSA500      0.0000 
     40 H          28.1349    0.2811   -5.6491 H         1 SSA500      0.0000 
     41 H          27.0788   -4.1293   -4.5902 H         1 SSA500      0.0000 
     42 H          25.5497   -5.0370   -4.3386 H         1 SSA500      0.0000 
     43 H          22.2932   -2.0305   -4.6092 H         1 SSA500      0.0000 
     44 H          34.3666    1.8911   -4.5315 H         1 SSA500      0.0000 
     45 H          33.3365    0.6562   -4.5457 H         1 SSA500      0.0000 
     46 H          32.7847    2.1646   -4.6258 H         1 SSA500      0.0000 
     47 H          32.8518    4.1731   -3.6335 H         1 SSA500      0.0000 
     48 H          24.3831    3.8316   -3.2074 H         1 SSA500      0.0000 
     49 H          23.3655    3.1681   -5.8126 H         1 SSA500      0.0000 
@<TRIPOS>BOND
     1    2    1 1    
     2   44    1 1    
     3   45    1 1    
     4   46    1 1    
     5    3    2 1    
     6    5    2 1    
     7   30    2 1    
     8    4    3 1    
     9   31    3 1    
    10   32    3 1    
    11   47    4 1    
    12    6    5 2    
    13    7    5 am   
    14    8    7 1    
    15   33    7 1    
    16    9    8 2    
    17   10    8 2    
    18   11    8 1    
    19   12   11 1    
    20   13   12 1    
    21   34   12 1    
    22   35   12 1    
    23   14   13 1    
    24   15   13 1    
    25   36   13 1    
    26   19   14 1    
    27   16   15 1    
    28   17   15 1    
    29   37   15 1    
    30   48   16 1    
    31   18   17 1    
    32   19   17 1    
    33   38   17 1    
    34   49   18 1    
    35   20   19 1    
    36   39   19 1    
    37   21   20 1    
    38   29   20 1    
    39   22   21 2    
    40   40   21 1    
    41   23   22 1    
    42   24   23 ar   
    43   29   23 ar   
    44   25   24 1    
    45   26   24 ar   
    46   41   25 1    
    47   42   25 1    
    48   27   26 ar   
    49   28   27 ar   
    50   43   27 1    
    51   29   28 ar   
@<TRIPOS>SUBSTRUCTURE
     1 SSA500      1 GROUP   
@<TRIPOS>SET

