#    Name: 2fpg_GDP_1_INTS_M
#    Modification time : Tue Mar 25 13:02:09 2014

@<TRIPOS>MOLECULE
2fpg_GDP_1_INTS_M
   48     0    12     0     0
SMALL
NO_CHARGES


@<TRIPOS>ATOM
      1 NZ         92.1660   47.4360   -2.1125 N.4       3 LYC4        0.0000 
      2 NZ         92.9500   48.4190   -1.6090 N.4      11 LYL4        0.0000 
      3 NZ         91.2950   45.9800   -3.8550 N.4       7 LYP4        0.0000 
      4 NZ         92.2985   49.5305   -2.9855 N.4       3 LYC4        0.0000 
      5 NZ         91.6470   50.6420   -4.3620 N.4       7 LYP4        0.0000 
      6 N          93.2385   48.0155   -0.2760 N.am      2 SEC2        0.0000 
      7 N          92.9500   48.4190   -1.6090 N.am     10 SEL2        0.0000 
      8 N          93.5270   47.6120    1.0570 N.am      6 SEP2        0.0000 
      9 N          92.1660   47.4360   -2.1125 N.am      2 SEC2        0.0000 
     10 N          91.3820   46.4530   -2.6160 N.am      6 SEP2        0.0000 
     11 N          95.4690   46.9725   -0.1920 N.am      2 SEC2        0.0000 
     12 N          95.3640   48.1440   -0.8760 N.am     10 SEL2        0.0000 
     13 N          95.5740   45.8010    0.4920 N.am      6 SEP2        0.0000 
     14 NZ         93.0830   50.4830   -3.2195 N.4       3 LYC4        0.0000 
     15 NZ         94.5190   50.3240   -2.0770 N.4      11 LYL4        0.0000 
     16 N          93.9365   50.2695   -0.7470 N.am      2 SEC2        0.0000 
     17 N          94.5190   50.3240   -2.0770 N.am     10 SEL2        0.0000 
     18 N          93.3540   50.2150    0.5830 N.am      6 SEP2        0.0000 
     19 N          93.3840   47.2545   -4.1185 N.am      2 SEC2        0.0000 
     20 N          94.6750   48.0680   -3.4250 N.am     10 SEL2        0.0000 
     21 N          92.0930   46.4410   -4.8120 N.am      6 SEP2        0.0000 
     22 CA         97.4940   45.9560   -1.1450 C.3       4 GLC5        0.0000 
     23 CA         98.1040   46.7480   -2.7650 C.3      12 GLL5        0.0000 
     24 CA         96.8840   45.1640    0.4750 C.3       8 GLP5        0.0000 
     25 CA         96.9570   45.3745   -2.8740 C.3       4 GLC5        0.0000 
     26 CA         95.8100   44.0010   -2.9830 C.3       8 GLP5        0.0000 
     27 CA         98.1880   44.8405   -3.3045 C.3       4 GLC5        0.0000 
     28 CA         99.4310   46.6670   -3.5430 C.3      12 GLL5        0.0000 
     29 CA         96.9450   43.0140   -3.0660 C.3       8 GLP5        0.0000 
     30 CA         98.8375   44.3305   -5.0330 C.3       4 GLC5        0.0000 
     31 CA        100.3650   45.9020   -5.5400 C.3      12 GLL5        0.0000 
     32 CA         97.3100   42.7590   -4.5260 C.3       8 GLP5        0.0000 
     33 CA         99.3060   42.2225   -9.1475 C.3       4 GLC5        0.0000 
     34 CA         99.9540   44.3300   -8.8230 C.3      12 GLL5        0.0000 
     35 CA         98.6580   40.1150   -9.4720 C.3       8 GLP5        0.0000 
     36 N          99.1930   43.3830  -11.9410 N.am      2 SEC2        0.0000 
     37 N          99.9200   43.3030  -10.8930 N.am     10 SEL2        0.0000 
     38 N          98.4660   43.4630  -12.9890 N.am      6 SEP2        0.0000 
     39 N         100.8120   42.6050  -12.1895 N.am      2 SEC2        0.0000 
     40 N         101.7040   41.9070  -13.4860 N.am      6 SEP2        0.0000 
     41 O         102.7340   43.3080  -11.1705 O.2       1 ALC1        0.0000 
     42 O         101.9070   43.3610   -9.8590 O.2       9 ALL1        0.0000 
     43 O         103.5610   43.2550  -12.4820 O.2       5 ALP1        0.0000 
     44 CA        100.8635   42.4017   -7.9497 C.3       4 GLC5        0.0000 
     45 CA        100.7740   44.6890   -7.7260 C.3      12 GLL5        0.0000 
     46 CA        101.3630   40.2940   -7.6250 C.3       8 GLP5        0.0000 
     47 CA        101.6040   45.9868   -9.2123 C.3       4 GLC5        0.0000 
     48 CA        102.8440   47.4640  -10.1500 C.3       8 GLP5        0.0000 
@<TRIPOS>BOND
@<TRIPOS>SUBSTRUCTURE
     1 ALC1       41 GROUP        1 X    ALC  0     ROOT ALC X 1
     2 SEC2        6 GROUP        1 X    SEC  0     **** SEC X 2
     3 LYC4        1 GROUP        1 X    LYC  0     **** LYC X 4
     4 GLC5       22 GROUP        1 X    GLC  0     **** GLC X 6
     5 ALP1       43 GROUP        1 Y    ALP  0     ROOT ALP Y 8
     6 SEP2        8 GROUP        1 Y    SEP  0     **** SEP Y 9
     7 LYP4        3 GROUP        1 Y    LYP  0     **** LYP Y 11
     8 GLP5       24 GROUP        1 Y    GLP  0     **** GLP Y 13
     9 ALL1       42 GROUP        1 Z    ALL  0     ROOT ALL Z 15
    10 SEL2        7 GROUP        1 Z    SEL  0     **** SEL Z 16
    11 LYL4        2 GROUP        1 Z    LYL  0     **** LYL Z 18
    12 GLL5       23 GROUP        1 Z    GLL  0     **** GLL Z 20
@<TRIPOS>SET

