#    Name: 2fpg_GDP_1_ligand
#    Modification time : Tue Mar 25 13:02:09 2014

@<TRIPOS>MOLECULE
2fpg_GDP_1_ligand
   40    42     1     0     0
SMALL
NO_CHARGES


@<TRIPOS>ATOM
      1 PB         94.3480   48.7350   -1.9790 P.3       1 GDP397      0.0000 
      2 O1B        92.9500   48.4190   -1.6090 O.co2     1 GDP397      0.0000 
      3 O2B        95.3640   48.1440   -0.8760 O.co2     1 GDP397      0.0000 
      4 O3B        94.5190   50.3240   -2.0770 O.co2     1 GDP397      0.0000 
      5 O3A        94.6750   48.0680   -3.4250 O.3       1 GDP397      0.0000 
      6 PA         96.2710   48.1900   -3.7540 P.3       1 GDP397      0.0000 
      7 O1A        96.4160   48.6890   -5.1520 O.co2     1 GDP397      0.0000 
      8 O2A        96.9860   49.2320   -2.7220 O.co2     1 GDP397      0.0000 
      9 O5'        96.9750   46.7100   -3.6710 O.3       1 GDP397      0.0000 
     10 C5'        98.1040   46.7480   -2.7650 C.3       1 GDP397      0.0000 
     11 C4'        99.4310   46.6670   -3.5430 C.3       1 GDP397      0.0000 
     12 O4'        99.4050   45.5740   -4.4940 O.3       1 GDP397      0.0000 
     13 C3'        99.6890   47.9460   -4.3650 C.3       1 GDP397      0.0000 
     14 O3'       100.4860   48.8880   -3.6310 O.3       1 GDP397      0.0000 
     15 C2'       100.3730   47.4480   -5.6470 C.3       1 GDP397      0.0000 
     16 O2'       101.6910   47.9780   -5.7940 O.3       1 GDP397      0.0000 
     17 C1'       100.3650   45.9020   -5.5400 C.3       1 GDP397      0.0000 
     18 N9         99.9550   45.3280   -6.8380 N.pl3     1 GDP397      0.0000 
     19 C8         98.6900   45.3420   -7.3870 C.2       1 GDP397      0.0000 
     20 N7         98.6970   44.7540   -8.5460 N.2       1 GDP397      0.0000 
     21 C5         99.9540   44.3300   -8.8230 C.2       1 GDP397      0.0000 
     22 C6        100.5690   43.6350   -9.9200 C.2       1 GDP397      0.0000 
     23 O6         99.9200   43.3030  -10.8930 O.2       1 GDP397      0.0000 
     24 N1        101.9070   43.3610   -9.8590 N.am      1 GDP397      0.0000 
     25 C2        102.6520   43.7340   -8.7660 C.2       1 GDP397      0.0000 
     26 N2        103.9850   43.4390   -8.7380 N.pl3     1 GDP397      0.0000 
     27 N3        102.0980   44.3770   -7.7380 N.2       1 GDP397      0.0000 
     28 C4        100.7740   44.6890   -7.7260 C.2       1 GDP397      0.0000 
     29 H          98.0794   45.9083   -2.0602 H         1 GDP397      0.0000 
     30 H          98.1166   47.6758   -2.1807 H         1 GDP397      0.0000 
     31 H         100.2407   46.5487   -2.8516 H         1 GDP397      0.0000 
     32 H          98.7261   48.3395   -4.6428 H         1 GDP397      0.0000 
     33 H          99.7250   47.7069   -6.4740 H         1 GDP397      0.0000 
     34 H         101.3447   45.5929   -5.2719 H         1 GDP397      0.0000 
     35 H          97.9220   45.7497   -6.9312 H         1 GDP397      0.0000 
     36 H         102.3696   42.8645  -10.6474 H         1 GDP397      0.0000 
     37 H         104.4889   43.7554   -7.9343 H         1 GDP397      0.0000 
     38 H         104.3402   42.9325   -9.5237 H         1 GDP397      0.0000 
     39 H         100.0666   49.7777   -3.8115 H         1 GDP397      0.0000 
     40 H         101.8154   48.5837   -5.0081 H         1 GDP397      0.0000 
@<TRIPOS>BOND
     1    2    1 ar   
     2    3    1 ar   
     3    4    1 ar   
     4    5    1 1    
     5    6    5 1    
     6    7    6 ar   
     7    8    6 ar   
     8    9    6 1    
     9   10    9 1    
    10   11   10 1    
    11   29   10 1    
    12   30   10 1    
    13   12   11 1    
    14   13   11 1    
    15   31   11 1    
    16   17   12 1    
    17   14   13 1    
    18   15   13 1    
    19   32   13 1    
    20   39   14 1    
    21   16   15 1    
    22   17   15 1    
    23   33   15 1    
    24   40   16 1    
    25   18   17 1    
    26   34   17 1    
    27   19   18 1    
    28   28   18 1    
    29   20   19 2    
    30   35   19 1    
    31   21   20 1    
    32   22   21 1    
    33   28   21 2    
    34   23   22 2    
    35   24   22 am   
    36   25   24 1    
    37   36   24 1    
    38   26   25 1    
    39   27   25 2    
    40   37   26 1    
    41   38   26 1    
    42   28   27 1    
@<TRIPOS>SUBSTRUCTURE
     1 GDP397      1 GROUP   
@<TRIPOS>SET

