#    Name: 1sbg_IM1_1_INTS_M
#    Modification time : Tue Mar 25 02:13:42 2014

@<TRIPOS>MOLECULE
1sbg_IM1_1_INTS_M
   90     0     9     0     0
SMALL
NO_CHARGES


@<TRIPOS>ATOM
      1 CA         -7.1560   14.4830   34.6495 C.3       3 GLC5        0.0000 
      2 CA         -8.1940   15.2270   33.2470 C.3       9 GLL5        0.0000 
      3 CA         -6.1180   13.7390   36.0520 C.3       6 GLP5        0.0000 
      4 CA         -7.0895   13.8655   32.3935 C.3       3 GLC5        0.0000 
      5 CA         -5.9850   12.5040   31.5400 C.3       6 GLP5        0.0000 
      6 CA         -7.2895   18.3395   31.7840 C.3       3 GLC5        0.0000 
      7 CA         -8.8030   17.3840   32.3150 C.3       9 GLL5        0.0000 
      8 CA         -5.7760   19.2950   31.2530 C.3       6 GLP5        0.0000 
      9 CA        -10.0055   17.1660   36.2890 C.3       3 GLC5        0.0000 
     10 CA         -9.9550   16.4170   34.3030 C.3       9 GLL5        0.0000 
     11 CA        -10.0560   17.9150   38.2750 C.3       6 GLP5        0.0000 
     12 O         -12.4300   17.0190   30.2975 O.2       1 ALC1        0.0000 
     13 O         -11.2880   16.2180   29.9740 O.2       7 ALL1        0.0000 
     14 O         -13.5720   17.8200   30.6210 O.2       4 ALP1        0.0000 
     15 CA        -11.7470   12.7045   26.8760 C.3       3 GLC5        0.0000 
     16 CA        -12.5660   13.3720   28.6980 C.3       9 GLL5        0.0000 
     17 CA        -10.9280   12.0370   25.0540 C.3       6 GLP5        0.0000 
     18 N         -10.3110   19.7875   28.8060 N.am      2 SEC2        0.0000 
     19 N         -11.1280   18.6940   28.3500 N.am      8 SEL2        0.0000 
     20 N          -9.4940   20.8810   29.2620 N.am      5 SEP2        0.0000 
     21 O         -12.0625   19.3600   27.3745 O.2       1 ALC1        0.0000 
     22 O         -11.1280   18.6940   28.3500 O.2       7 ALL1        0.0000 
     23 O         -12.9970   20.0260   26.3990 O.2       4 ALP1        0.0000 
     24 CA         -6.4310   18.8070   29.4310 C.3       3 GLC5        0.0000 
     25 CA         -7.0860   18.3190   27.6090 C.3       9 GLL5        0.0000 
     26 CA         -5.9025   17.1785   29.0990 C.3       3 GLC5        0.0000 
     27 CA         -4.7190   16.0380   30.5890 C.3       6 GLP5        0.0000 
     28 CA         -2.3170   20.0350   26.0645 C.3       3 GLC5        0.0000 
     29 CA         -3.5820   18.8760   25.1420 C.3       9 GLL5        0.0000 
     30 CA         -1.0520   21.1940   26.9870 C.3       6 GLP5        0.0000 
     31 CA         -4.8075   16.7830   28.6090 C.3       3 GLC5        0.0000 
     32 CA         -4.8960   17.5280   26.6290 C.3       9 GLL5        0.0000 
     33 O          -8.4185   19.1790   24.6945 O.2       1 ALC1        0.0000 
     34 O          -8.1120   17.6080   24.4690 O.2       7 ALL1        0.0000 
     35 O          -8.7250   20.7500   24.9200 O.2       4 ALP1        0.0000 
     36 CA         -9.1915   18.5735   23.0975 C.3       3 GLC5        0.0000 
     37 CA         -7.9260   16.8390   23.2670 C.3       9 GLL5        0.0000 
     38 CA        -10.4570   20.3080   22.9280 C.3       6 GLP5        0.0000 
     39 CA         -9.6055   17.0985   19.2870 C.3       3 GLC5        0.0000 
     40 CA         -9.0190   16.6450   21.0380 C.3       9 GLL5        0.0000 
     41 CA        -10.1920   17.5520   17.5360 C.3       6 GLP5        0.0000 
     42 CA         -8.8595   14.6805   20.2905 C.3       3 GLC5        0.0000 
     43 CA         -8.7000   12.7160   19.5430 C.3       6 GLP5        0.0000 
     44 CA        -10.4015   13.7035   24.0320 C.3       3 GLC5        0.0000 
     45 CA         -9.8750   15.3700   23.0100 C.3       9 GLL5        0.0000 
     46 CA        -11.4320   14.3960   22.0865 C.3       3 GLC5        0.0000 
     47 CA        -12.9890   13.4220   21.1630 C.3       6 GLP5        0.0000 
     48 CA        -11.8760   14.9420   23.7450 C.3       3 GLC5        0.0000 
     49 CA        -13.8770   14.5140   24.4800 C.3       6 GLP5        0.0000 
     50 O          -7.9145   19.9100   23.6625 O.2       1 ALC1        0.0000 
     51 O          -7.1040   19.0700   22.4050 O.2       7 ALL1        0.0000 
     52 CA         -6.7965   20.3965   20.4450 C.3       3 GLC5        0.0000 
     53 CA         -5.9450   19.3470   21.8490 C.3       9 GLL5        0.0000 
     54 CA         -7.6480   21.4460   19.0410 C.3       6 GLP5        0.0000 
     55 CA        -10.3302   18.2188   33.0683 C.3       3 GLC5        0.0000 
     56 CA        -11.1380   19.8500   32.6740 C.3       6 GLP5        0.0000 
     57 CA         -7.7633   17.0127   34.6011 C.3       3 GLC5        0.0000 
     58 CA         -6.1520   17.5510   35.7000 C.3       6 GLP5        0.0000 
     59 CA        -13.4028   14.8678   26.4273 C.3       3 GLC5        0.0000 
     60 CA        -12.6630   15.8180   27.9700 C.3       9 GLL5        0.0000 
     61 CA        -14.6810   13.5602   28.0353 C.3       3 GLC5        0.0000 
     62 CA        -13.1940   14.6250   28.7790 C.3       9 GLL5        0.0000 
     63 CA        -16.4820   13.1220   27.3320 C.3       6 GLP5        0.0000 
     64 CA        -10.9750   12.2323   29.6340 C.3       3 GLC5        0.0000 
     65 CA         -9.1810   11.6190   30.1560 C.3       6 GLP5        0.0000 
     66 CA        -14.9863   12.7692   28.6545 C.3       3 GLC5        0.0000 
     67 CA        -12.9720   12.3190   29.5260 C.3       9 GLL5        0.0000 
     68 CA        -13.5640   10.9784   28.7405 C.3       3 GLC5        0.0000 
     69 CA        -14.0090   12.5140   30.4280 C.3       9 GLL5        0.0000 
     70 CA        -13.7390    9.2770   27.7110 C.3       6 GLP5        0.0000 
     71 CA        -15.4657   13.7055   28.7157 C.3       3 GLC5        0.0000 
     72 CA        -14.6490   13.7610   30.5080 C.3       9 GLL5        0.0000 
     73 CA        -15.1961   16.1436   28.6689 C.3       3 GLC5        0.0000 
     74 CA        -14.2500   14.8170   29.6910 C.3       9 GLL5        0.0000 
     75 CA        -16.8030   17.2680   28.3050 C.3       6 GLP5        0.0000 
     76 CA         -5.7705   21.6640   26.4010 C.3       3 GLC5        0.0000 
     77 CA         -5.6750   19.7570   26.0430 C.3       9 GLL5        0.0000 
     78 CA         -6.4350   23.4930   27.1580 C.3       6 GLP5        0.0000 
     79 CA         -4.0643   20.3268   27.1070 C.3       3 GLC5        0.0000 
     80 CA         -4.5370   19.9130   25.2450 C.3       9 GLL5        0.0000 
     81 CA         -2.9780   21.1200   28.3960 C.3       6 GLP5        0.0000 
     82 CA         -2.6098   16.8105   26.9328 C.3       3 GLC5        0.0000 
     83 CA         -3.7630   17.6880   25.8340 C.3       9 GLL5        0.0000 
     84 CA         -0.8900   16.0130   27.6340 C.3       6 GLP5        0.0000 
     85 CA         -3.6538   19.3640   27.3138 C.3       3 GLC5        0.0000 
     86 CA         -4.7992   15.7320   25.9632 C.3       3 GLC5        0.0000 
     87 CA         -5.2690   13.8560   25.6950 C.3       6 GLP5        0.0000 
     88 CA        -10.5727   17.7091   22.5685 C.3       3 GLC5        0.0000 
     89 CA         -9.2330   16.6760   22.5340 C.3       9 GLL5        0.0000 
     90 CA        -11.6450   19.4030   22.7390 C.3       6 GLP5        0.0000 
@<TRIPOS>BOND
@<TRIPOS>SUBSTRUCTURE
     1 ALC1       12 GROUP        1 X    ALC  0     ROOT ALC X 1
     2 SEC2       18 GROUP        1 X    SEC  0     **** SEC X 2
     3 GLC5        1 GROUP        1 X    GLC  0     **** GLC X 6
     4 ALP1       14 GROUP        1 Y    ALP  0     ROOT ALP Y 8
     5 SEP2       20 GROUP        1 Y    SEP  0     **** SEP Y 9
     6 GLP5        3 GROUP        1 Y    GLP  0     **** GLP Y 13
     7 ALL1       13 GROUP        1 Z    ALL  0     ROOT ALL Z 15
     8 SEL2       19 GROUP        1 Z    SEL  0     **** SEL Z 16
     9 GLL5        2 GROUP        1 Z    GLL  0     **** GLL Z 20
@<TRIPOS>SET

