#    Name: 1sbg_IM1_1_ligand
#    Modification time : Tue Mar 25 02:13:42 2014

@<TRIPOS>MOLECULE
1sbg_IM1_1_ligand
   81    83     1     0     0
SMALL
NO_CHARGES


@<TRIPOS>ATOM
      1 C1         -9.3770   16.1320   32.9290 C.3       1 IM1400      0.0000 
      2 C2         -8.1940   15.2270   33.2470 C.3       1 IM1400      0.0000 
      3 C3         -8.8030   17.3840   32.3150 C.3       1 IM1400      0.0000 
      4 C4         -9.9550   16.4170   34.3030 C.3       1 IM1400      0.0000 
      5 O5        -10.3690   15.5620   32.1090 O.3       1 IM1400      0.0000 
      6 C6        -10.3410   15.5740   30.6980 C.2       1 IM1400      0.0000 
      7 O7         -9.4330   14.9910   30.0760 O.2       1 IM1400      0.0000 
      8 N8        -11.2880   16.2180   29.9740 N.am      1 IM1400      0.0000 
      9 C9        -11.2530   16.2170   28.4840 C.3       1 IM1400      0.0000 
     10 C10       -12.6630   15.8180   27.9700 C.3       1 IM1400      0.0000 
     11 C11       -13.1940   14.6250   28.7790 C.ar      1 IM1400      0.0000 
     12 C12       -12.5660   13.3720   28.6980 C.ar      1 IM1400      0.0000 
     13 C13       -12.9720   12.3190   29.5260 C.ar      1 IM1400      0.0000 
     14 C14       -14.0090   12.5140   30.4280 C.ar      1 IM1400      0.0000 
     15 C15       -14.6490   13.7610   30.5080 C.ar      1 IM1400      0.0000 
     16 C16       -14.2500   14.8170   29.6910 C.ar      1 IM1400      0.0000 
     17 C17       -10.7480   17.4760   27.7290 C.3       1 IM1400      0.0000 
     18 O18       -11.1280   18.6940   28.3500 O.3       1 IM1400      0.0000 
     19 C19        -9.2750   17.4280   27.8840 C.3       1 IM1400      0.0000 
     20 C20        -8.3950   18.0100   26.8520 C.3       1 IM1400      0.0000 
     21 C21        -7.0860   18.3190   27.6090 C.3       1 IM1400      0.0000 
     22 C22        -5.8530   18.5510   26.7390 C.ar      1 IM1400      0.0000 
     23 C23        -5.6750   19.7570   26.0430 C.ar      1 IM1400      0.0000 
     24 C24        -4.5370   19.9130   25.2450 C.ar      1 IM1400      0.0000 
     25 C25        -3.5820   18.8760   25.1420 C.ar      1 IM1400      0.0000 
     26 C26        -3.7630   17.6880   25.8340 C.ar      1 IM1400      0.0000 
     27 C27        -4.8960   17.5280   26.6290 C.ar      1 IM1400      0.0000 
     28 C28        -8.2370   17.0300   25.6550 C.2       1 IM1400      0.0000 
     29 O29        -8.2100   15.7820   25.7390 O.2       1 IM1400      0.0000 
     30 N30        -8.1120   17.6080   24.4690 N.am      1 IM1400      0.0000 
     31 C31        -7.9260   16.8390   23.2670 C.3       1 IM1400      0.0000 
     32 C32        -9.2330   16.6760   22.5340 C.3       1 IM1400      0.0000 
     33 C33        -9.0190   16.6450   21.0380 C.3       1 IM1400      0.0000 
     34 C34        -9.8750   15.3700   23.0100 C.3       1 IM1400      0.0000 
     35 C35        -6.9600   17.7470   22.5340 C.2       1 IM1400      0.0000 
     36 N36        -7.1040   19.0700   22.4050 N.pl3     1 IM1400      0.0000 
     37 C37        -5.9450   19.3470   21.8490 C.2       1 IM1400      0.0000 
     38 C38        -5.1310   18.2030   21.6420 C.2       1 IM1400      0.0000 
     39 N39        -5.8300   17.1880   22.1020 N.2       1 IM1400      0.0000 
     40 H         -12.0668   16.7322   30.4043 H         1 IM1400      0.0000 
     41 H         -10.5967   15.3600   28.1547 H         1 IM1400      0.0000 
     42 H         -12.5906   15.5443   26.9269 H         1 IM1400      0.0000 
     43 H         -13.3297   16.6605   28.0878 H         1 IM1400      0.0000 
     44 H         -11.8023   13.2286   28.0248 H         1 IM1400      0.0000 
     45 H         -12.5025   11.4100   29.4627 H         1 IM1400      0.0000 
     46 H         -14.3141   11.7483   31.0416 H         1 IM1400      0.0000 
     47 H         -15.4200   13.8919   31.1781 H         1 IM1400      0.0000 
     48 H         -14.7145   15.7240   29.7479 H         1 IM1400      0.0000 
     49 H         -10.9975   17.4059   26.7216 H         1 IM1400      0.0000 
     50 H          -8.9693   16.3391   28.0459 H         1 IM1400      0.0000 
     51 H          -9.0076   17.8960   28.8913 H         1 IM1400      0.0000 
     52 H          -8.8137   18.9350   26.5110 H         1 IM1400      0.0000 
     53 H          -6.8817   17.4821   28.3079 H         1 IM1400      0.0000 
     54 H          -7.2530   19.2136   28.2433 H         1 IM1400      0.0000 
     55 H          -6.3621   20.5020   26.1191 H         1 IM1400      0.0000 
     56 H          -4.3878   20.7873   24.7261 H         1 IM1400      0.0000 
     57 H          -2.7548   19.0145   24.5493 H         1 IM1400      0.0000 
     58 H          -3.0734   16.9349   25.7635 H         1 IM1400      0.0000 
     59 H          -5.0392   16.6465   27.1470 H         1 IM1400      0.0000 
     60 H          -8.1426   18.6458   24.3522 H         1 IM1400      0.0000 
     61 H          -7.4593   15.9280   23.4677 H         1 IM1400      0.0000 
     62 H          -9.8869   17.4869   22.7925 H         1 IM1400      0.0000 
     63 H          -7.8078   19.6091   22.6394 H         1 IM1400      0.0000 
     64 H          -5.6213   20.2464   21.5810 H         1 IM1400      0.0000 
     65 H          -4.2757   18.2314   21.2506 H         1 IM1400      0.0000 
     66 H          -7.6724   14.9952   32.4259 H         1 IM1400      0.0000 
     67 H          -7.5576   15.6585   33.8864 H         1 IM1400      0.0000 
     68 H          -8.4865   14.3652   33.6614 H         1 IM1400      0.0000 
     69 H          -8.1768   17.8506   32.9397 H         1 IM1400      0.0000 
     70 H          -8.2903   17.1865   31.4794 H         1 IM1400      0.0000 
     71 H          -9.5177   18.0399   32.0722 H         1 IM1400      0.0000 
     72 H          -9.2666   16.7892   34.9256 H         1 IM1400      0.0000 
     73 H         -10.7019   17.0806   34.2614 H         1 IM1400      0.0000 
     74 H         -10.3208   15.5904   34.7308 H         1 IM1400      0.0000 
     75 H          -8.5916   17.4861   20.7065 H         1 IM1400      0.0000 
     76 H          -8.4270   15.8874   20.7631 H         1 IM1400      0.0000 
     77 H          -9.8806   16.5387   20.5417 H         1 IM1400      0.0000 
     78 H          -9.2913   14.5797   22.8236 H         1 IM1400      0.0000 
     79 H         -10.0499   15.3794   23.9945 H         1 IM1400      0.0000 
     80 H         -10.7509   15.2005   22.5583 H         1 IM1400      0.0000 
     81 H         -11.7667   19.1221   27.7106 H         1 IM1400      0.0000 
@<TRIPOS>BOND
     1    2    1 1    
     2    3    1 1    
     3    4    1 1    
     4    5    1 1    
     5   66    2 1    
     6   67    2 1    
     7   68    2 1    
     8   69    3 1    
     9   70    3 1    
    10   71    3 1    
    11   72    4 1    
    12   73    4 1    
    13   74    4 1    
    14    6    5 1    
    15    7    6 2    
    16    8    6 am   
    17    9    8 1    
    18   40    8 1    
    19   10    9 1    
    20   17    9 1    
    21   41    9 1    
    22   11   10 1    
    23   42   10 1    
    24   43   10 1    
    25   12   11 ar   
    26   16   11 ar   
    27   13   12 ar   
    28   44   12 1    
    29   14   13 ar   
    30   45   13 1    
    31   15   14 ar   
    32   46   14 1    
    33   16   15 ar   
    34   47   15 1    
    35   48   16 1    
    36   18   17 1    
    37   19   17 1    
    38   49   17 1    
    39   81   18 1    
    40   20   19 1    
    41   50   19 1    
    42   51   19 1    
    43   21   20 1    
    44   28   20 1    
    45   52   20 1    
    46   22   21 1    
    47   53   21 1    
    48   54   21 1    
    49   23   22 ar   
    50   27   22 ar   
    51   24   23 ar   
    52   55   23 1    
    53   25   24 ar   
    54   56   24 1    
    55   26   25 ar   
    56   57   25 1    
    57   27   26 ar   
    58   58   26 1    
    59   59   27 1    
    60   29   28 2    
    61   30   28 am   
    62   31   30 1    
    63   60   30 1    
    64   32   31 1    
    65   35   31 1    
    66   61   31 1    
    67   33   32 1    
    68   34   32 1    
    69   62   32 1    
    70   75   33 1    
    71   76   33 1    
    72   77   33 1    
    73   78   34 1    
    74   79   34 1    
    75   80   34 1    
    76   36   35 1    
    77   39   35 2    
    78   37   36 1    
    79   63   36 1    
    80   38   37 2    
    81   64   37 1    
    82   39   38 1    
    83   65   38 1    
@<TRIPOS>SUBSTRUCTURE
     1 IM1400      1 GROUP   
@<TRIPOS>SET

