#    Name: 3u51_08X_1_INTS_M
#    Modification time : Mon Mar 24 21:39:29 2014

@<TRIPOS>MOLECULE
3u51_08X_1_INTS_M
   73     0     6     0     0
SMALL
NO_CHARGES


@<TRIPOS>ATOM
      1 CA        -19.1375   25.3900    6.9370 C.3       2 GLC5        0.0000 
      2 CA        -19.9670   24.1630    8.3600 C.3       6 GLL5        0.0000 
      3 CA        -18.3080   26.6170    5.5140 C.3       4 GLP5        0.0000 
      4 CA        -25.9735   21.2850    9.8020 C.3       2 GLC5        0.0000 
      5 CA        -27.1710   22.1110    8.1390 C.3       6 GLL5        0.0000 
      6 CA        -24.7760   20.4590   11.4650 C.3       4 GLP5        0.0000 
      7 CA        -26.4035   19.6405    8.4260 C.3       2 GLC5        0.0000 
      8 CA        -25.4080   20.6050    7.1360 C.3       6 GLL5        0.0000 
      9 CA        -27.3990   18.6760    9.7160 C.3       4 GLP5        0.0000 
     10 CA        -25.2285   19.2020    8.7215 C.3       2 GLC5        0.0000 
     11 CA        -24.1800   20.5260    7.7990 C.3       6 GLL5        0.0000 
     12 CA        -26.2770   17.8780    9.6440 C.3       4 GLP5        0.0000 
     13 CA        -18.4205   14.9700    5.7485 C.3       2 GLC5        0.0000 
     14 CA        -19.6600   15.7070    7.2300 C.3       6 GLL5        0.0000 
     15 CA        -17.1810   14.2330    4.2670 C.3       4 GLP5        0.0000 
     16 CA        -23.9100   12.3030    5.0130 C.3       2 GLC5        0.0000 
     17 CA        -23.2270   13.3290    6.4160 C.3       6 GLL5        0.0000 
     18 CA        -24.5930   11.2770    3.6100 C.3       4 GLP5        0.0000 
     19 CA        -22.6150   11.2740    7.4845 C.3       2 GLC5        0.0000 
     20 CA        -21.8780   12.7280    6.1630 C.3       6 GLL5        0.0000 
     21 CA        -23.3520    9.8200    8.8060 C.3       4 GLP5        0.0000 
     22 CA        -22.7215   11.5520    4.7935 C.3       2 GLC5        0.0000 
     23 CA        -23.5650   10.3760    3.4240 C.3       4 GLP5        0.0000 
     24 CA        -20.7670   11.1425    5.0440 C.3       2 GLC5        0.0000 
     25 CA        -19.6560    9.5570    3.9250 C.3       4 GLP5        0.0000 
     26 CA        -12.2700   17.0690    6.8140 C.3       2 GLC5        0.0000 
     27 CA        -11.8040   17.7710    4.7770 C.3       6 GLL5        0.0000 
     28 CA        -12.7360   16.3670    8.8510 C.3       4 GLP5        0.0000 
     29 CA        -12.1190   19.3310    3.8880 C.3       2 GLC5        0.0000 
     30 CA        -12.4340   20.8910    2.9990 C.3       4 GLP5        0.0000 
     31 CA         -9.3485   20.5565    5.2515 C.3       2 GLC5        0.0000 
     32 CA         -9.7990   18.8540    5.3290 C.3       6 GLL5        0.0000 
     33 CA         -8.8980   22.2590    5.1740 C.3       4 GLP5        0.0000 
     34 CA        -11.1165   19.8725    4.1640 C.3       2 GLC5        0.0000 
     35 CA         -8.2540   18.0875    3.0495 C.3       2 GLC5        0.0000 
     36 CA         -9.0820   17.7730    4.8370 C.3       6 GLL5        0.0000 
     37 CA         -7.4260   18.4020    1.2620 C.3       4 GLP5        0.0000 
     38 N          -8.7765   16.8700    2.9530 N.am      1 SEC2        0.0000 
     39 N          -9.7320   16.6990    4.3150 N.am      5 SEL2        0.0000 
     40 N          -7.8210   17.0410    1.5910 N.am      3 SEP2        0.0000 
     41 CA        -10.8065   14.9935    4.3065 C.3       2 GLC5        0.0000 
     42 CA        -11.0850   16.6880    4.2800 C.3       6 GLL5        0.0000 
     43 CA        -10.5280   13.2990    4.3330 C.3       4 GLP5        0.0000 
     44 CA        -12.1330   17.8990    2.8435 C.3       2 GLC5        0.0000 
     45 CA        -13.1810   19.1100    1.4070 C.3       4 GLP5        0.0000 
     46 N         -13.8675   25.6235    6.9780 N.am      1 SEC2        0.0000 
     47 N         -14.9680   25.4650    7.7320 N.am      5 SEL2        0.0000 
     48 N         -12.7670   25.7820    6.2240 N.am      3 SEP2        0.0000 
     49 CA        -28.4682   25.5845    7.9085 C.3       2 GLC5        0.0000 
     50 CA        -27.6790   24.2840    7.1870 C.3       6 GLL5        0.0000 
     51 CA        -29.1420   27.3730    8.1460 C.3       4 GLP5        0.0000 
     52 CA        -27.3772   25.7485    6.2510 C.3       2 GLC5        0.0000 
     53 CA        -27.5610   27.3180    5.8110 C.3       4 GLP5        0.0000 
     54 CA        -24.7850   20.5123    9.4662 C.3       2 GLC5        0.0000 
     55 CA        -18.9710   13.3238    6.4035 C.3       2 GLC5        0.0000 
     56 CA        -20.7500   14.6450    7.3810 C.3       6 GLL5        0.0000 
     57 CA        -17.1720   12.4390    6.0470 C.3       4 GLP5        0.0000 
     58 CA        -23.8773   15.2150    8.8577 C.3       2 GLC5        0.0000 
     59 CA        -22.1340   15.2120    7.6250 C.3       6 GLL5        0.0000 
     60 CA        -25.0690   15.7350   10.0820 C.3       4 GLP5        0.0000 
     61 CA        -24.1690   12.6807    7.9940 C.3       2 GLC5        0.0000 
     62 CA        -23.2370   14.1780    7.6420 C.3       6 GLL5        0.0000 
     63 CA        -25.1060   11.6080    8.9590 C.3       4 GLP5        0.0000 
     64 CA        -15.1100   17.3272    8.7545 C.3       2 GLC5        0.0000 
     65 CA        -16.6240   18.9680    9.2920 C.3       6 GLL5        0.0000 
     66 CA        -14.1080   15.7330    8.7880 C.3       4 GLP5        0.0000 
     67 CA        -15.1713   16.7937    6.8510 C.3       2 GLC5        0.0000 
     68 CA        -16.1960   18.0420    6.9960 C.3       6 GLL5        0.0000 
     69 CA        -14.4570   15.3570    7.3710 C.3       4 GLP5        0.0000 
     70 CA        -16.1382   16.8137    5.0065 C.3       2 GLC5        0.0000 
     71 CA        -16.3910   15.3970    3.6820 C.3       4 GLP5        0.0000 
     72 CA         -9.1872   17.1953    6.6445 C.3       2 GLC5        0.0000 
     73 CA         -8.9340   16.0770    8.2060 C.3       4 GLP5        0.0000 
@<TRIPOS>BOND
@<TRIPOS>SUBSTRUCTURE
     1 SEC2       38 GROUP        1 X    SEC  0     ROOT SEC X 2
     2 GLC5        1 GROUP        1 X    GLC  0     **** GLC X 6
     3 SEP2       40 GROUP        1 Y    SEP  0     ROOT SEP Y 9
     4 GLP5        3 GROUP        1 Y    GLP  0     **** GLP Y 13
     5 SEL2       39 GROUP        1 Z    SEL  0     ROOT SEL Z 16
     6 GLL5        2 GROUP        1 Z    GLL  0     **** GLL Z 20
@<TRIPOS>SET

