#    Name: 3u51_08X_1_ligand
#    Modification time : Mon Mar 24 21:39:29 2014

@<TRIPOS>MOLECULE
3u51_08X_1_ligand
  103   106     1     0     0
SMALL
NO_CHARGES


@<TRIPOS>ATOM
      1 C26       -18.4240   24.1990    8.3250 C.2       1 08X1        0.0000 
      2 O27       -17.8260   23.8490    7.3130 O.2       1 08X1        0.0000 
      3 C28       -19.9670   24.1630    8.3600 C.2       1 08X1        0.0000 
      4 C29       -20.7250   23.1370    7.7520 C.2       1 08X1        0.0000 
      5 C30       -20.0770   21.9880    6.9930 C.2       1 08X1        0.0000 
      6 O31       -19.1310   22.1950    6.2760 O.2       1 08X1        0.0000 
      7 C01       -27.6790   24.2840    7.1870 C.ar      1 08X1        0.0000 
      8 C02       -26.7080   24.0740    6.1950 C.ar      1 08X1        0.0000 
      9 C03       -25.9710   22.8810    6.1780 C.ar      1 08X1        0.0000 
     10 C04       -26.2030   21.8990    7.1510 C.ar      1 08X1        0.0000 
     11 C05       -27.1710   22.1110    8.1390 C.ar      1 08X1        0.0000 
     12 C06       -27.9100   23.3080    8.1550 C.ar      1 08X1        0.0000 
     13 C07       -25.4080   20.6050    7.1360 C.2       1 08X1        0.0000 
     14 C08       -24.1800   20.5260    7.7990 C.2       1 08X1        0.0000 
     15 C09       -22.9440   20.1080    7.0070 C.3       1 08X1        0.0000 
     16 C10       -21.7030   20.1970    7.8940 C.3       1 08X1        0.0000 
     17 C11       -21.3110   18.8590    8.5370 C.2       1 08X1        0.0000 
     18 O12       -21.8270   18.4720    9.5780 O.2       1 08X1        0.0000 
     19 N32       -20.5670   20.6290    7.0780 N.am      1 08X1        0.0000 
     20 N13       -20.2930   18.0660    7.8460 N.am      1 08X1        0.0000 
     21 C14       -19.7890   16.7830    8.3360 C.3       1 08X1        0.0000 
     22 C15       -18.4220   17.1210    8.9830 C.2       1 08X1        0.0000 
     23 O16       -17.8000   16.2950    9.6250 O.2       1 08X1        0.0000 
     24 C48       -19.6600   15.7070    7.2300 C.3       1 08X1        0.0000 
     25 C49       -20.7500   14.6450    7.3810 C.3       1 08X1        0.0000 
     26 C50       -22.1340   15.2120    7.6250 C.3       1 08X1        0.0000 
     27 C51       -23.2370   14.1780    7.6420 C.3       1 08X1        0.0000 
     28 C52       -23.2270   13.3290    6.4160 C.3       1 08X1        0.0000 
     29 C53       -21.8780   12.7280    6.1630 C.3       1 08X1        0.0000 
     30 C54       -20.7900   13.7720    6.1390 C.3       1 08X1        0.0000 
     31 C19       -16.7150   20.3930    9.8250 C.2       1 08X1        0.0000 
     32 O20       -17.8040   20.9420    9.9270 O.2       1 08X1        0.0000 
     33 C18       -16.6240   18.9680    9.2920 C.3       1 08X1        0.0000 
     34 N17       -17.9130   18.4740    8.7650 N.am      1 08X1        0.0000 
     35 C36       -15.6000   18.8750    8.1500 C.3       1 08X1        0.0000 
     36 C37       -16.1960   18.0420    6.9960 C.3       1 08X1        0.0000 
     37 C38       -15.5750   18.4190    5.6660 C.3       1 08X1        0.0000 
     38 N39       -14.1090   18.4260    5.7430 N.am      1 08X1        0.0000 
     39 C40       -13.3240   17.7550    4.7210 C.2       1 08X1        0.0000 
     40 O41       -13.8790   17.1730    3.7970 O.2       1 08X1        0.0000 
     41 C42       -11.8040   17.7710    4.7770 C.ar      1 08X1        0.0000 
     42 N47       -11.1580   18.8400    5.2900 N.ar      1 08X1        0.0000 
     43 C46        -9.7990   18.8540    5.3290 C.ar      1 08X1        0.0000 
     44 C45        -9.0820   17.7730    4.8370 C.ar      1 08X1        0.0000 
     45 N44        -9.7320   16.6990    4.3150 N.ar      1 08X1        0.0000 
     46 C43       -11.0850   16.6880    4.2800 C.ar      1 08X1        0.0000 
     47 N25       -17.6990   24.6530    9.5070 N.am      1 08X1        0.0000 
     48 C24       -16.2170   24.7260    9.6120 C.3       1 08X1        0.0000 
     49 C33       -15.6130   25.7840    8.7050 C.2       1 08X1        0.0000 
     50 O34       -14.9680   25.4650    7.7320 O.2       1 08X1        0.0000 
     51 C23       -15.5660   23.3560    9.4390 C.3       1 08X1        0.0000 
     52 C22       -15.6430   22.4790   10.6830 C.3       1 08X1        0.0000 
     53 N21       -15.5190   21.1130   10.2030 N.am      1 08X1        0.0000 
     54 N35       -15.8000   27.1800    9.0080 N.am      1 08X1        0.0000 
     55 H         -20.4097   24.9387    8.8574 H         1 08X1        0.0000 
     56 H         -21.7447   23.1255    7.7980 H         1 08X1        0.0000 
     57 H         -28.2164   25.1577    7.1956 H         1 08X1        0.0000 
     58 H         -26.5386   24.7916    5.4848 H         1 08X1        0.0000 
     59 H         -25.2625   22.7273    5.4538 H         1 08X1        0.0000 
     60 H         -27.3441   21.3965    8.8522 H         1 08X1        0.0000 
     61 H         -28.6179   23.4571    8.8817 H         1 08X1        0.0000 
     62 H         -25.8123   19.8306    6.6316 H         1 08X1        0.0000 
     63 H         -24.0536   20.7266    8.7672 H         1 08X1        0.0000 
     64 H         -22.8232   20.7669    6.1535 H         1 08X1        0.0000 
     65 H         -23.0659   19.0867    6.6615 H         1 08X1        0.0000 
     66 H         -21.8763   20.9148    8.6767 H         1 08X1        0.0000 
     67 H         -20.0782   19.8971    6.5179 H         1 08X1        0.0000 
     68 H         -19.9084   18.4338    6.9613 H         1 08X1        0.0000 
     69 H         -20.4270   16.4126    9.1237 H         1 08X1        0.0000 
     70 H         -18.6834   15.2395    7.3087 H         1 08X1        0.0000 
     71 H         -19.7526   16.1880    6.2612 H         1 08X1        0.0000 
     72 H         -20.4863   13.9991    8.2227 H         1 08X1        0.0000 
     73 H         -22.3563   15.9643    6.8437 H         1 08X1        0.0000 
     74 H         -22.1339   15.7558    8.5893 H         1 08X1        0.0000 
     75 H         -24.2056   14.6912    7.7306 H         1 08X1        0.0000 
     76 H         -23.1186   13.5449    8.5333 H         1 08X1        0.0000 
     77 H         -23.5234   13.9349    5.5462 H         1 08X1        0.0000 
     78 H         -23.9696   12.5233    6.5201 H         1 08X1        0.0000 
     79 H         -21.8876   12.1955    5.2015 H         1 08X1        0.0000 
     80 H         -21.6520   11.9901    6.9457 H         1 08X1        0.0000 
     81 H         -19.8105   13.2746    6.0211 H         1 08X1        0.0000 
     82 H         -20.9249   14.4183    5.2531 H         1 08X1        0.0000 
     83 H         -16.2816   18.3138   10.0850 H         1 08X1        0.0000 
     84 H         -18.4849   19.1295    8.2093 H         1 08X1        0.0000 
     85 H         -14.7036   18.3923    8.5097 H         1 08X1        0.0000 
     86 H         -15.3720   19.8673    7.7903 H         1 08X1        0.0000 
     87 H         -17.2725   18.2135    6.9618 H         1 08X1        0.0000 
     88 H         -16.0173   16.9856    7.1999 H         1 08X1        0.0000 
     89 H         -15.9487   19.4108    5.3745 H         1 08X1        0.0000 
     90 H         -15.9159   17.7023    4.9055 H         1 08X1        0.0000 
     91 H         -13.6543   18.8971    6.5058 H         1 08X1        0.0000 
     92 H          -9.2894   19.6625    5.7219 H         1 08X1        0.0000 
     93 H          -8.0467   17.7961    4.8731 H         1 08X1        0.0000 
     94 H         -11.6011   15.8818    3.8869 H         1 08X1        0.0000 
     95 H         -18.2440   24.9473   10.3364 H         1 08X1        0.0000 
     96 H         -15.9799   25.0458   10.6695 H         1 08X1        0.0000 
     97 H         -14.5084   23.4954    9.1629 H         1 08X1        0.0000 
     98 H         -16.0525   22.8328    8.6002 H         1 08X1        0.0000 
     99 H         -16.5923   22.6445   11.1621 H         1 08X1        0.0000 
    100 H         -14.8320   22.7419   11.3397 H         1 08X1        0.0000 
    101 H         -14.6191   20.6802   10.1362 H         1 08X1        0.0000 
    102 H         -16.3097   27.3844    9.8437 H         1 08X1        0.0000 
    103 H         -15.4045   27.8283    8.3574 H         1 08X1        0.0000 
@<TRIPOS>BOND
     1    2    1 2    
     2    3    1 1    
     3   47    1 am   
     4    4    3 2    
     5   55    3 1    
     6    5    4 1    
     7   56    4 1    
     8    6    5 2    
     9   19    5 am   
    10    8    7 ar   
    11   12    7 ar   
    12   57    7 1    
    13    9    8 ar   
    14   58    8 1    
    15   10    9 ar   
    16   59    9 1    
    17   11   10 ar   
    18   13   10 1    
    19   12   11 ar   
    20   60   11 1    
    21   61   12 1    
    22   14   13 2    
    23   62   13 1    
    24   15   14 1    
    25   63   14 1    
    26   16   15 1    
    27   64   15 1    
    28   65   15 1    
    29   17   16 1    
    30   19   16 1    
    31   66   16 1    
    32   18   17 2    
    33   20   17 am   
    34   67   19 1    
    35   21   20 1    
    36   68   20 1    
    37   22   21 1    
    38   24   21 1    
    39   69   21 1    
    40   23   22 2    
    41   34   22 am   
    42   25   24 1    
    43   70   24 1    
    44   71   24 1    
    45   26   25 1    
    46   30   25 1    
    47   72   25 1    
    48   27   26 1    
    49   73   26 1    
    50   74   26 1    
    51   28   27 1    
    52   75   27 1    
    53   76   27 1    
    54   29   28 1    
    55   77   28 1    
    56   78   28 1    
    57   30   29 1    
    58   79   29 1    
    59   80   29 1    
    60   81   30 1    
    61   82   30 1    
    62   32   31 2    
    63   33   31 1    
    64   53   31 am   
    65   34   33 1    
    66   35   33 1    
    67   83   33 1    
    68   84   34 1    
    69   36   35 1    
    70   85   35 1    
    71   86   35 1    
    72   37   36 1    
    73   87   36 1    
    74   88   36 1    
    75   38   37 1    
    76   89   37 1    
    77   90   37 1    
    78   39   38 am   
    79   91   38 1    
    80   40   39 2    
    81   41   39 1    
    82   42   41 ar   
    83   46   41 ar   
    84   43   42 ar   
    85   44   43 ar   
    86   92   43 1    
    87   45   44 ar   
    88   93   44 1    
    89   46   45 ar   
    90   94   46 1    
    91   48   47 1    
    92   95   47 1    
    93   49   48 1    
    94   51   48 1    
    95   96   48 1    
    96   50   49 2    
    97   54   49 am   
    98   52   51 1    
    99   97   51 1    
   100   98   51 1    
   101   53   52 1    
   102   99   52 1    
   103  100   52 1    
   104  101   53 1    
   105  102   54 1    
   106  103   54 1    
@<TRIPOS>SUBSTRUCTURE
     1 08X1        1 GROUP   
@<TRIPOS>SET

