#    Name: 2w1f_L0F_1_INTS_M
#    Modification time : Tue Mar 25 03:30:16 2014

@<TRIPOS>MOLECULE
2w1f_L0F_1_INTS_M
   37     0     9     0     0
SMALL
NO_CHARGES


@<TRIPOS>ATOM
      1 CA          3.4780   29.5140    9.4710 C.3       3 GLC5        0.0000 
      2 CA          5.1520   30.2540    8.7980 C.3       9 GLL5        0.0000 
      3 CA          1.8040   28.7740   10.1440 C.3       6 GLP5        0.0000 
      4 CA          6.4135   30.4830   10.2455 C.3       3 GLC5        0.0000 
      5 CA          7.6750   30.7120   11.6930 C.3       6 GLP5        0.0000 
      6 O           4.2225   31.0570   11.0075 O.2       1 ALC1        0.0000 
      7 O           4.3500   31.0720    9.4960 O.2       7 ALL1        0.0000 
      8 O           4.0950   31.0420   12.5190 O.2       4 ALP1        0.0000 
      9 N           3.3205   33.1735    9.5470 N.am      2 SEC2        0.0000 
     10 N           3.6820   31.9180    8.6870 N.am      8 SEL2        0.0000 
     11 N           2.9590   34.4290   10.4070 N.am      5 SEP2        0.0000 
     12 O           3.0665   34.8500    7.1265 O.2       1 ALC1        0.0000 
     13 O           2.9140   33.5460    6.4530 O.2       7 ALL1        0.0000 
     14 O           3.2190   36.1540    7.8000 O.2       4 ALP1        0.0000 
     15 CA          6.4487   31.4007    8.2765 C.3       3 GLC5        0.0000 
     16 CA          5.0010   30.5790    7.4880 C.3       9 GLL5        0.0000 
     17 CA          7.8210   32.3850    8.4100 C.3       6 GLP5        0.0000 
     18 CA          3.8170   34.6805    3.9495 C.3       3 GLC5        0.0000 
     19 CA          2.9600   32.9500    4.3490 C.3       9 GLL5        0.0000 
     20 CA          4.7930   36.3530    4.2300 C.3       6 GLP5        0.0000 
     21 CA          3.3248   35.5108    3.5762 C.3       3 GLC5        0.0000 
     22 CA          1.6450   35.1660    3.3500 C.3       9 GLL5        0.0000 
     23 CA          3.4965   35.4318    4.5938 C.3       3 GLC5        0.0000 
     24 CA          1.8700   35.0630    4.7010 C.3       9 GLL5        0.0000 
     25 CA          1.0248   32.3220    4.5288 C.3       3 GLC5        0.0000 
     26 CA          2.5300   33.9580    5.2140 C.3       9 GLL5        0.0000 
     27 CA         -0.6360   31.1610    4.6160 C.3       6 GLP5        0.0000 
     28 CA          7.5273   31.1940    3.0530 C.3       3 GLC5        0.0000 
     29 CA          6.6050   29.3200    3.8280 C.3       9 GLL5        0.0000 
     30 CA          8.2260   33.2550    2.9000 C.3       6 GLP5        0.0000 
     31 CA          5.3885   27.6220    1.8788 C.3       3 GLC5        0.0000 
     32 CA          7.0520   28.9460    2.5840 C.3       9 GLL5        0.0000 
     33 CA          3.5980   26.9610    1.3100 C.3       6 GLP5        0.0000 
     34 CA          5.2457   26.9005    2.6087 C.3       3 GLC5        0.0000 
     35 CA          7.1160   26.6600    3.2840 C.3       9 GLL5        0.0000 
     36 CA          5.7499   26.1705    5.1717 C.3       3 GLC5        0.0000 
     37 CA          4.6720   25.1670    6.3630 C.3       6 GLP5        0.0000 
@<TRIPOS>BOND
@<TRIPOS>SUBSTRUCTURE
     1 ALC1        6 GROUP        1 X    ALC  0     ROOT ALC X 1
     2 SEC2        9 GROUP        1 X    SEC  0     **** SEC X 2
     3 GLC5        1 GROUP        1 X    GLC  0     **** GLC X 6
     4 ALP1        8 GROUP        1 Y    ALP  0     ROOT ALP Y 8
     5 SEP2       11 GROUP        1 Y    SEP  0     **** SEP Y 9
     6 GLP5        3 GROUP        1 Y    GLP  0     **** GLP Y 13
     7 ALL1        7 GROUP        1 Z    ALL  0     ROOT ALL Z 15
     8 SEL2       10 GROUP        1 Z    SEL  0     **** SEL Z 16
     9 GLL5        2 GROUP        1 Z    GLL  0     **** GLL Z 20
@<TRIPOS>SET

