#    Name: 2w1f_L0F_1_ligand
#    Modification time : Tue Mar 25 03:30:16 2014

@<TRIPOS>MOLECULE
2w1f_L0F_1_ligand
   36    39     1     0     0
SMALL
NO_CHARGES


@<TRIPOS>ATOM
      1 O1          5.8270   27.9170    7.0700 O.2       1 L0F1390     0.0000 
      2 C2          5.9200   28.7440    6.1860 C.2       1 L0F1390     0.0000 
      3 N3          5.5910   30.0460    6.3770 N.am      1 L0F1390     0.0000 
      4 C4          5.0010   30.5790    7.4880 C.2       1 L0F1390     0.0000 
      5 C5          5.1520   30.2540    8.7980 C.2       1 L0F1390     0.0000 
      6 N6          4.3500   31.0720    9.4960 N.pl3     1 L0F1390     0.0000 
      7 N8          3.6820   31.9180    8.6870 N.2       1 L0F1390     0.0000 
      8 C9          4.0800   31.6120    7.4690 C.2       1 L0F1390     0.0000 
      9 C10         3.5410   32.3510    6.3540 C.2       1 L0F1390     0.0000 
     10 N11         3.5740   31.9760    5.0860 N.2       1 L0F1390     0.0000 
     11 C12         2.9600   32.9500    4.3490 C.ar      1 L0F1390     0.0000 
     12 C13         2.7220   33.0660    2.9890 C.ar      1 L0F1390     0.0000 
     13 C14         2.0680   34.1710    2.4950 C.ar      1 L0F1390     0.0000 
     14 C15         1.6450   35.1660    3.3500 C.ar      1 L0F1390     0.0000 
     15 C16         1.8700   35.0630    4.7010 C.ar      1 L0F1390     0.0000 
     16 C17         2.5300   33.9580    5.2140 C.ar      1 L0F1390     0.0000 
     17 N18         2.9140   33.5460    6.4530 N.pl3     1 L0F1390     0.0000 
     18 C20         6.4080   28.3560    4.8230 C.ar      1 L0F1390     0.0000 
     19 C21         6.6050   29.3200    3.8280 C.ar      1 L0F1390     0.0000 
     20 C22         7.0520   28.9460    2.5840 C.ar      1 L0F1390     0.0000 
     21 C23         7.3060   27.6200    2.3110 C.ar      1 L0F1390     0.0000 
     22 C24         7.1160   26.6600    3.2840 C.ar      1 L0F1390     0.0000 
     23 C25         6.6710   27.0200    4.5310 C.ar      1 L0F1390     0.0000 
     24 H           5.8167   30.7337    5.5717 H         1 L0F1390     0.0000 
     25 H           5.7230   29.5714    9.1459 H         1 L0F1390     0.0000 
     26 H           4.2582   31.0587   10.4790 H         1 L0F1390     0.0000 
     27 H           3.0375   32.3200    2.3491 H         1 L0F1390     0.0000 
     28 H           1.8927   34.2565    1.4794 H         1 L0F1390     0.0000 
     29 H           1.1548   35.9953    2.9693 H         1 L0F1390     0.0000 
     30 H           1.5487   35.8079    5.3404 H         1 L0F1390     0.0000 
     31 H           2.7603   34.0353    7.2749 H         1 L0F1390     0.0000 
     32 H           6.4111   30.3098    4.0402 H         1 L0F1390     0.0000 
     33 H           7.1985   29.6597    1.8503 H         1 L0F1390     0.0000 
     34 H           7.6407   27.3414    1.3728 H         1 L0F1390     0.0000 
     35 H           7.3106   25.6670    3.0691 H         1 L0F1390     0.0000 
     36 H           6.5277   26.3046    5.2618 H         1 L0F1390     0.0000 
@<TRIPOS>BOND
     1    2    1 2    
     2    3    2 am   
     3   18    2 1    
     4    4    3 1    
     5   24    3 1    
     6    5    4 2    
     7    8    4 1    
     8    6    5 1    
     9   25    5 1    
    10    7    6 1    
    11   26    6 1    
    12    8    7 2    
    13    9    8 1    
    14   10    9 2    
    15   17    9 1    
    16   11   10 1    
    17   12   11 ar   
    18   16   11 ar   
    19   13   12 ar   
    20   27   12 1    
    21   14   13 ar   
    22   28   13 1    
    23   15   14 ar   
    24   29   14 1    
    25   16   15 ar   
    26   30   15 1    
    27   17   16 1    
    28   31   17 1    
    29   19   18 ar   
    30   23   18 ar   
    31   20   19 ar   
    32   32   19 1    
    33   21   20 ar   
    34   33   20 1    
    35   22   21 ar   
    36   34   21 1    
    37   23   22 ar   
    38   35   22 1    
    39   36   23 1    
@<TRIPOS>SUBSTRUCTURE
     1 L0F1390     1 GROUP   
@<TRIPOS>SET

