#    Name: 3fl8_RAR_8_INTS_M
#    Modification time : Tue Mar 25 05:41:47 2014

@<TRIPOS>MOLECULE
3fl8_RAR_8_INTS_M
   96     0     9     0     0
SMALL
NO_CHARGES


@<TRIPOS>ATOM
      1 O          18.3735   -4.3870   48.4780 O.2       1 ALC1        0.0000 
      2 O          19.3830   -4.1940   47.4650 O.2       7 ALL1        0.0000 
      3 O          17.3640   -4.5800   49.4910 O.2       4 ALP1        0.0000 
      4 O          20.4535   -4.2550   48.4000 O.2       1 ALC1        0.0000 
      5 O          21.5240   -4.3160   49.3350 O.2       4 ALP1        0.0000 
      6 O          19.2020   -5.4310   48.6190 O.2       1 ALC1        0.0000 
      7 O          19.0210   -6.6680   49.7730 O.2       4 ALP1        0.0000 
      8 CA         17.4940   -2.6240   47.5625 C.3       3 GLC5        0.0000 
      9 CA         18.7870   -3.7580   46.3070 C.3       9 GLL5        0.0000 
     10 CA         16.2010   -1.4900   48.8180 C.3       6 GLP5        0.0000 
     11 CA         17.3440   -4.8825   47.0375 C.3       3 GLC5        0.0000 
     12 CA         15.9010   -6.0070   47.7680 C.3       6 GLP5        0.0000 
     13 CA         21.5510   -2.1445   46.2345 C.3       3 GLC5        0.0000 
     14 CA         21.1330   -3.7270   45.2570 C.3       9 GLL5        0.0000 
     15 CA         21.9690   -0.5620   47.2120 C.3       6 GLP5        0.0000 
     16 CA         23.0060   -4.4915   41.3790 C.3       3 GLC5        0.0000 
     17 CA         24.0170   -3.6380   42.5130 C.3       9 GLL5        0.0000 
     18 CA         21.9950   -5.3450   40.2450 C.3       6 GLP5        0.0000 
     19 CA         26.0675   -6.3605   41.3700 C.3       3 GLC5        0.0000 
     20 CA         25.4480   -5.3300   43.0040 C.3       9 GLL5        0.0000 
     21 CA         26.6870   -7.3910   39.7360 C.3       6 GLP5        0.0000 
     22 CA         23.7215   -5.3375   41.6245 C.3       3 GLC5        0.0000 
     23 CA         27.1455   -5.1080   43.2365 C.3       3 GLC5        0.0000 
     24 CA         28.8430   -4.8860   43.4690 C.3       6 GLP5        0.0000 
     25 CA         22.7360   -2.8840   39.9130 C.3       3 GLC5        0.0000 
     26 CA         24.2890   -1.7030   39.7580 C.3       9 GLL5        0.0000 
     27 CA         21.1830   -4.0650   40.0680 C.3       6 GLP5        0.0000 
     28 CA         24.5185   -1.0675   43.6775 C.3       3 GLC5        0.0000 
     29 CA         22.9130   -1.2210   42.6470 C.3       9 GLL5        0.0000 
     30 CA         26.1240   -0.9140   44.7080 C.3       6 GLP5        0.0000 
     31 CA         21.6505    0.4720   40.6435 C.3       3 GLC5        0.0000 
     32 CA         22.8940    0.2050   42.1420 C.3       9 GLL5        0.0000 
     33 CA         20.4070    0.7390   39.1450 C.3       6 GLP5        0.0000 
     34 CA         24.6965    0.8305   43.0440 C.3       3 GLC5        0.0000 
     35 CA         26.4990    1.4560   43.9460 C.3       6 GLP5        0.0000 
     36 CA         20.6435    0.4485   41.8920 C.3       3 GLC5        0.0000 
     37 CA         22.1650    1.1140   42.7010 C.3       9 GLL5        0.0000 
     38 CA         19.1220   -0.2170   41.0830 C.3       6 GLP5        0.0000 
     39 CA         18.5115    5.9840   42.7530 C.3       3 GLC5        0.0000 
     40 CA         19.8420    5.0730   41.4230 C.3       9 GLL5        0.0000 
     41 CA         17.1810    6.8950   44.0830 C.3       6 GLP5        0.0000 
     42 CA         17.1710    5.5550   40.5395 C.3       3 GLC5        0.0000 
     43 CA         19.1400    5.9600   40.4100 C.3       9 GLL5        0.0000 
     44 CA         15.2020    5.1500   40.6690 C.3       6 GLP5        0.0000 
     45 CA         18.6610    7.4790   41.7850 C.3       3 GLC5        0.0000 
     46 CA         18.1820    8.9980   43.1600 C.3       6 GLP5        0.0000 
     47 CA         18.9640    6.0605   44.5390 C.3       3 GLC5        0.0000 
     48 CA         20.7470    5.2260   44.9950 C.3       9 GLL5        0.0000 
     49 CA         18.4945    6.1165   45.7480 C.3       3 GLC5        0.0000 
     50 CA         20.3520    6.0870   46.2020 C.3       9 GLL5        0.0000 
     51 CA         16.6370    6.1460   45.2940 C.3       6 GLP5        0.0000 
     52 CA         19.2305    7.9115   45.2995 C.3       3 GLC5        0.0000 
     53 CA         20.8300    7.5170   46.2090 C.3       9 GLL5        0.0000 
     54 CA         17.6310    8.3060   44.3900 C.3       6 GLP5        0.0000 
     55 CA         21.5655   -2.8860   41.8915 C.3       3 GLC5        0.0000 
     56 CA         21.9480   -1.7070   43.7150 C.3       9 GLL5        0.0000 
     57 CA         17.4640   -4.4060   43.4555 C.3       3 GLC5        0.0000 
     58 CA         18.9820   -3.0460   43.8770 C.3       9 GLL5        0.0000 
     59 CA         15.9460   -5.7660   43.0340 C.3       6 GLP5        0.0000 
     60 CA         19.0520   -1.6315   42.4800 C.3       3 GLC5        0.0000 
     61 CA         17.6145   -1.3760   44.3005 C.3       3 GLC5        0.0000 
     62 CA         16.2470    0.2940   44.7240 C.3       6 GLP5        0.0000 
     63 N          16.7605   -2.5290   42.8465 N.am      2 SEC2        0.0000 
     64 N          17.5760   -2.8860   43.8980 N.am      8 SEL2        0.0000 
     65 N          15.9450   -2.1720   41.7950 N.am      5 SEP2        0.0000 
     66 CA         16.4650   -2.3195   46.9585 C.3       3 GLC5        0.0000 
     67 CA         16.7290   -3.1490   45.0990 C.3       9 GLL5        0.0000 
     68 CA         16.3150   -4.5780   46.4335 C.3       3 GLC5        0.0000 
     69 CA         16.3375   -4.4575   44.0665 C.3       3 GLC5        0.0000 
     70 CA         16.4880   -1.4275   44.9115 C.3       3 GLC5        0.0000 
     71 O          15.6440   -2.6000   43.4330 O.2       1 ALC1        0.0000 
     72 O          15.3430   -3.0280   45.0710 O.2       7 ALL1        0.0000 
     73 O          15.9450   -2.1720   41.7950 O.2       4 ALP1        0.0000 
     74 O          14.7045   -2.7280   43.9785 O.2       1 ALC1        0.0000 
     75 O          14.0660   -2.4280   42.8860 O.2       4 ALP1        0.0000 
     76 CA         21.9612   -4.9435   42.5832 C.3       3 GLC5        0.0000 
     77 CA         22.0240   -3.1670   44.1720 C.3       9 GLL5        0.0000 
     78 CA         21.3760   -6.2430   41.2980 C.3       6 GLP5        0.0000 
     79 CA         23.6120   -1.4845   44.9112 C.3       3 GLC5        0.0000 
     80 CA         25.2380   -0.5320   45.8790 C.3       6 GLP5        0.0000 
     81 CA         25.0523   -1.9140   43.4980 C.3       3 GLC5        0.0000 
     82 CA         23.9440   -2.1900   42.0630 C.3       9 GLL5        0.0000 
     83 CA         22.3057   -2.8853   41.2115 C.3       3 GLC5        0.0000 
     84 CA         20.7762   -0.8405   42.1320 C.3       3 GLC5        0.0000 
     85 CA         18.9550    3.7382   40.5048 C.3       3 GLC5        0.0000 
     86 CA         18.4190    1.9600   40.0930 C.3       6 GLP5        0.0000 
     87 CA         22.4318    5.6613   45.9910 C.3       3 GLC5        0.0000 
     88 CA         21.5480    5.8050   43.9050 C.3       9 GLL5        0.0000 
     89 CA         23.7160    5.8070   47.5320 C.3       6 GLP5        0.0000 
     90 CA         22.1535    6.3045   46.8687 C.3       3 GLC5        0.0000 
     91 CA         20.5395    7.1670   47.9073 C.3       3 GLC5        0.0000 
     92 CA         20.4880    7.5320   49.6090 C.3       6 GLP5        0.0000 
     93 CA         20.0117    8.3373   43.8395 C.3       3 GLC5        0.0000 
     94 CA         21.6470    8.0920   45.1070 C.3       9 GLL5        0.0000 
     95 CA         23.2948    7.2367   45.7690 C.3       3 GLC5        0.0000 
     96 CA         24.7480    6.7970   47.0190 C.3       6 GLP5        0.0000 
@<TRIPOS>BOND
@<TRIPOS>SUBSTRUCTURE
     1 ALC1        1 GROUP        1 X    ALC  0     ROOT ALC X 1
     2 SEC2       63 GROUP        1 X    SEC  0     **** SEC X 2
     3 GLC5        8 GROUP        1 X    GLC  0     **** GLC X 6
     4 ALP1        3 GROUP        1 Y    ALP  0     ROOT ALP Y 8
     5 SEP2       65 GROUP        1 Y    SEP  0     **** SEP Y 9
     6 GLP5       10 GROUP        1 Y    GLP  0     **** GLP Y 13
     7 ALL1        2 GROUP        1 Z    ALL  0     ROOT ALL Z 15
     8 SEL2       64 GROUP        1 Z    SEL  0     **** SEL Z 16
     9 GLL5        9 GROUP        1 Z    GLL  0     **** GLL Z 20
@<TRIPOS>SET

