#    Name: 3fl8_RAR_8_ligand
#    Modification time : Tue Mar 25 05:41:47 2014

@<TRIPOS>MOLECULE
3fl8_RAR_8_ligand
   66    69     1     0     0
SMALL
NO_CHARGES


@<TRIPOS>ATOM
      1 N01        19.3830   -4.1940   47.4650 N.pl3     1 RAR200      0.0000 
      2 C02        18.7870   -3.7580   46.3070 C.ar      1 RAR200      0.0000 
      3 C03        19.6420   -3.4900   45.1120 C.ar      1 RAR200      0.0000 
      4 C04        21.1330   -3.7270   45.2570 C.3       1 RAR200      0.0000 
      5 C05        22.0240   -3.1670   44.1720 C.ar      1 RAR200      0.0000 
      6 C06        23.0690   -4.1210   43.5650 C.ar      1 RAR200      0.0000 
      7 C07        24.0170   -3.6380   42.5130 C.ar      1 RAR200      0.0000 
      8 O08        24.9290   -4.5370   42.0290 O.3       1 RAR200      0.0000 
      9 C09        25.4480   -5.3300   43.0040 C.3       1 RAR200      0.0000 
     10 C10        23.9440   -2.1900   42.0630 C.ar      1 RAR200      0.0000 
     11 O11        24.8100   -1.7680   41.0910 O.3       1 RAR200      0.0000 
     12 C12        24.2890   -1.7030   39.7580 C.3       1 RAR200      0.0000 
     13 C13        22.9130   -1.2210   42.6470 C.ar      1 RAR200      0.0000 
     14 C14        22.8940    0.2050   42.1420 C.2       1 RAR200      0.0000 
     15 C15        22.1650    1.1140   42.7010 C.2       1 RAR200      0.0000 
     16 C16        22.2860    2.4860   42.1290 C.2       1 RAR200      0.0000 
     17 N17        21.6710    3.4810   42.8900 N.am      1 RAR200      0.0000 
     18 N18        21.0350    2.9650   44.0680 N.2       1 RAR200      0.0000 
     19 C19        20.2880    3.8180   44.9050 C.2       1 RAR200      0.0000 
     20 C20        21.9810    4.8990   42.6840 C.3       1 RAR200      0.0000 
     21 C21        21.2630    5.5470   41.4270 C.3       1 RAR200      0.0000 
     22 C22        19.8420    5.0730   41.4230 C.3       1 RAR200      0.0000 
     23 C23        19.1400    5.9600   40.4100 C.3       1 RAR200      0.0000 
     24 C24        21.5480    5.8050   43.9050 C.ar      1 RAR200      0.0000 
     25 C25        20.7470    5.2260   44.9950 C.ar      1 RAR200      0.0000 
     26 C26        20.3520    6.0870   46.2020 C.ar      1 RAR200      0.0000 
     27 C27        20.8300    7.5170   46.2090 C.ar      1 RAR200      0.0000 
     28 C28        21.6470    8.0920   45.1070 C.ar      1 RAR200      0.0000 
     29 C29        22.0360    7.2610   43.9310 C.ar      1 RAR200      0.0000 
     30 O30        23.0090    2.7470   41.2730 O.2       1 RAR200      0.0000 
     31 C31        21.9480   -1.7070   43.7150 C.ar      1 RAR200      0.0000 
     32 C32        18.9820   -3.0460   43.8770 C.ar      1 RAR200      0.0000 
     33 N33        17.5760   -2.8860   43.8980 N.ar      1 RAR200      0.0000 
     34 C34        16.7290   -3.1490   45.0990 C.ar      1 RAR200      0.0000 
     35 N35        15.3430   -3.0280   45.0710 N.pl3     1 RAR200      0.0000 
     36 N36        17.3760   -3.5910   46.3040 N.ar      1 RAR200      0.0000 
     37 H          18.8464   -4.8248   48.0255 H         1 RAR200      0.0000 
     38 H          20.3015   -3.8425   47.6465 H         1 RAR200      0.0000 
     39 H          21.3118   -4.8285   45.3354 H         1 RAR200      0.0000 
     40 H          21.4643   -3.3139   46.2425 H         1 RAR200      0.0000 
     41 H          23.0990   -5.0569   43.8854 H         1 RAR200      0.0000 
     42 H          23.5145    0.3625   41.3211 H         1 RAR200      0.0000 
     43 H          21.5311    1.0040   43.4704 H         1 RAR200      0.0000 
     44 H          19.4980    3.5290   45.4176 H         1 RAR200      0.0000 
     45 H          23.0441    5.0729   42.5468 H         1 RAR200      0.0000 
     46 H          21.7843    5.2176   40.5491 H         1 RAR200      0.0000 
     47 H          21.3160    6.6129   41.5359 H         1 RAR200      0.0000 
     48 H          19.4008    5.2125   42.3863 H         1 RAR200      0.0000 
     49 H          19.7905    4.0548   41.1025 H         1 RAR200      0.0000 
     50 H          19.8226    5.7194   46.9164 H         1 RAR200      0.0000 
     51 H          20.5812    8.1008   46.9968 H         1 RAR200      0.0000 
     52 H          21.9403    9.0482   45.1535 H         1 RAR200      0.0000 
     53 H          22.5728    7.6059   43.2045 H         1 RAR200      0.0000 
     54 H          21.2895   -1.1041   44.1063 H         1 RAR200      0.0000 
     55 H          19.5290   -2.8695   43.0632 H         1 RAR200      0.0000 
     56 H          14.9055   -3.1838   44.1854 H         1 RAR200      0.0000 
     57 H          14.9040   -2.7956   45.9389 H         1 RAR200      0.0000 
     58 H          26.1091   -5.9847   42.6375 H         1 RAR200      0.0000 
     59 H          25.9217   -4.7959   43.7042 H         1 RAR200      0.0000 
     60 H          24.7384   -5.8592   43.4692 H         1 RAR200      0.0000 
     61 H          24.9774   -1.3869   39.1052 H         1 RAR200      0.0000 
     62 H          23.9713   -2.5961   39.4395 H         1 RAR200      0.0000 
     63 H          23.5131   -1.0755   39.6927 H         1 RAR200      0.0000 
     64 H          19.1879    6.9256   40.6656 H         1 RAR200      0.0000 
     65 H          19.5457    5.8773   39.4997 H         1 RAR200      0.0000 
     66 H          18.1713    5.7280   40.3214 H         1 RAR200      0.0000 
@<TRIPOS>BOND
     1    2    1 1    
     2   37    1 1    
     3   38    1 1    
     4    3    2 ar   
     5   36    2 ar   
     6    4    3 1    
     7   32    3 ar   
     8    5    4 1    
     9   39    4 1    
    10   40    4 1    
    11    6    5 ar   
    12   31    5 ar   
    13    7    6 ar   
    14   41    6 1    
    15    8    7 1    
    16   10    7 ar   
    17    9    8 1    
    18   58    9 1    
    19   59    9 1    
    20   60    9 1    
    21   11   10 1    
    22   13   10 ar   
    23   12   11 1    
    24   61   12 1    
    25   62   12 1    
    26   63   12 1    
    27   14   13 1    
    28   31   13 ar   
    29   15   14 2    
    30   42   14 1    
    31   16   15 1    
    32   43   15 1    
    33   17   16 am   
    34   30   16 2    
    35   18   17 1    
    36   20   17 1    
    37   19   18 2    
    38   25   19 1    
    39   44   19 1    
    40   21   20 1    
    41   24   20 1    
    42   45   20 1    
    43   22   21 1    
    44   46   21 1    
    45   47   21 1    
    46   23   22 1    
    47   48   22 1    
    48   49   22 1    
    49   64   23 1    
    50   65   23 1    
    51   66   23 1    
    52   25   24 ar   
    53   29   24 ar   
    54   26   25 ar   
    55   27   26 ar   
    56   50   26 1    
    57   28   27 ar   
    58   51   27 1    
    59   29   28 ar   
    60   52   28 1    
    61   53   29 1    
    62   54   31 1    
    63   33   32 ar   
    64   55   32 1    
    65   34   33 ar   
    66   35   34 1    
    67   36   34 ar   
    68   56   35 1    
    69   57   35 1    
@<TRIPOS>SUBSTRUCTURE
     1 RAR200      1 GROUP   
@<TRIPOS>SET

