#    Name: 3q95_ESL_2_INTS_M
#    Modification time : Tue Mar 25 09:04:45 2014

@<TRIPOS>MOLECULE
3q95_ESL_2_INTS_M
   62     0     9     0     0
SMALL
NO_CHARGES


@<TRIPOS>ATOM
      1 CA         -0.3825   -4.6825   24.6850 C.3       3 GLC5        0.0000 
      2 CA         -1.4630   -3.3610   23.5750 C.3       9 GLL5        0.0000 
      3 CA          0.6980   -6.0040   25.7950 C.3       6 GLP5        0.0000 
      4 CA         -3.5375   -1.2995   24.5955 C.3       3 GLC5        0.0000 
      5 CA         -2.9440   -3.0080   23.3930 C.3       9 GLL5        0.0000 
      6 CA         -4.1310    0.4090   25.7980 C.3       6 GLP5        0.0000 
      7 CA         -5.3850   -4.9100   21.5405 C.3       3 GLC5        0.0000 
      8 CA         -3.5920   -3.8390   22.2530 C.3       9 GLL5        0.0000 
      9 CA         -7.1780   -5.9810   20.8280 C.3       6 GLP5        0.0000 
     10 CA         -1.4390   -0.9055   20.5645 C.3       3 GLC5        0.0000 
     11 CA         -2.9790   -2.2850   20.4140 C.3       9 GLL5        0.0000 
     12 CA          0.1010    0.4740   20.7150 C.3       6 GLP5        0.0000 
     13 CA         -4.5050   -1.1160   19.8235 C.3       3 GLC5        0.0000 
     14 CA         -6.0310    0.0530   19.2330 C.3       6 GLP5        0.0000 
     15 CA         -5.1555   -5.3425   20.3325 C.3       3 GLC5        0.0000 
     16 CA         -3.1330   -4.7040   19.8370 C.3       9 GLL5        0.0000 
     17 O          -4.2285   -5.4905   18.0620 O.2       1 ALC1        0.0000 
     18 O          -4.3150   -4.3850   19.0880 O.2       7 ALL1        0.0000 
     19 O          -4.1420   -6.5960   17.0360 O.2       4 ALP1        0.0000 
     20 CA         -2.8595   -5.6900   17.3210 C.3       3 GLC5        0.0000 
     21 CA         -1.8810   -4.6570   18.9490 C.3       9 GLL5        0.0000 
     22 CA         -3.8380   -6.7230   15.6930 C.3       6 GLP5        0.0000 
     23 O          -2.8825   -6.2645   17.6995 O.2       1 ALC1        0.0000 
     24 O          -1.6230   -5.9330   18.3630 O.2       7 ALL1        0.0000 
     25 CA          0.9690   -3.2380   19.4225 C.3       3 GLC5        0.0000 
     26 CA         -0.7280   -4.1630   19.8420 C.3       9 GLL5        0.0000 
     27 CA          2.6660   -2.3130   19.0030 C.3       6 GLP5        0.0000 
     28 CA          0.8280   -5.2095   18.7890 C.3       3 GLC5        0.0000 
     29 CA          2.3840   -6.2560   17.7360 C.3       6 GLP5        0.0000 
     30 CA          1.7100   -2.9110   20.7155 C.3       3 GLC5        0.0000 
     31 CA          0.7540   -3.5090   22.4280 C.3       9 GLL5        0.0000 
     32 CA          2.7055   -1.7640   22.2065 C.3       3 GLC5        0.0000 
     33 CA          1.3830   -2.4930   23.3620 C.3       9 GLL5        0.0000 
     34 CA          4.0280   -1.0350   21.0510 C.3       6 GLP5        0.0000 
     35 CA          3.1425   -2.4145   26.0635 C.3       3 GLC5        0.0000 
     36 CA          1.2030   -1.7560   25.7270 C.3       9 GLL5        0.0000 
     37 CA          5.0820   -3.0730   26.4000 C.3       6 GLP5        0.0000 
     38 N           2.1760   -1.7160   28.9225 N.am      2 SEC2        0.0000 
     39 N           1.1710   -0.9880   27.9740 N.am      8 SEL2        0.0000 
     40 N           3.1810   -2.4440   29.8710 N.am      5 SEP2        0.0000 
     41 O           0.2345   -0.4130   28.5825 O.2       1 ALC1        0.0000 
     42 O           1.1710   -0.9880   27.9740 O.2       7 ALL1        0.0000 
     43 O          -0.7020    0.1620   29.1910 O.2       4 ALP1        0.0000 
     44 CA         -1.2085   -2.7135   28.7550 C.3       3 GLC5        0.0000 
     45 CA         -0.8010   -1.9430   27.0370 C.3       9 GLL5        0.0000 
     46 CA         -1.6160   -3.4840   30.4730 C.3       6 GLP5        0.0000 
     47 CA         -2.3945   -0.6010   27.1625 C.3       3 GLC5        0.0000 
     48 CA         -3.9880    0.7410   27.2880 C.3       6 GLP5        0.0000 
     49 CA         -2.7830   -1.0510   25.8640 C.3       3 GLC5        0.0000 
     50 CA         -1.4350   -2.5110   25.9300 C.3       9 GLL5        0.0000 
     51 CA         -3.7219   -4.7199   24.1583 C.3       3 GLC5        0.0000 
     52 CA         -4.5460   -5.9280   25.4480 C.3       6 GLP5        0.0000 
     53 CA         -0.7827   -3.6095   17.6097 C.3       3 GLC5        0.0000 
     54 CA         -0.2610   -2.8090   15.8240 C.3       6 GLP5        0.0000 
     55 CA          0.8832   -4.5025   24.3450 C.3       3 GLC5        0.0000 
     56 CA          0.4007   -1.2233   21.7845 C.3       3 GLC5        0.0000 
     57 CA          1.2828   -0.3295   24.3697 C.3       3 GLC5        0.0000 
     58 CA          1.5880    1.7620   24.7410 C.3       6 GLP5        0.0000 
     59 CA          2.4301   -3.8210   24.4280 C.3       3 GLC5        0.0000 
     60 CA          0.5720   -2.3490   24.6350 C.3       9 GLL5        0.0000 
     61 CA          4.0400   -4.9670   25.0910 C.3       6 GLP5        0.0000 
     62 CA          1.2268    0.0518   25.5333 C.3       3 GLC5        0.0000 
@<TRIPOS>BOND
@<TRIPOS>SUBSTRUCTURE
     1 ALC1       17 GROUP        1 X    ALC  0     ROOT ALC X 1
     2 SEC2       38 GROUP        1 X    SEC  0     **** SEC X 2
     3 GLC5        1 GROUP        1 X    GLC  0     **** GLC X 6
     4 ALP1       19 GROUP        1 Y    ALP  0     ROOT ALP Y 8
     5 SEP2       40 GROUP        1 Y    SEP  0     **** SEP Y 9
     6 GLP5        3 GROUP        1 Y    GLP  0     **** GLP Y 13
     7 ALL1       18 GROUP        1 Z    ALL  0     ROOT ALL Z 15
     8 SEL2       39 GROUP        1 Z    SEL  0     **** SEL Z 16
     9 GLL5        2 GROUP        1 Z    GLL  0     **** GLL Z 20
@<TRIPOS>SET

