#    Name: 3q95_ESL_2_ligand
#    Modification time : Tue Mar 25 09:04:45 2014

@<TRIPOS>MOLECULE
3q95_ESL_2_ligand
   45    48     1     0     0
SMALL
NO_CHARGES


@<TRIPOS>ATOM
      1 C2         -1.4630   -3.3610   23.5750 C.3       1 ESL700      0.0000 
      2 C3         -2.9440   -3.0080   23.3930 C.3       1 ESL700      0.0000 
      3 C4         -3.5920   -3.8390   22.2530 C.3       1 ESL700      0.0000 
      4 C5         -2.8150   -3.7090   20.9460 C.3       1 ESL700      0.0000 
      5 C6         -2.9790   -2.2850   20.4140 C.3       1 ESL700      0.0000 
      6 C7         -3.1330   -4.7040   19.8370 C.3       1 ESL700      0.0000 
      7 O1         -4.3150   -4.3850   19.0880 O.3       1 ESL700      0.0000 
      8 C8         -1.8810   -4.6570   18.9490 C.3       1 ESL700      0.0000 
      9 O2         -1.6230   -5.9330   18.3630 O.3       1 ESL700      0.0000 
     10 C9         -0.7280   -4.1630   19.8420 C.3       1 ESL700      0.0000 
     11 C10        -1.3710   -4.0850   21.2240 C.3       1 ESL700      0.0000 
     12 C12        -0.7180   -3.1870   22.2640 C.3       1 ESL700      0.0000 
     13 C14         0.7540   -3.5090   22.4280 C.3       1 ESL700      0.0000 
     14 C15         1.3830   -2.4930   23.3620 C.3       1 ESL700      0.0000 
     15 C16         0.5720   -2.3490   24.6350 C.ar      1 ESL700      0.0000 
     16 C17         1.2030   -1.7560   25.7270 C.ar      1 ESL700      0.0000 
     17 C18         0.5280   -1.5610   26.9240 C.ar      1 ESL700      0.0000 
     18 O3          1.1710   -0.9880   27.9740 O.3       1 ESL700      0.0000 
     19 C19        -0.8010   -1.9430   27.0370 C.ar      1 ESL700      0.0000 
     20 C20        -1.4350   -2.5110   25.9300 C.ar      1 ESL700      0.0000 
     21 C21        -0.7630   -2.7100   24.7240 C.ar      1 ESL700      0.0000 
     22 H          -1.4457   -4.4850   23.7703 H         1 ESL700      0.0000 
     23 H          -3.0376   -1.9509   23.1507 H         1 ESL700      0.0000 
     24 H          -3.4807   -3.2077   24.3187 H         1 ESL700      0.0000 
     25 H          -4.6144   -3.4896   22.1070 H         1 ESL700      0.0000 
     26 H          -3.6204   -4.8851   22.5592 H         1 ESL700      0.0000 
     27 H          -3.1647   -5.6864   20.2761 H         1 ESL700      0.0000 
     28 H          -2.0565   -3.8918   18.1989 H         1 ESL700      0.0000 
     29 H          -0.4256   -3.2008   19.5280 H         1 ESL700      0.0000 
     30 H           0.0489   -4.8787   19.8435 H         1 ESL700      0.0000 
     31 H          -1.4060   -5.1253   21.6152 H         1 ESL700      0.0000 
     32 H          -0.8266   -2.1600   21.9440 H         1 ESL700      0.0000 
     33 H           1.2446   -3.4653   21.4623 H         1 ESL700      0.0000 
     34 H           0.8633   -4.5026   22.8475 H         1 ESL700      0.0000 
     35 H           1.4401   -1.5257   22.8582 H         1 ESL700      0.0000 
     36 H           2.3968   -2.8121   23.6132 H         1 ESL700      0.0000 
     37 H           2.1906   -1.4571   25.6416 H         1 ESL700      0.0000 
     38 H          -1.3095   -1.8130   27.9113 H         1 ESL700      0.0000 
     39 H          -2.4315   -2.7920   26.0072 H         1 ESL700      0.0000 
     40 H          -2.6340   -1.6049   21.0608 H         1 ESL700      0.0000 
     41 H          -2.4846   -2.1501   19.5553 H         1 ESL700      0.0000 
     42 H          -3.9379   -2.0624   20.2382 H         1 ESL700      0.0000 
     43 H          -4.3815   -5.1004   18.3925 H         1 ESL700      0.0000 
     44 H          -2.4961   -6.2170   17.9667 H         1 ESL700      0.0000 
     45 H           0.6629   -0.1472   28.1609 H         1 ESL700      0.0000 
@<TRIPOS>BOND
     1    2    1 1    
     2   12    1 1    
     3   21    1 1    
     4   22    1 1    
     5    3    2 1    
     6   23    2 1    
     7   24    2 1    
     8    4    3 1    
     9   25    3 1    
    10   26    3 1    
    11    5    4 1    
    12    6    4 1    
    13   11    4 1    
    14   40    5 1    
    15   41    5 1    
    16   42    5 1    
    17    7    6 1    
    18    8    6 1    
    19   27    6 1    
    20   43    7 1    
    21    9    8 1    
    22   10    8 1    
    23   28    8 1    
    24   44    9 1    
    25   11   10 1    
    26   29   10 1    
    27   30   10 1    
    28   12   11 1    
    29   31   11 1    
    30   13   12 1    
    31   32   12 1    
    32   14   13 1    
    33   33   13 1    
    34   34   13 1    
    35   15   14 1    
    36   35   14 1    
    37   36   14 1    
    38   16   15 ar   
    39   21   15 ar   
    40   17   16 ar   
    41   37   16 1    
    42   18   17 1    
    43   19   17 ar   
    44   45   18 1    
    45   20   19 ar   
    46   38   19 1    
    47   21   20 ar   
    48   39   20 1    
@<TRIPOS>SUBSTRUCTURE
     1 ESL700      1 GROUP   
@<TRIPOS>SET

