#    Name: 2ywp_A42_1_INTS_M
#    Modification time : Tue Mar 25 09:46:54 2014

@<TRIPOS>MOLECULE
2ywp_A42_1_INTS_M
   60     0     9     0     0
SMALL
NO_CHARGES


@<TRIPOS>ATOM
      1 CA         -7.6725   10.6705  -15.1340 C.3       3 GLC5        0.0000 
      2 CA         -8.2180    9.1210  -16.5840 C.3       9 GLL5        0.0000 
      3 CA         -7.1270   12.2200  -13.6840 C.3       6 GLP5        0.0000 
      4 CA         -8.3210   12.7755  -17.5110 C.3       3 GLC5        0.0000 
      5 CA         -7.5890   11.1700  -17.6270 C.3       9 GLL5        0.0000 
      6 CA         -9.0530   14.3810  -17.3950 C.3       6 GLP5        0.0000 
      7 CA         -9.2730   11.5885  -18.7070 C.3       3 GLC5        0.0000 
      8 CA        -10.9570   12.0070  -19.7870 C.3       6 GLP5        0.0000 
      9 CA         -7.3580   11.6950  -15.6555 C.3       3 GLC5        0.0000 
     10 CA         -6.7160   10.4810  -20.0900 C.3       3 GLC5        0.0000 
     11 CA         -6.3680   10.5790  -18.1140 C.3       9 GLL5        0.0000 
     12 CA         -7.0640   10.3830  -22.0660 C.3       6 GLP5        0.0000 
     13 CA         -6.9055    7.3460  -18.8715 C.3       3 GLC5        0.0000 
     14 CA         -7.0040    8.5030  -17.0580 C.3       9 GLL5        0.0000 
     15 CA         -6.8070    6.1890  -20.6850 C.3       6 GLP5        0.0000 
     16 CA         -5.7370   10.2805  -16.5195 C.3       3 GLC5        0.0000 
     17 CA         -4.4700   12.0580  -15.9810 C.3       6 GLP5        0.0000 
     18 CA        -10.4500    6.9815  -16.4580 C.3       3 GLC5        0.0000 
     19 CA         -9.1410    8.3950  -15.8240 C.3       9 GLL5        0.0000 
     20 CA        -11.7590    5.5680  -17.0920 C.3       6 GLP5        0.0000 
     21 CA         -9.5520    8.8715  -14.0180 C.3       3 GLC5        0.0000 
     22 CA         -9.9630    9.3480  -12.2120 C.3       6 GLP5        0.0000 
     23 N         -10.8860    6.6220  -14.9310 N.am      2 SEC2        0.0000 
     24 N          -9.9500    7.8050  -15.2330 N.am      8 SEL2        0.0000 
     25 N         -11.8220    5.4390  -14.6290 N.am      5 SEP2        0.0000 
     26 O          -6.2635   12.3525  -19.9000 O.2       1 ALC1        0.0000 
     27 O          -5.4610   11.3170  -18.8640 O.2       7 ALL1        0.0000 
     28 O          -7.0660   13.3880  -20.9360 O.2       4 ALP1        0.0000 
     29 N          -3.5385   12.9860  -20.7320 N.am      2 SEC2        0.0000 
     30 N          -3.8930   11.7460  -20.3940 N.am      8 SEL2        0.0000 
     31 N          -3.1840   14.2260  -21.0700 N.am      5 SEP2        0.0000 
     32 CA          0.0385    8.3540  -16.4265 C.3       3 GLC5        0.0000 
     33 CA         -0.4380    7.8670  -18.5580 C.3       9 GLL5        0.0000 
     34 CA          0.5150    8.8410  -14.2950 C.3       6 GLP5        0.0000 
     35 CA         -3.2605    6.3110  -19.9290 C.3       3 GLC5        0.0000 
     36 CA         -3.5290    6.4780  -18.0800 C.3       9 GLL5        0.0000 
     37 CA         -2.9920    6.1440  -21.7780 C.3       6 GLP5        0.0000 
     38 CA         -3.3375    4.6810  -18.5090 C.3       3 GLC5        0.0000 
     39 CA         -3.1460    2.8840  -18.9380 C.3       6 GLP5        0.0000 
     40 CA         -5.0450    5.6065  -19.2125 C.3       3 GLC5        0.0000 
     41 CA         -6.5610    4.7350  -20.3450 C.3       6 GLP5        0.0000 
     42 CA          0.1340   11.5150  -22.8820 C.3       3 GLC5        0.0000 
     43 CA          1.1210   10.6200  -21.1700 C.3       9 GLL5        0.0000 
     44 CA         -0.8530   12.4100  -24.5940 C.3       6 GLP5        0.0000 
     45 CA          1.1460   12.4815  -21.6825 C.3       3 GLC5        0.0000 
     46 CA          1.1710   14.3430  -22.1950 C.3       6 GLP5        0.0000 
     47 CA          1.6570   11.2530  -19.4420 C.3       3 GLC5        0.0000 
     48 CA          2.1930   11.8860  -17.7140 C.3       6 GLP5        0.0000 
     49 CA        -10.1872    9.4360  -17.2620 C.3       3 GLC5        0.0000 
     50 CA        -11.6950   10.1140  -18.3200 C.3       6 GLP5        0.0000 
     51 CA         -5.7243   11.4663  -16.9258 C.3       3 GLC5        0.0000 
     52 CA         -2.1150   10.0900  -17.1840 C.3       3 GLC5        0.0000 
     53 CA         -1.8370    8.2590  -18.4750 C.3       9 GLL5        0.0000 
     54 CA         -2.1580   11.3470  -15.5070 C.3       6 GLP5        0.0000 
     55 CA         -1.2197    8.8050  -21.7320 C.3       3 GLC5        0.0000 
     56 CA         -1.3250   10.1140  -20.0850 C.3       9 GLL5        0.0000 
     57 CA         -1.8000    7.7020  -23.3490 C.3       6 GLP5        0.0000 
     58 CA          1.2395   10.5095  -18.7397 C.3       3 GLC5        0.0000 
     59 CA          0.0460    9.7020  -20.1450 C.3       9 GLL5        0.0000 
     60 CA         -2.1235    7.2470  -20.2437 C.3       3 GLC5        0.0000 
@<TRIPOS>BOND
@<TRIPOS>SUBSTRUCTURE
     1 ALC1       26 GROUP        1 X    ALC  0     ROOT ALC X 1
     2 SEC2       23 GROUP        1 X    SEC  0     **** SEC X 2
     3 GLC5        1 GROUP        1 X    GLC  0     **** GLC X 6
     4 ALP1       28 GROUP        1 Y    ALP  0     ROOT ALP Y 8
     5 SEP2       25 GROUP        1 Y    SEP  0     **** SEP Y 9
     6 GLP5        3 GROUP        1 Y    GLP  0     **** GLP Y 13
     7 ALL1       27 GROUP        1 Z    ALL  0     ROOT ALL Z 15
     8 SEL2       24 GROUP        1 Z    SEL  0     **** SEL Z 16
     9 GLL5        2 GROUP        1 Z    GLL  0     **** GLL Z 20
@<TRIPOS>SET

