#    Name: 2ywp_A42_1_ligand
#    Modification time : Tue Mar 25 09:46:54 2014

@<TRIPOS>MOLECULE
2ywp_A42_1_ligand
   35    36     1     0     0
SMALL
NO_CHARGES


@<TRIPOS>ATOM
      1 C1         -8.2180    9.1210  -16.5840 C.ar      1 A421        0.0000 
      2 N2         -8.4960   10.4450  -16.8740 N.ar      1 A421        0.0000 
      3 C3         -7.5890   11.1700  -17.6270 C.ar      1 A421        0.0000 
      4 C4         -6.3680   10.5790  -18.1140 C.ar      1 A421        0.0000 
      5 N5         -6.0850    9.2320  -17.8190 N.ar      1 A421        0.0000 
      6 C6         -7.0040    8.5030  -17.0580 C.ar      1 A421        0.0000 
      7 C7         -9.1410    8.3950  -15.8240 C.1       1 A421        0.0000 
      8 N8         -9.9500    7.8050  -15.2330 N.1       1 A421        0.0000 
      9 N9         -5.4610   11.3170  -18.8640 N.am      1 A421        0.0000 
     10 C10        -4.2900   10.9980  -19.5030 C.2       1 A421        0.0000 
     11 O11        -3.8930   11.7460  -20.3940 O.2       1 A421        0.0000 
     12 N12        -3.6650    9.7930  -19.1740 N.am      1 A421        0.0000 
     13 C13        -2.3070    9.4070  -19.2470 C.ar      1 A421        0.0000 
     14 C14        -1.3250   10.1140  -20.0850 C.ar      1 A421        0.0000 
     15 C15         0.0460    9.7020  -20.1450 C.ar      1 A421        0.0000 
     16 C16         0.5260    8.5640  -19.3860 C.ar      1 A421        0.0000 
     17 C17        -0.4380    7.8670  -18.5580 C.ar      1 A421        0.0000 
     18 C18        -1.8370    8.2590  -18.4750 C.ar      1 A421        0.0000 
     19 O19        -2.5680    7.4170  -17.6020 O.3       1 A421        0.0000 
     20 C20        -3.5290    6.4780  -18.0800 C.3       1 A421        0.0000 
     21 O21         1.8950    8.1970  -19.4790 O.3       1 A421        0.0000 
     22 C22         2.2220    7.0150  -20.2130 C.3       1 A421        0.0000 
     23 CL1         1.1210   10.6200  -21.1700 Cl        1 A421        0.0000 
     24 H          -7.7690   12.1602  -17.8588 H         1 A421        0.0000 
     25 H          -6.8316    7.5222  -16.8252 H         1 A421        0.0000 
     26 H          -5.7524   12.4008  -18.9651 H         1 A421        0.0000 
     27 H          -4.3382    9.0083  -18.7933 H         1 A421        0.0000 
     28 H          -1.6444   10.9144  -20.6299 H         1 A421        0.0000 
     29 H          -0.1219    7.0599  -18.0040 H         1 A421        0.0000 
     30 H          -3.1183    5.8089  -18.6993 H         1 A421        0.0000 
     31 H          -3.9509    5.9651  -17.3324 H         1 A421        0.0000 
     32 H          -4.2687    6.9264  -18.5818 H         1 A421        0.0000 
     33 H           3.2072    6.8440  -20.2218 H         1 A421        0.0000 
     34 H           1.7871    6.2034  -19.8229 H         1 A421        0.0000 
     35 H           1.9266    7.0762  -21.1664 H         1 A421        0.0000 
@<TRIPOS>BOND
     1    2    1 ar   
     2    6    1 ar   
     3    7    1 1    
     4    3    2 ar   
     5    4    3 ar   
     6   24    3 1    
     7    5    4 ar   
     8    9    4 1    
     9    6    5 ar   
    10   25    6 1    
    11    8    7 3    
    12   10    9 am   
    13   26    9 1    
    14   11   10 2    
    15   12   10 am   
    16   13   12 1    
    17   27   12 1    
    18   14   13 ar   
    19   18   13 ar   
    20   15   14 ar   
    21   28   14 1    
    22   16   15 ar   
    23   23   15 1    
    24   17   16 ar   
    25   21   16 1    
    26   18   17 ar   
    27   29   17 1    
    28   19   18 1    
    29   20   19 1    
    30   30   20 1    
    31   31   20 1    
    32   32   20 1    
    33   22   21 1    
    34   33   22 1    
    35   34   22 1    
    36   35   22 1    
@<TRIPOS>SUBSTRUCTURE
     1 A421        1 GROUP   
@<TRIPOS>SET

