#    Name: 3fg2_FAD_1_INTS_M
#    Modification time : Tue Mar 25 04:04:46 2014

@<TRIPOS>MOLECULE
3fg2_FAD_1_INTS_M
  109     0    12     0     0
SMALL
NO_CHARGES


@<TRIPOS>ATOM
      1 NZ        114.2735  151.4560   79.9230 N.4       3 LYC4        0.0000 
      2 NZ        113.6750  150.6780   81.4540 N.4      11 LYL4        0.0000 
      3 NZ        114.8720  152.2340   78.3920 N.4       7 LYP4        0.0000 
      4 N         112.0590  150.5475   80.9310 N.am      2 SEC2        0.0000 
      5 N         113.6750  150.6780   81.4540 N.am     10 SEL2        0.0000 
      6 N         110.4430  150.4170   80.4080 N.am      6 SEP2        0.0000 
      7 CA        114.4505  153.1835   85.0205 C.3       4 GLC5        0.0000 
      8 CA        114.0270  153.8880   83.2290 C.3      12 GLL5        0.0000 
      9 CA        114.8740  152.4790   86.8120 C.3       8 GLP5        0.0000 
     10 CA        112.1185  156.2995   83.0885 C.3       4 GLC5        0.0000 
     11 CA        113.7480  155.1620   82.4020 C.3      12 GLL5        0.0000 
     12 CA        110.4890  157.4370   83.7750 C.3       8 GLP5        0.0000 
     13 O         115.6085  155.9815   79.4405 O.2       1 ALC1        0.0000 
     14 O         114.5380  155.9570   80.1730 O.2       9 ALL1        0.0000 
     15 O         116.6790  156.0060   78.7080 O.2       5 ALP1        0.0000 
     16 O         116.2710  159.1260   82.1060 O.2       1 ALC1        0.0000 
     17 O         116.3450  157.5600   81.5590 O.2       9 ALL1        0.0000 
     18 O         116.1970  160.6920   82.6530 O.2       5 ALP1        0.0000 
     19 O         115.8565  158.6885   81.1870 O.2       1 ALC1        0.0000 
     20 O         115.3680  159.8170   80.8150 O.2       5 ALP1        0.0000 
     21 CA        112.4115  157.4145   83.3150 C.3       4 GLC5        0.0000 
     22 CA        114.3340  157.3920   82.8550 C.3      12 GLL5        0.0000 
     23 CA        114.6335  162.7485   85.3205 C.3       4 GLC5        0.0000 
     24 CA        113.8970  161.1120   86.1280 C.3      12 GLL5        0.0000 
     25 CA        115.3700  164.3850   84.5130 C.3       8 GLP5        0.0000 
     26 CA        112.7750  162.1080   87.3070 C.3       4 GLC5        0.0000 
     27 CA        111.6530  163.1040   88.4860 C.3       8 GLP5        0.0000 
     28 O         114.2385  163.1415   87.5000 O.2       1 ALC1        0.0000 
     29 O         114.2940  161.6260   87.2690 O.2       9 ALL1        0.0000 
     30 O         114.1830  164.6570   87.7310 O.2       5 ALP1        0.0000 
     31 N         112.6365  163.2670   85.5570 N.am      2 SEC2        0.0000 
     32 N         112.9480  161.7520   85.3560 N.am     10 SEL2        0.0000 
     33 N         112.3250  164.7820   85.7580 N.am      6 SEP2        0.0000 
     34 CA        111.4960  159.3435   83.9655 C.3       4 GLC5        0.0000 
     35 CA        112.5030  161.2500   84.1560 C.3      12 GLL5        0.0000 
     36 CA        111.0560  162.3770   83.6035 C.3       4 GLC5        0.0000 
     37 CA        109.6090  163.5040   83.0510 C.3       8 GLP5        0.0000 
     38 CA        113.6905  161.6745   82.7065 C.3       4 GLC5        0.0000 
     39 CA        114.8780  162.0990   81.2570 C.3       8 GLP5        0.0000 
     40 CA        112.8175  163.1585   83.8060 C.3       4 GLC5        0.0000 
     41 CA        113.1320  165.0670   83.4560 C.3       8 GLP5        0.0000 
     42 CA        112.1770  158.4315   84.0445 C.3       4 GLC5        0.0000 
     43 CA        113.8650  159.4260   84.3140 C.3      12 GLL5        0.0000 
     44 CA        114.3715  160.7625   82.7855 C.3       4 GLC5        0.0000 
     45 N         113.0970  141.3895   82.1415 N.am      2 SEC2        0.0000 
     46 N         114.0350  140.2550   81.5210 N.am     10 SEL2        0.0000 
     47 N         112.1590  142.5240   82.7620 N.am      6 SEP2        0.0000 
     48 N         117.9170  140.2965   77.1200 N.am      2 SEC2        0.0000 
     49 N         116.7300  139.9750   77.9420 N.am     10 SEL2        0.0000 
     50 N         119.1040  140.6180   76.2980 N.am      6 SEP2        0.0000 
     51 N         118.5125  141.5270   77.4345 N.am      2 SEC2        0.0000 
     52 N         117.9210  142.4360   78.5710 N.am     10 SEL2        0.0000 
     53 CA        121.2240  143.8380   79.2405 C.3       4 GLC5        0.0000 
     54 CA        119.4530  144.2360   78.1570 C.3      12 GLL5        0.0000 
     55 CA        122.9950  143.4400   80.3240 C.3       8 GLP5        0.0000 
     56 CA        120.6055  146.7790   75.9520 C.3       4 GLC5        0.0000 
     57 CA        121.1020  146.0270   77.5710 C.3      12 GLL5        0.0000 
     58 CA        120.1090  147.5310   74.3330 C.3       8 GLP5        0.0000 
     59 CA        122.0970  144.8030   76.4820 C.3       4 GLC5        0.0000 
     60 CA        123.0920  143.5790   75.3930 C.3       8 GLP5        0.0000 
     61 CA        118.2690  148.1775   79.3050 C.3       4 GLC5        0.0000 
     62 CA        120.1500  147.5250   80.0590 C.3      12 GLL5        0.0000 
     63 CA        116.3880  148.8300   78.5510 C.3       8 GLP5        0.0000 
     64 CA        121.2750  148.8195   79.5240 C.3       4 GLC5        0.0000 
     65 CA        122.4000  150.1140   78.9890 C.3       8 GLP5        0.0000 
     66 CA        115.0470  143.3155   83.3930 C.3       4 GLC5        0.0000 
     67 CA        116.4700  144.4550   82.1290 C.3      12 GLL5        0.0000 
     68 CA        113.6240  142.1760   84.6570 C.3       8 GLP5        0.0000 
     69 CA        115.6605  146.4035   79.9025 C.3       4 GLC5        0.0000 
     70 CA        115.2540  145.3650   81.7760 C.3      12 GLL5        0.0000 
     71 CA        116.0670  147.4420   78.0290 C.3       8 GLP5        0.0000 
     72 CA        113.7245  144.3015   80.8215 C.3       4 GLC5        0.0000 
     73 CA        112.1950  143.2380   79.8670 C.3       8 GLP5        0.0000 
     74 CA        114.2510  144.1590   83.8390 C.3       4 GLC5        0.0000 
     75 CA        114.8780  146.1420   83.0210 C.3      12 GLL5        0.0000 
     76 O         114.5070  145.9115   85.3460 O.2       1 ALC1        0.0000 
     77 O         114.4760  145.2380   84.0440 O.2       9 ALL1        0.0000 
     78 O         114.5380  146.5850   86.6480 O.2       5 ALP1        0.0000 
     79 O         115.3830  146.4245   84.9235 O.2       1 ALC1        0.0000 
     80 O         116.2900  147.6110   85.8030 O.2       5 ALP1        0.0000 
     81 CA        111.9215  147.5505   81.7380 C.3       4 GLC5        0.0000 
     82 CA        113.7370  147.0950   82.7090 C.3      12 GLL5        0.0000 
     83 CA        110.1060  148.0060   80.7670 C.3       8 GLP5        0.0000 
     84 CA        114.2770  148.2775   85.7760 C.3       4 GLC5        0.0000 
     85 CA        113.3930  147.8580   83.9650 C.3      12 GLL5        0.0000 
     86 CA        115.1610  148.6970   87.5870 C.3       8 GLP5        0.0000 
     87 CA        111.4685  147.2170   84.1480 C.3       4 GLC5        0.0000 
     88 CA        109.5440  146.5760   84.3310 C.3       8 GLP5        0.0000 
     89 N         109.7820  150.3095   83.1865 N.am      2 SEC2        0.0000 
     90 N         110.9060  150.8290   83.6320 N.am     10 SEL2        0.0000 
     91 N         108.6580  149.7900   82.7410 N.am      6 SEP2        0.0000 
     92 N         112.4920  149.3340   86.9070 N.am      2 SEC2        0.0000 
     93 N         112.1860  150.1520   85.6570 N.am     10 SEL2        0.0000 
     94 N         112.7980  148.5160   88.1570 N.am      6 SEP2        0.0000 
     95 CA        112.5027  153.6405   81.4847 C.3       4 GLC5        0.0000 
     96 CA        111.1180  152.7560   80.1540 C.3       8 GLP5        0.0000 
     97 CA        113.4720  159.2285   87.1467 C.3       4 GLC5        0.0000 
     98 CA        114.4010  159.8400   85.5630 C.3      12 GLL5        0.0000 
     99 CA        112.7950  157.9810   88.4480 C.3       8 GLP5        0.0000 
    100 CA        117.7335  143.7710   77.2025 C.3       4 GLC5        0.0000 
    101 CA        118.4350  143.6580   78.9670 C.3      12 GLL5        0.0000 
    102 CA        116.5230  143.5950   75.8430 C.3       8 GLP5        0.0000 
    103 CA        117.9325  146.6308   78.5462 C.3       4 GLC5        0.0000 
    104 CA        120.0210  145.4550   78.4670 C.3      12 GLL5        0.0000 
    105 CA        121.6167  145.2440   79.5065 C.3       4 GLC5        0.0000 
    106 CA        122.6720  144.7470   80.9940 C.3       8 GLP5        0.0000 
    107 CA        117.1750  146.2180   79.1670 C.3       4 GLC5        0.0000 
    108 CA        118.5700  145.6190   80.4730 C.3      12 GLL5        0.0000 
    109 CA        120.9441  145.4919   80.5801 C.3       4 GLC5        0.0000 
@<TRIPOS>BOND
@<TRIPOS>SUBSTRUCTURE
     1 ALC1       13 GROUP        1 X    ALC  0     ROOT ALC X 1
     2 SEC2        4 GROUP        1 X    SEC  0     **** SEC X 2
     3 LYC4        1 GROUP        1 X    LYC  0     **** LYC X 4
     4 GLC5        7 GROUP        1 X    GLC  0     **** GLC X 6
     5 ALP1       15 GROUP        1 Y    ALP  0     ROOT ALP Y 8
     6 SEP2        6 GROUP        1 Y    SEP  0     **** SEP Y 9
     7 LYP4        3 GROUP        1 Y    LYP  0     **** LYP Y 11
     8 GLP5        9 GROUP        1 Y    GLP  0     **** GLP Y 13
     9 ALL1       14 GROUP        1 Z    ALL  0     ROOT ALL Z 15
    10 SEL2        5 GROUP        1 Z    SEL  0     **** SEL Z 16
    11 LYL4        2 GROUP        1 Z    LYL  0     **** LYL Z 18
    12 GLL5        8 GROUP        1 Z    GLL  0     **** GLL Z 20
@<TRIPOS>SET

