#    Name: 3fg2_FAD_1_ligand
#    Modification time : Tue Mar 25 04:04:46 2014

@<TRIPOS>MOLECULE
3fg2_FAD_1_ligand
   84    89     1     0     0
SMALL
NO_CHARGES


@<TRIPOS>ATOM
      1 PA        114.1440  151.3220   82.5490 P.3       1 FAD449      0.0000 
      2 O1A       115.6030  151.4750   82.7860 O.co2     1 FAD449      0.0000 
      3 O2A       113.6750  150.6780   81.4540 O.co2     1 FAD449      0.0000 
      4 O5B       113.7660  152.7910   82.2970 O.3       1 FAD449      0.0000 
      5 C5B       114.0270  153.8880   83.2290 C.3       1 FAD449      0.0000 
      6 C4B       113.7480  155.1620   82.4020 C.3       1 FAD449      0.0000 
      7 O4B       113.5470  156.2660   83.3640 O.3       1 FAD449      0.0000 
      8 C3B       114.8910  155.6210   81.4780 C.3       1 FAD449      0.0000 
      9 O3B       114.5380  155.9570   80.1730 O.3       1 FAD449      0.0000 
     10 C2B       115.5420  156.6960   82.3020 C.3       1 FAD449      0.0000 
     11 O2B       116.3450  157.5600   81.5590 O.3       1 FAD449      0.0000 
     12 C1B       114.3340  157.3920   82.8550 C.3       1 FAD449      0.0000 
     13 N9A       114.5220  158.2280   84.0430 N.pl3     1 FAD449      0.0000 
     14 C8A       115.3700  157.9930   85.0950 C.2       1 FAD449      0.0000 
     15 N7A       115.3200  158.9420   86.0220 N.2       1 FAD449      0.0000 
     16 C5A       114.4010  159.8400   85.5630 C.ar      1 FAD449      0.0000 
     17 C6A       113.8970  161.1120   86.1280 C.ar      1 FAD449      0.0000 
     18 N6A       114.2940  161.6260   87.2690 N.pl3     1 FAD449      0.0000 
     19 N1A       112.9480  161.7520   85.3560 N.ar      1 FAD449      0.0000 
     20 C2A       112.5030  161.2500   84.1560 C.ar      1 FAD449      0.0000 
     21 N3A       112.9120  160.0990   83.5710 N.ar      1 FAD449      0.0000 
     22 C4A       113.8650  159.4260   84.3140 C.ar      1 FAD449      0.0000 
     23 N1        115.4270  141.9460   81.2690 N.2       1 FAD449      0.0000 
     24 C2        114.9100  140.7750   80.8970 C.2       1 FAD449      0.0000 
     25 O2        114.0350  140.2550   81.5210 O.2       1 FAD449      0.0000 
     26 N3        115.3680  140.0780   79.7310 N.am      1 FAD449      0.0000 
     27 C4        116.3710  140.5930   78.9280 C.2       1 FAD449      0.0000 
     28 O4        116.7300  139.9750   77.9420 O.2       1 FAD449      0.0000 
     29 C4X       116.9420  141.8770   79.3230 C.2       1 FAD449      0.0000 
     30 N5        117.9210  142.4360   78.5710 N.2       1 FAD449      0.0000 
     31 C5X       118.4350  143.6580   78.9670 C.ar      1 FAD449      0.0000 
     32 C6        119.4530  144.2360   78.1570 C.ar      1 FAD449      0.0000 
     33 C7        120.0210  145.4550   78.4670 C.ar      1 FAD449      0.0000 
     34 C7M       121.1020  146.0270   77.5710 C.3       1 FAD449      0.0000 
     35 C8        119.5750  146.1840   79.6600 C.ar      1 FAD449      0.0000 
     36 C8M       120.1500  147.5250   80.0590 C.3       1 FAD449      0.0000 
     37 C9        118.5700  145.6190   80.4730 C.ar      1 FAD449      0.0000 
     38 C9A       117.9960  144.3690   80.1370 C.ar      1 FAD449      0.0000 
     39 N10       116.9440  143.7340   80.9210 N.pl3     1 FAD449      0.0000 
     40 C10       116.4200  142.5310   80.5400 C.2       1 FAD449      0.0000 
     41 C1'       116.4700  144.4550   82.1290 C.3       1 FAD449      0.0000 
     42 C2'       115.2540  145.3650   81.7760 C.3       1 FAD449      0.0000 
     43 O2'       115.6370  146.2240   80.7250 O.3       1 FAD449      0.0000 
     44 C3'       114.8780  146.1420   83.0210 C.3       1 FAD449      0.0000 
     45 O3'       114.4760  145.2380   84.0440 O.3       1 FAD449      0.0000 
     46 C4'       113.7370  147.0950   82.7090 C.3       1 FAD449      0.0000 
     47 O4'       114.1230  148.0230   81.6610 O.3       1 FAD449      0.0000 
     48 C5'       113.3930  147.8580   83.9650 C.3       1 FAD449      0.0000 
     49 O5'       112.2370  148.8660   83.5910 O.3       1 FAD449      0.0000 
     50 P         112.1840  150.2080   84.2640 P.3       1 FAD449      0.0000 
     51 O1P       110.9060  150.8290   83.6320 O.co2     1 FAD449      0.0000 
     52 O2P       112.1860  150.1520   85.6570 O.co2     1 FAD449      0.0000 
     53 O3P       113.3540  151.0100   83.8940 O.3       1 FAD449      0.0000 
     54 H         115.0482  153.9064   83.5409 H         1 FAD449      0.0000 
     55 H         113.3535  153.8707   84.0576 H         1 FAD449      0.0000 
     56 H         112.8574  155.0328   81.8299 H         1 FAD449      0.0000 
     57 H         115.6173  154.7605   81.5091 H         1 FAD449      0.0000 
     58 H         116.0392  156.2193   83.1232 H         1 FAD449      0.0000 
     59 H         113.7886  157.8682   82.1003 H         1 FAD449      0.0000 
     60 H         115.9530  157.1877   85.1373 H         1 FAD449      0.0000 
     61 H         114.6192  160.9754   87.9552 H         1 FAD449      0.0000 
     62 H         114.2349  162.6212   87.3476 H         1 FAD449      0.0000 
     63 H         111.7575  161.8339   83.6373 H         1 FAD449      0.0000 
     64 H         114.9261  139.1725   79.5029 H         1 FAD449      0.0000 
     65 H         119.7627  143.7135   77.3170 H         1 FAD449      0.0000 
     66 H         118.2525  146.1135   81.3108 H         1 FAD449      0.0000 
     67 H         117.2557  145.0902   82.5343 H         1 FAD449      0.0000 
     68 H         116.1501  143.7540   82.8980 H         1 FAD449      0.0000 
     69 H         114.4463  144.7164   81.5088 H         1 FAD449      0.0000 
     70 H         115.7313  146.7261   83.3281 H         1 FAD449      0.0000 
     71 H         112.8802  146.5157   82.4144 H         1 FAD449      0.0000 
     72 H         114.2317  148.4276   84.3063 H         1 FAD449      0.0000 
     73 H         113.0252  147.1983   84.7226 H         1 FAD449      0.0000 
     74 H         121.4318  146.9102   77.9043 H         1 FAD449      0.0000 
     75 H         121.8953  145.4209   77.5127 H         1 FAD449      0.0000 
     76 H         120.7733  146.1702   76.6375 H         1 FAD449      0.0000 
     77 H         121.1344  147.4719   80.2269 H         1 FAD449      0.0000 
     78 H         120.0106  148.2150   79.3488 H         1 FAD449      0.0000 
     79 H         119.7285  147.8758   80.8952 H         1 FAD449      0.0000 
     80 H         115.3351  156.4352   79.8044 H         1 FAD449      0.0000 
     81 H         116.0102  158.4766   81.7776 H         1 FAD449      0.0000 
     82 H         115.5595  147.1463   81.1035 H         1 FAD449      0.0000 
     83 H         114.5337  145.7648   84.8920 H         1 FAD449      0.0000 
     84 H         113.7591  148.9078   81.9520 H         1 FAD449      0.0000 
@<TRIPOS>BOND
     1    2    1 ar   
     2    3    1 ar   
     3    4    1 1    
     4   53    1 1    
     5    5    4 1    
     6    6    5 1    
     7   54    5 1    
     8   55    5 1    
     9    7    6 1    
    10    8    6 1    
    11   56    6 1    
    12   12    7 1    
    13    9    8 1    
    14   10    8 1    
    15   57    8 1    
    16   80    9 1    
    17   11   10 1    
    18   12   10 1    
    19   58   10 1    
    20   81   11 1    
    21   13   12 1    
    22   59   12 1    
    23   14   13 1    
    24   22   13 1    
    25   15   14 2    
    26   60   14 1    
    27   16   15 1    
    28   17   16 ar   
    29   22   16 ar   
    30   18   17 1    
    31   19   17 ar   
    32   61   18 1    
    33   62   18 1    
    34   20   19 ar   
    35   21   20 ar   
    36   63   20 1    
    37   22   21 ar   
    38   24   23 1    
    39   40   23 2    
    40   25   24 2    
    41   26   24 am   
    42   27   26 am   
    43   64   26 1    
    44   28   27 2    
    45   29   27 1    
    46   30   29 2    
    47   40   29 1    
    48   31   30 1    
    49   32   31 ar   
    50   38   31 ar   
    51   33   32 ar   
    52   65   32 1    
    53   34   33 1    
    54   35   33 ar   
    55   74   34 1    
    56   75   34 1    
    57   76   34 1    
    58   36   35 1    
    59   37   35 ar   
    60   77   36 1    
    61   78   36 1    
    62   79   36 1    
    63   38   37 ar   
    64   66   37 1    
    65   39   38 1    
    66   40   39 1    
    67   41   39 1    
    68   42   41 1    
    69   67   41 1    
    70   68   41 1    
    71   43   42 1    
    72   44   42 1    
    73   69   42 1    
    74   82   43 1    
    75   45   44 1    
    76   46   44 1    
    77   70   44 1    
    78   83   45 1    
    79   47   46 1    
    80   48   46 1    
    81   71   46 1    
    82   84   47 1    
    83   49   48 1    
    84   72   48 1    
    85   73   48 1    
    86   50   49 1    
    87   51   50 ar   
    88   52   50 ar   
    89   53   50 1    
@<TRIPOS>SUBSTRUCTURE
     1 FAD449      1 GROUP   
@<TRIPOS>SET

