#    Name: 2ceo_T44_2_INTS_M
#    Modification time : Mon Mar 24 23:37:37 2014

@<TRIPOS>MOLECULE
2ceo_T44_2_INTS_M
   62     0     6     0     0
SMALL
NO_CHARGES


@<TRIPOS>ATOM
      1 CA        -18.4345    2.3815  -75.2925 C.3       2 GLC5        0.0000 
      2 CA        -20.0100    3.5660  -76.0510 C.3       6 GLL5        0.0000 
      3 CA        -16.8590    1.1970  -74.5340 C.3       4 GLP5        0.0000 
      4 CA        -18.3020    4.6285  -79.8665 C.3       2 GLC5        0.0000 
      5 CA        -19.7120    3.6850  -78.5110 C.3       6 GLL5        0.0000 
      6 CA        -16.8920    5.5720  -81.2220 C.3       4 GLP5        0.0000 
      7 CA        -20.1670    0.6410  -79.0550 C.3       2 GLC5        0.0000 
      8 CA        -20.9180    2.1050  -80.0580 C.3       6 GLL5        0.0000 
      9 CA        -19.4160   -0.8230  -78.0520 C.3       4 GLP5        0.0000 
     10 CA        -19.1505    6.4000  -73.5480 C.3       2 GLC5        0.0000 
     11 CA        -20.5560    4.8950  -74.1350 C.3       6 GLL5        0.0000 
     12 CA        -17.7450    7.9050  -72.9610 C.3       4 GLP5        0.0000 
     13 CA        -22.1495    8.8875  -72.7420 C.3       2 GLC5        0.0000 
     14 CA        -22.2990    6.6480  -72.7180 C.3       6 GLL5        0.0000 
     15 CA        -22.0000   11.1270  -72.7660 C.3       4 GLP5        0.0000 
     16 N         -23.1025    4.7380  -79.0825 N.am      1 SEC2        0.0000 
     17 N         -23.9710    3.5240  -79.2240 N.am      5 SEL2        0.0000 
     18 N         -22.2340    5.9520  -78.9410 N.am      3 SEP2        0.0000 
     19 N         -23.4030   -0.2000  -79.6870 N.am      1 SEC2        0.0000 
     20 N         -23.7280    1.3550  -79.4020 N.am      5 SEL2        0.0000 
     21 N         -23.0780   -1.7550  -79.9720 N.am      3 SEP2        0.0000 
     22 CA        -20.0500    0.5245  -73.9610 C.3       2 GLC5        0.0000 
     23 CA        -21.8130    1.5410  -74.5810 C.3       6 GLL5        0.0000 
     24 CA        -18.2870   -0.4920  -73.3410 C.3       4 GLP5        0.0000 
     25 CA        -22.8850   -0.1980  -74.8530 C.3       2 GLC5        0.0000 
     26 CA        -23.9570   -1.9370  -75.1250 C.3       4 GLP5        0.0000 
     27 CA        -23.1825    2.2725  -73.5650 C.3       2 GLC5        0.0000 
     28 CA        -24.5520    3.0040  -72.5490 C.3       4 GLP5        0.0000 
     29 CA        -22.4380    7.7685  -76.6830 C.3       2 GLC5        0.0000 
     30 CA        -23.7800    7.6270  -75.2530 C.3       6 GLL5        0.0000 
     31 CA        -21.0960    7.9100  -78.1130 C.3       4 GLP5        0.0000 
     32 CA        -16.4355    4.6625  -76.7265 C.3       2 GLC5        0.0000 
     33 CA        -18.0900    5.7610  -76.9320 C.3       6 GLL5        0.0000 
     34 CA        -14.7810    3.5640  -76.5210 C.3       4 GLP5        0.0000 
     35 CA        -16.9040    7.3960  -77.5610 C.3       2 GLC5        0.0000 
     36 CA        -15.7180    9.0310  -78.1900 C.3       4 GLP5        0.0000 
     37 CA        -19.0900    6.9515  -78.0910 C.3       2 GLC5        0.0000 
     38 CA        -20.0900    8.1420  -79.2500 C.3       4 GLP5        0.0000 
     39 CA        -17.4910    5.6665  -79.0770 C.3       2 GLC5        0.0000 
     40 CA        -22.9450    5.1300  -68.9070 C.3       2 GLC5        0.0000 
     41 CA        -21.1520    5.9930  -69.9420 C.3       6 GLL5        0.0000 
     42 CA        -24.7380    4.2670  -67.8720 C.3       4 GLP5        0.0000 
     43 CA        -22.0185    6.9750  -68.1775 C.3       2 GLC5        0.0000 
     44 CA        -22.8850    7.9570  -66.4130 C.3       4 GLP5        0.0000 
     45 CA        -19.9340    6.0060  -68.5050 C.3       2 GLC5        0.0000 
     46 CA        -18.7160    6.0190  -67.0680 C.3       4 GLP5        0.0000 
     47 CA        -19.2860    6.0355  -70.6285 C.3       2 GLC5        0.0000 
     48 CA        -17.4200    6.0780  -71.3150 C.3       4 GLP5        0.0000 
     49 CA        -22.5180    4.3630  -70.5730 C.3       2 GLC5        0.0000 
     50 CA        -23.8840    2.7330  -71.2040 C.3       4 GLP5        0.0000 
     51 CA        -20.1693    0.7751  -77.6155 C.3       2 GLC5        0.0000 
     52 CA        -21.2020    2.0030  -77.5490 C.3       6 GLL5        0.0000 
     53 CA        -20.3260    5.9205  -77.9950 C.3       2 GLC5        0.0000 
     54 CA        -21.5160    6.9968  -76.3152 C.3       2 GLC5        0.0000 
     55 CA        -21.5000    5.6480  -74.8450 C.3       6 GLL5        0.0000 
     56 CA        -23.8402    5.4428  -73.0055 C.3       2 GLC5        0.0000 
     57 CA        -22.3720    6.5190  -74.1900 C.3       6 GLL5        0.0000 
     58 CA        -25.3450    4.3020  -72.5570 C.3       4 GLP5        0.0000 
     59 CA        -19.1460    5.7443  -71.8460 C.3       2 GLC5        0.0000 
     60 CA        -21.2890    5.8340  -72.0120 C.3       6 GLL5        0.0000 
     61 CA        -22.3780    4.0717  -71.7905 C.3       2 GLC5        0.0000 
     62 CA        -20.4550    4.9870  -72.7420 C.3       6 GLL5        0.0000 
@<TRIPOS>BOND
@<TRIPOS>SUBSTRUCTURE
     1 SEC2       16 GROUP        1 X    SEC  0     ROOT SEC X 2
     2 GLC5        1 GROUP        1 X    GLC  0     **** GLC X 6
     3 SEP2       18 GROUP        1 Y    SEP  0     ROOT SEP Y 9
     4 GLP5        3 GROUP        1 Y    GLP  0     **** GLP Y 13
     5 SEL2       17 GROUP        1 Z    SEL  0     ROOT SEL Z 16
     6 GLL5        2 GROUP        1 Z    GLL  0     **** GLL Z 20
@<TRIPOS>SET

