#    Name: 2ceo_T44_2_ligand
#    Modification time : Mon Mar 24 23:37:37 2014

@<TRIPOS>MOLECULE
2ceo_T44_2_ligand
   35    36     1     0     0
SMALL
NO_CHARGES


@<TRIPOS>ATOM
      1 C1        -20.6040    2.6160  -78.6630 C.ar      1 T441395     0.0000 
      2 C2        -21.2020    2.0030  -77.5490 C.ar      1 T441395     0.0000 
      3 C3        -20.9420    2.4370  -76.2520 C.ar      1 T441395     0.0000 
      4 C4        -20.0100    3.5660  -76.0510 C.ar      1 T441395     0.0000 
      5 C5        -19.4000    4.1770  -77.2430 C.ar      1 T441395     0.0000 
      6 C6        -19.7120    3.6850  -78.5110 C.ar      1 T441395     0.0000 
      7 C7        -20.9180    2.1050  -80.0580 C.3       1 T441395     0.0000 
      8 C8        -22.2080    2.6980  -80.6330 C.3       1 T441395     0.0000 
      9 C9        -23.3790    2.5210  -79.6910 C.2       1 T441395     0.0000 
     10 C1'       -20.5560    4.8950  -74.1350 C.ar      1 T441395     0.0000 
     11 C2'       -21.5000    5.6480  -74.8450 C.ar      1 T441395     0.0000 
     12 C3'       -22.3720    6.5190  -74.1900 C.ar      1 T441395     0.0000 
     13 C4'       -22.2990    6.6480  -72.7180 C.ar      1 T441395     0.0000 
     14 C5'       -21.2890    5.8340  -72.0120 C.ar      1 T441395     0.0000 
     15 C6'       -20.4550    4.9870  -72.7420 C.ar      1 T441395     0.0000 
     16 N8        -21.9930    4.0930  -80.9770 N.4       1 T441395     0.0000 
     17 O4        -19.7080    4.0430  -74.8020 O.3       1 T441395     0.0000 
     18 O4'       -23.1260    7.4820  -72.0300 O.3       1 T441395     0.0000 
     19 O9        -23.9710    3.5240  -79.2240 O.co2     1 T441395     0.0000 
     20 O10       -23.7280    1.3550  -79.4020 O.co2     1 T441395     0.0000 
     21 I3        -21.8130    1.5410  -74.5810 I         1 T441395     0.0000 
     22 I3'       -23.7800    7.6270  -75.2530 I         1 T441395     0.0000 
     23 I5        -18.0900    5.7610  -76.9320 I         1 T441395     0.0000 
     24 I5'       -21.1520    5.9930  -69.9420 I         1 T441395     0.0000 
     25 H         -21.8511    1.2096  -77.7023 H         1 T441395     0.0000 
     26 H         -19.2829    4.1111  -79.3455 H         1 T441395     0.0000 
     27 H         -21.0123    1.0112  -80.0318 H         1 T441395     0.0000 
     28 H         -20.0853    2.3499  -80.7308 H         1 T441395     0.0000 
     29 H         -22.4305    2.1320  -81.5550 H         1 T441395     0.0000 
     30 H         -21.5500    5.5552  -75.8741 H         1 T441395     0.0000 
     31 H         -19.7488    4.4160  -72.2470 H         1 T441395     0.0000 
     32 H         -22.6077    4.6990  -80.4721 H         1 T441395     0.0000 
     33 H         -21.0591    4.3862  -80.7725 H         1 T441395     0.0000 
     34 H         -22.1474    4.2636  -81.9502 H         1 T441395     0.0000 
     35 H         -22.5105    8.0975  -71.5376 H         1 T441395     0.0000 
@<TRIPOS>BOND
     1    2    1 ar   
     2    6    1 ar   
     3    7    1 1    
     4    3    2 ar   
     5   25    2 1    
     6    4    3 ar   
     7   21    3 1    
     8    5    4 ar   
     9   17    4 1    
    10    6    5 ar   
    11   23    5 1    
    12   26    6 1    
    13    8    7 1    
    14   27    7 1    
    15   28    7 1    
    16    9    8 1    
    17   16    8 1    
    18   29    8 1    
    19   19    9 ar   
    20   20    9 ar   
    21   11   10 ar   
    22   15   10 ar   
    23   17   10 1    
    24   12   11 ar   
    25   30   11 1    
    26   13   12 ar   
    27   22   12 1    
    28   14   13 ar   
    29   18   13 1    
    30   15   14 ar   
    31   24   14 1    
    32   31   15 1    
    33   32   16 1    
    34   33   16 1    
    35   34   16 1    
    36   35   18 1    
@<TRIPOS>SUBSTRUCTURE
     1 T441395     1 GROUP   
@<TRIPOS>SET

