#    Name: 3io7_1P5_1_INTS_M
#    Modification time : Tue Mar 25 16:59:28 2014

@<TRIPOS>MOLECULE
3io7_1P5_1_INTS_M
   61     0     9     0     0
SMALL
NO_CHARGES


@<TRIPOS>ATOM
      1 CA         13.1515   15.3735    4.7015 C.3       3 GLC5        0.0000 
      2 CA         14.5510   15.6640    2.9800 C.3       9 GLL5        0.0000 
      3 CA         11.7520   15.0830    6.4230 C.3       6 GLP5        0.0000 
      4 CA         16.7285   16.6520    0.6530 C.3       3 GLC5        0.0000 
      5 CA         15.4050   15.9210    1.7360 C.3       9 GLL5        0.0000 
      6 CA         18.0520   17.3830   -0.4300 C.3       6 GLP5        0.0000 
      7 CA         15.9655   13.8445    1.3170 C.3       3 GLC5        0.0000 
      8 CA         16.5260   11.7680    0.8980 C.3       6 GLP5        0.0000 
      9 CA         20.0025   16.5170    3.9010 C.3       3 GLC5        0.0000 
     10 CA         18.2800   15.6330    5.0340 C.3       9 GLL5        0.0000 
     11 CA         21.7250   17.4010    2.7680 C.3       6 GLP5        0.0000 
     12 CA         12.4100   11.7880    4.4645 C.3       3 GLC5        0.0000 
     13 CA         13.2510   10.9400    2.7880 C.3       9 GLL5        0.0000 
     14 CA         11.5690   12.6360    6.1410 C.3       6 GLP5        0.0000 
     15 CA         11.2600   10.1920    3.3280 C.3       3 GLC5        0.0000 
     16 CA          9.2690    9.4440    3.8680 C.3       6 GLP5        0.0000 
     17 CA         13.7965   11.3775    1.1890 C.3       3 GLC5        0.0000 
     18 CA         14.3420   11.8150   -0.4100 C.3       6 GLP5        0.0000 
     19 CA          9.2210   11.0715    0.8775 C.3       3 GLC5        0.0000 
     20 CA         11.3870   10.7030    1.3050 C.3       9 GLL5        0.0000 
     21 CA          7.0550   11.4400    0.4500 C.3       6 GLP5        0.0000 
     22 CA         12.8655   16.4345    5.3410 C.3       3 GLC5        0.0000 
     23 CA         13.9790   17.7860    4.2590 C.3       9 GLL5        0.0000 
     24 CA         19.6750   12.5125    4.5370 C.3       3 GLC5        0.0000 
     25 CA         18.6090   13.3830    6.1500 C.3       9 GLL5        0.0000 
     26 CA         20.7410   11.6420    2.9240 C.3       6 GLP5        0.0000 
     27 CA         16.1060   14.2005    7.7765 C.3       3 GLC5        0.0000 
     28 CA         16.2740   14.2330    5.8210 C.3       9 GLL5        0.0000 
     29 CA         15.9380   14.1680    9.7320 C.3       6 GLP5        0.0000 
     30 CA         13.6175   12.1725    5.4315 C.3       3 GLC5        0.0000 
     31 CA         15.6660   11.7090    4.7220 C.3       9 GLL5        0.0000 
     32 CA         16.0450    8.6995    6.5555 C.3       3 GLC5        0.0000 
     33 CA         17.3170    9.6330    5.2380 C.3       9 GLL5        0.0000 
     34 CA         14.7730    7.7660    7.8730 C.3       6 GLP5        0.0000 
     35 CA         17.9475    8.5220    3.7090 C.3       3 GLC5        0.0000 
     36 CA         18.5780    7.4110    2.1800 C.3       6 GLP5        0.0000 
     37 CA          9.6370   12.8020    1.9825 C.3       3 GLC5        0.0000 
     38 CA         11.1040   12.0230    1.4710 C.3       9 GLL5        0.0000 
     39 CA          8.1700   13.5810    2.4940 C.3       6 GLP5        0.0000 
     40 N          12.6650    7.5705    1.0530 N.am      2 SEC2        0.0000 
     41 N          12.9990    8.8820    1.9520 N.am      8 SEL2        0.0000 
     42 N          12.3310    6.2590    0.1540 N.am      5 SEP2        0.0000 
     43 O          15.0465    6.8250    1.9360 O.2       1 ALC1        0.0000 
     44 O          14.8430    7.7180    2.9800 O.2       7 ALL1        0.0000 
     45 O          15.2500    5.9320    0.8920 O.2       4 ALP1        0.0000 
     46 CA         14.1765   17.1782    1.4075 C.3       3 GLC5        0.0000 
     47 CA         13.3750   18.5640    0.4570 C.3       6 GLP5        0.0000 
     48 CA         15.2337   11.0000    6.7020 C.3       3 GLC5        0.0000 
     49 CA         14.2340   10.2070    8.2770 C.3       6 GLP5        0.0000 
     50 CA         13.7890    9.5335    5.2910 C.3       3 GLC5        0.0000 
     51 CA         15.4020   10.4250    4.2010 C.3       9 GLL5        0.0000 
     52 CA         12.7450    8.8020    6.8300 C.3       6 GLP5        0.0000 
     53 CA         10.2572   10.4035    2.6280 C.3       3 GLC5        0.0000 
     54 CA         10.8163   11.1920   -0.6110 C.3       3 GLC5        0.0000 
     55 CA         10.3870   11.0210   -2.6100 C.3       6 GLP5        0.0000 
     56 CA         12.7937   11.5890    0.4890 C.3       3 GLC5        0.0000 
     57 CA         14.2545   19.3027    5.6470 C.3       3 GLC5        0.0000 
     58 CA         14.1890   20.1530    7.2040 C.3       6 GLP5        0.0000 
     59 CA         13.8475   18.5083    2.2735 C.3       3 GLC5        0.0000 
     60 CA         14.6610   19.1190    3.9210 C.3       9 GLL5        0.0000 
     61 CA         15.8878   11.3775    2.5675 C.3       3 GLC5        0.0000 
@<TRIPOS>BOND
@<TRIPOS>SUBSTRUCTURE
     1 ALC1       43 GROUP        1 X    ALC  0     ROOT ALC X 1
     2 SEC2       40 GROUP        1 X    SEC  0     **** SEC X 2
     3 GLC5        1 GROUP        1 X    GLC  0     **** GLC X 6
     4 ALP1       45 GROUP        1 Y    ALP  0     ROOT ALP Y 8
     5 SEP2       42 GROUP        1 Y    SEP  0     **** SEP Y 9
     6 GLP5        3 GROUP        1 Y    GLP  0     **** GLP Y 13
     7 ALL1       44 GROUP        1 Z    ALL  0     ROOT ALL Z 15
     8 SEL2       41 GROUP        1 Z    SEL  0     **** SEL Z 16
     9 GLL5        2 GROUP        1 Z    GLL  0     **** GLL Z 20
@<TRIPOS>SET

