#    Name: 3io7_1P5_1_ligand
#    Modification time : Tue Mar 25 16:59:28 2014

@<TRIPOS>MOLECULE
3io7_1P5_1_ligand
   55    58     1     0     0
SMALL
NO_CHARGES


@<TRIPOS>ATOM
      1 N3         14.8660   16.6100    4.0650 N.am      1 1P51        0.0000 
      2 C4         14.5510   15.6640    2.9800 C.3       1 1P51        0.0000 
      3 C5         15.4050   15.9210    1.7360 C.3       1 1P51        0.0000 
      4 C6         15.9240   16.3910    4.8910 C.2       1 1P51        0.0000 
      5 C8         16.8280   15.2000    4.7700 C.3       1 1P51        0.0000 
      6 C10        18.2800   15.6330    5.0340 C.3       1 1P51        0.0000 
      7 C15        16.8010   11.8770    5.5320 C.ar      1 1P51        0.0000 
      8 C17        15.4020   10.4250    4.2010 C.ar      1 1P51        0.0000 
      9 C21        14.2640   10.1050    3.3030 C.2       1 1P51        0.0000 
     10 C22        13.2510   10.9400    2.7880 C.2       1 1P51        0.0000 
     11 C24        11.9190   12.7820    2.3290 C.2       1 1P51        0.0000 
     12 C26        11.3870   10.7030    1.3050 C.2       1 1P51        0.0000 
     13 C1         14.6610   19.1190    3.9210 C.3       1 1P51        0.0000 
     14 C2         13.9790   17.7860    4.2590 C.3       1 1P51        0.0000 
     15 O7         16.1650   17.1650    5.7890 O.2       1 1P51        0.0000 
     16 C11        18.9120   14.8880    6.2150 C.3       1 1P51        0.0000 
     17 C12        18.6090   13.3830    6.1500 C.3       1 1P51        0.0000 
     18 N13        17.1540   13.0940    6.1320 N.3       1 1P51        0.0000 
     19 C14        16.2740   14.2330    5.8210 C.3       1 1P51        0.0000 
     20 C16        15.6660   11.7090    4.7220 C.ar      1 1P51        0.0000 
     21 N18        16.2700    9.4410    4.4730 N.ar      1 1P51        0.0000 
     22 C19        17.3170    9.6330    5.2380 C.ar      1 1P51        0.0000 
     23 N20        17.5710   10.8150    5.7590 N.ar      1 1P51        0.0000 
     24 N23        12.9510   12.2360    2.9580 N.2       1 1P51        0.0000 
     25 C25        11.1040   12.0230    1.4710 C.2       1 1P51        0.0000 
     26 N27        12.4670   10.1680    1.9570 N.pl3     1 1P51        0.0000 
     27 N28        12.9990    8.8820    1.9520 N.2       1 1P51        0.0000 
     28 C29        14.0510    8.8370    2.7430 C.2       1 1P51        0.0000 
     29 N30        14.8430    7.7180    2.9800 N.pl3     1 1P51        0.0000 
     30 H          13.4934   15.7456    2.6934 H         1 1P51        0.0000 
     31 H          14.7251   14.6300    3.3085 H         1 1P51        0.0000 
     32 H          16.7242   14.7775    3.8109 H         1 1P51        0.0000 
     33 H          18.2981   16.7086    5.2374 H         1 1P51        0.0000 
     34 H          18.8748   15.4480    4.1336 H         1 1P51        0.0000 
     35 H          11.6784   13.7921    2.4503 H         1 1P51        0.0000 
     36 H          10.8013   10.1106    0.6994 H         1 1P51        0.0000 
     37 H          13.6338   17.8322    5.3054 H         1 1P51        0.0000 
     38 H          13.0793   17.6906    3.6283 H         1 1P51        0.0000 
     39 H          18.5170   15.2909    7.1464 H         1 1P51        0.0000 
     40 H          19.9908   15.0352    6.1964 H         1 1P51        0.0000 
     41 H          19.0827   12.9001    7.0182 H         1 1P51        0.0000 
     42 H          19.0897   12.9752    5.2478 H         1 1P51        0.0000 
     43 H          15.2877   13.8683    5.4618 H         1 1P51        0.0000 
     44 H          16.0624   14.8166    6.7426 H         1 1P51        0.0000 
     45 H          15.0532   12.4853    4.5163 H         1 1P51        0.0000 
     46 H          17.9724    8.8237    5.4423 H         1 1P51        0.0000 
     47 H          10.3220   12.4723    0.9927 H         1 1P51        0.0000 
     48 H          15.2862    7.3150    2.1792 H         1 1P51        0.0000 
     49 H          14.9008    7.4132    3.9307 H         1 1P51        0.0000 
     50 H          16.3814   15.8249    1.9295 H         1 1P51        0.0000 
     51 H          15.1881   15.2819    0.9981 H         1 1P51        0.0000 
     52 H          15.2671   16.8433    1.3749 H         1 1P51        0.0000 
     53 H          15.4671   19.2787    4.4908 H         1 1P51        0.0000 
     54 H          14.9644   19.1499    2.9687 H         1 1P51        0.0000 
     55 H          14.0465   19.8959    4.0582 H         1 1P51        0.0000 
@<TRIPOS>BOND
     1    2    1 1    
     2    4    1 am   
     3   14    1 1    
     4    3    2 1    
     5   30    2 1    
     6   31    2 1    
     7   50    3 1    
     8   51    3 1    
     9   52    3 1    
    10    5    4 1    
    11   15    4 2    
    12    6    5 1    
    13   19    5 1    
    14   32    5 1    
    15   16    6 1    
    16   33    6 1    
    17   34    6 1    
    18   18    7 1    
    19   20    7 ar   
    20   23    7 ar   
    21    9    8 1    
    22   20    8 ar   
    23   21    8 ar   
    24   10    9 2    
    25   28    9 1    
    26   24   10 1    
    27   26   10 1    
    28   24   11 2    
    29   25   11 1    
    30   35   11 1    
    31   25   12 2    
    32   26   12 1    
    33   36   12 1    
    34   14   13 1    
    35   53   13 1    
    36   54   13 1    
    37   55   13 1    
    38   37   14 1    
    39   38   14 1    
    40   17   16 1    
    41   39   16 1    
    42   40   16 1    
    43   18   17 1    
    44   41   17 1    
    45   42   17 1    
    46   19   18 1    
    47   43   19 1    
    48   44   19 1    
    49   45   20 1    
    50   22   21 ar   
    51   23   22 ar   
    52   46   22 1    
    53   47   25 1    
    54   27   26 1    
    55   28   27 2    
    56   29   28 1    
    57   48   29 1    
    58   49   29 1    
@<TRIPOS>SUBSTRUCTURE
     1 1P51        1 GROUP   
@<TRIPOS>SET

