#    Name: 2dwb_ANP_1_INTS_M
#    Modification time : Tue Mar 25 10:25:01 2014

@<TRIPOS>MOLECULE
2dwb_ANP_1_INTS_M
   69     0    15     0     0
SMALL
NO_CHARGES


@<TRIPOS>ATOM
      1 NZ         13.3420   72.1930   63.5565 N.4       4 LYC4        0.0000 
      2 NZ         12.1850   70.9060   62.8190 N.4      14 LYL4        0.0000 
      3 NZ         14.4990   73.4800   64.2940 N.4       9 LYP4        0.0000 
      4 N          12.4985   71.3285   64.0855 N.am      2 SEC2        0.0000 
      5 N          12.1850   70.9060   62.8190 N.am     12 SEL2        0.0000 
      6 N          12.8120   71.7510   65.3520 N.am      7 SEP2        0.0000 
      7 N           9.8855   68.3365   63.0720 N.am      2 SEC2        0.0000 
      8 N          11.0940   68.6420   62.6710 N.am     12 SEL2        0.0000 
      9 N           8.6770   68.0310   63.4730 N.am      7 SEP2        0.0000 
     10 NZ         15.3740   68.3920   65.2460 N.4       4 LYC4        0.0000 
     11 NZ         15.9950   68.8530   63.4660 N.4      14 LYL4        0.0000 
     12 NZ         14.7530   67.9310   67.0260 N.4       9 LYP4        0.0000 
     13 N          16.7330   68.8745   62.2240 N.am      2 SEC2        0.0000 
     14 N          15.9950   68.8530   63.4660 N.am     12 SEL2        0.0000 
     15 N          17.4710   68.8960   60.9820 N.am      7 SEP2        0.0000 
     16 NZ         14.3405   68.6685   65.8905 N.4       4 LYC4        0.0000 
     17 NZ         13.9280   69.4060   64.7550 N.4      14 LYL4        0.0000 
     18 N          14.3405   68.6685   65.8905 N.am      2 SEC2        0.0000 
     19 N          13.9280   69.4060   64.7550 N.am     12 SEL2        0.0000 
     20 N          14.7530   67.9310   67.0260 N.am      7 SEP2        0.0000 
     21 OD1        12.5155   69.2830   63.5135 O.co2     3 ASC3        0.0000 
     22 OD1        13.7900   69.0010   62.0540 O.co2    13 ASL3        0.0000 
     23 OD1        11.2410   69.5650   64.9730 O.co2     8 ASP3        0.0000 
     24 NZ         13.8250   67.0650   66.4185 N.4       4 LYC4        0.0000 
     25 NZ         12.8970   66.1990   65.8110 N.4      14 LYL4        0.0000 
     26 N          13.8250   67.0650   66.4185 N.am      2 SEC2        0.0000 
     27 N          12.8970   66.1990   65.8110 N.am     12 SEL2        0.0000 
     28 CA         15.1305   65.6925   61.7850 C.3       5 GLC5        0.0000 
     29 CA         13.3100   64.8470   62.3700 C.3      15 GLL5        0.0000 
     30 CA         16.9510   66.5380   61.2000 C.3      10 GLP5        0.0000 
     31 CA         14.7700   63.7155   63.5010 C.3       5 GLC5        0.0000 
     32 CA         16.2300   62.5840   64.6320 C.3      10 GLP5        0.0000 
     33 CA         13.9340   62.0685   60.9950 C.3       5 GLC5        0.0000 
     34 CA         12.7990   63.5110   61.8200 C.3      15 GLL5        0.0000 
     35 CA         15.0690   60.6260   60.1700 C.3      10 GLP5        0.0000 
     36 CA          9.2670   61.7045   63.5300 C.3       5 GLC5        0.0000 
     37 CA         11.0470   61.9270   62.2100 C.3      15 GLL5        0.0000 
     38 CA          7.4870   61.4820   64.8500 C.3      10 GLP5        0.0000 
     39 CA         13.7205   61.0135   61.4985 C.3       5 GLC5        0.0000 
     40 CA         12.3720   61.4010   62.8270 C.3      15 GLL5        0.0000 
     41 CA         14.3010   61.9925   63.7295 C.3       5 GLC5        0.0000 
     42 CA         13.3125   58.8655   68.1905 C.3       5 GLC5        0.0000 
     43 CA         11.6800   59.4780   67.3300 C.3      15 GLL5        0.0000 
     44 CA         14.9450   58.2530   69.0510 C.3      10 GLP5        0.0000 
     45 CA         11.5570   57.8460   68.8485 C.3       5 GLC5        0.0000 
     46 CA         11.4340   56.2140   70.3670 C.3      10 GLP5        0.0000 
     47 CA          9.6680   58.5250   67.5245 C.3       5 GLC5        0.0000 
     48 CA          7.6560   57.5720   67.7190 C.3      10 GLP5        0.0000 
     49 O          11.4415   59.2745   69.9510 O.2       1 ALC1        0.0000 
     50 O          11.7570   59.7420   68.6820 O.2      11 ALL1        0.0000 
     51 O          11.1260   58.8070   71.2200 O.2       6 ALP1        0.0000 
     52 N          10.4095   57.3705   67.8595 N.am      2 SEC2        0.0000 
     53 N          11.2760   58.2620   66.8910 N.am     12 SEL2        0.0000 
     54 N           9.5430   56.4790   68.8280 N.am      7 SEP2        0.0000 
     55 CA         12.8830   57.1845   65.6260 C.3       5 GLC5        0.0000 
     56 CA         11.1920   57.9850   65.5940 C.3      15 GLL5        0.0000 
     57 CA         14.5740   56.3840   65.6580 C.3      10 GLP5        0.0000 
     58 CA          9.4240   57.7785   66.6565 C.3       5 GLC5        0.0000 
     59 CA          9.8985   59.6335   66.3260 C.3       5 GLC5        0.0000 
     60 CA          8.6050   61.2820   67.0580 C.3      10 GLP5        0.0000 
     61 CA         13.2830   58.7090   64.1665 C.3       5 GLC5        0.0000 
     62 CA         11.9130   60.1320   65.0060 C.3      15 GLL5        0.0000 
     63 CA         14.6530   57.2860   63.3270 C.3      10 GLP5        0.0000 
     64 CA          9.3300   61.9585   61.6590 C.3       5 GLC5        0.0000 
     65 CA          7.5150   61.2420   61.2300 C.3      10 GLP5        0.0000 
     66 CA         13.9402   60.3590   65.7800 C.3       5 GLC5        0.0000 
     67 CA         15.9150   60.4150   65.8680 C.3      10 GLP5        0.0000 
     68 CA         10.2430   60.6680   66.4940 C.3       5 GLC5        0.0000 
     69 CA         12.0180   60.4740   66.3780 C.3      15 GLL5        0.0000 
@<TRIPOS>BOND
@<TRIPOS>SUBSTRUCTURE
     1 ALC1       49 GROUP        1 X    ALC  0     ROOT ALC X 1
     2 SEC2        4 GROUP        1 X    SEC  0     **** SEC X 2
     3 ASC3       21 GROUP        1 X    ASC  0     **** ASC X 3
     4 LYC4        1 GROUP        1 X    LYC  0     **** LYC X 4
     5 GLC5       28 GROUP        1 X    GLC  0     **** GLC X 6
     6 ALP1       51 GROUP        1 Y    ALP  0     ROOT ALP Y 8
     7 SEP2        6 GROUP        1 Y    SEP  0     **** SEP Y 9
     8 ASP3       23 GROUP        1 Y    ASP  0     **** ASP Y 10
     9 LYP4        3 GROUP        1 Y    LYP  0     **** LYP Y 11
    10 GLP5       30 GROUP        1 Y    GLP  0     **** GLP Y 13
    11 ALL1       50 GROUP        1 Z    ALL  0     ROOT ALL Z 15
    12 SEL2        5 GROUP        1 Z    SEL  0     **** SEL Z 16
    13 ASL3       22 GROUP        1 Z    ASL  0     **** ASL Z 17
    14 LYL4        2 GROUP        1 Z    LYL  0     **** LYL Z 18
    15 GLL5       29 GROUP        1 Z    GLL  0     **** GLL Z 20
@<TRIPOS>SET

