#    Name: 2dwb_ANP_1_ligand
#    Modification time : Tue Mar 25 10:25:01 2014

@<TRIPOS>MOLECULE
2dwb_ANP_1_ligand
   43    45     1     0     0
SMALL
NO_CHARGES


@<TRIPOS>ATOM
      1 PG         12.1900   69.6310   62.0690 P.3       1 ANP502      0.0000 
      2 O1G        12.1850   70.9060   62.8190 O.co2     1 ANP502      0.0000 
      3 O2G        11.7950   69.9600   60.5370 O.co2     1 ANP502      0.0000 
      4 O3G        11.0940   68.6420   62.6710 O.co2     1 ANP502      0.0000 
      5 PB         14.5430   68.5530   63.5450 P.3       1 ANP502      0.0000 
      6 O1B        15.9950   68.8530   63.4660 O.co2     1 ANP502      0.0000 
      7 O2B        13.9280   69.4060   64.7550 O.co2     1 ANP502      0.0000 
      8 N3B        13.7900   69.0010   62.0540 N.4       1 ANP502      0.0000 
      9 PA         13.0770   66.2350   64.3290 P.3       1 ANP502      0.0000 
     10 O1A        12.8970   66.1990   65.8110 O.co2     1 ANP502      0.0000 
     11 O2A        11.8230   66.9240   63.6620 O.co2     1 ANP502      0.0000 
     12 O3A        14.4710   66.9850   63.9930 O.3       1 ANP502      0.0000 
     13 O5'        13.2700   64.7530   63.7890 O.3       1 ANP502      0.0000 
     14 C5'        13.3100   64.8470   62.3700 C.3       1 ANP502      0.0000 
     15 C4'        12.7990   63.5110   61.8200 C.3       1 ANP502      0.0000 
     16 O4'        13.4100   62.3660   62.4870 O.3       1 ANP502      0.0000 
     17 C3'        11.2430   63.4230   61.9660 C.3       1 ANP502      0.0000 
     18 O3'        10.7870   63.8420   60.6860 O.3       1 ANP502      0.0000 
     19 C2'        11.0470   61.9270   62.2100 C.3       1 ANP502      0.0000 
     20 O2'        10.5700   61.2160   61.0770 O.3       1 ANP502      0.0000 
     21 C1'        12.3720   61.4010   62.8270 C.3       1 ANP502      0.0000 
     22 N9         12.2990   61.2590   64.3060 N.pl3     1 ANP502      0.0000 
     23 C8         12.6140   62.2200   65.2410 C.2       1 ANP502      0.0000 
     24 N7         12.4470   61.7550   66.4420 N.2       1 ANP502      0.0000 
     25 C5         12.0180   60.4740   66.3780 C.ar      1 ANP502      0.0000 
     26 C6         11.6800   59.4780   67.3300 C.ar      1 ANP502      0.0000 
     27 N6         11.7570   59.7420   68.6820 N.pl3     1 ANP502      0.0000 
     28 N1         11.2760   58.2620   66.8910 N.ar      1 ANP502      0.0000 
     29 C2         11.1920   57.9850   65.5940 C.ar      1 ANP502      0.0000 
     30 N3         11.5020   58.8920   64.6680 N.ar      1 ANP502      0.0000 
     31 C4         11.9130   60.1320   65.0060 C.ar      1 ANP502      0.0000 
     32 H          14.3173   64.9965   61.9958 H         1 ANP502      0.0000 
     33 H          12.6629   65.6312   61.9912 H         1 ANP502      0.0000 
     34 H          13.0098   63.4802   60.7512 H         1 ANP502      0.0000 
     35 H          10.9665   63.9835   62.7600 H         1 ANP502      0.0000 
     36 H          10.3019   61.8692   63.0518 H         1 ANP502      0.0000 
     37 H          12.5920   60.4538   62.3691 H         1 ANP502      0.0000 
     38 H          12.9191   63.1204   64.9893 H         1 ANP502      0.0000 
     39 H          11.5310   58.9826   69.2922 H         1 ANP502      0.0000 
     40 H          12.0321   60.6698   68.9342 H         1 ANP502      0.0000 
     41 H          10.8723   57.0241   65.2881 H         1 ANP502      0.0000 
     42 H          10.5223   62.9993   60.2171 H         1 ANP502      0.0000 
     43 H          10.0613   60.4414   61.4530 H         1 ANP502      0.0000 
@<TRIPOS>BOND
     1    2    1 ar   
     2    3    1 ar   
     3    4    1 ar   
     4    8    1 1    
     5    6    5 ar   
     6    7    5 ar   
     7    8    5 1    
     8   12    5 1    
     9   10    9 ar   
    10   11    9 ar   
    11   12    9 1    
    12   13    9 1    
    13   14   13 1    
    14   15   14 1    
    15   32   14 1    
    16   33   14 1    
    17   16   15 1    
    18   17   15 1    
    19   34   15 1    
    20   21   16 1    
    21   18   17 1    
    22   19   17 1    
    23   35   17 1    
    24   42   18 1    
    25   20   19 1    
    26   21   19 1    
    27   36   19 1    
    28   43   20 1    
    29   22   21 1    
    30   37   21 1    
    31   23   22 1    
    32   31   22 1    
    33   24   23 2    
    34   38   23 1    
    35   25   24 1    
    36   26   25 ar   
    37   31   25 ar   
    38   27   26 1    
    39   28   26 ar   
    40   39   27 1    
    41   40   27 1    
    42   29   28 ar   
    43   30   29 ar   
    44   41   29 1    
    45   31   30 ar   
@<TRIPOS>SUBSTRUCTURE
     1 ANP502      1 GROUP   
@<TRIPOS>SET

