#    Name: 4i6f_1C7_1_INTS_M
#    Modification time : Tue Mar 25 02:30:22 2014

@<TRIPOS>MOLECULE
4i6f_1C7_1_INTS_M
   61     0     6     0     0
SMALL
NO_CHARGES


@<TRIPOS>ATOM
      1 CA         10.0055    3.8380    8.1730 C.3       2 GLC5        0.0000 
      2 CA         11.2150    2.6500    9.6480 C.3       6 GLL5        0.0000 
      3 CA          8.7960    5.0260    6.6980 C.3       4 GLP5        0.0000 
      4 CA         11.8830    1.0090    9.5445 C.3       2 GLC5        0.0000 
      5 CA         12.5510   -0.6320    9.4410 C.3       4 GLP5        0.0000 
      6 CA         11.7885    2.1190    7.9540 C.3       2 GLC5        0.0000 
      7 CA         12.3620    1.5880    6.2600 C.3       4 GLP5        0.0000 
      8 CA         12.0165    5.6145   12.1000 C.3       2 GLC5        0.0000 
      9 CA         12.5090    6.1030   10.4600 C.3       6 GLL5        0.0000 
     10 CA         11.5240    5.1260   13.7400 C.3       4 GLP5        0.0000 
     11 CA         15.0945    6.2150    8.6185 C.3       2 GLC5        0.0000 
     12 CA         13.2240    6.5940    9.2310 C.3       6 GLL5        0.0000 
     13 CA         16.9650    5.8360    8.0060 C.3       4 GLP5        0.0000 
     14 CA         10.5955    5.7305    7.3465 C.3       2 GLC5        0.0000 
     15 CA         12.3950    6.4350    7.9950 C.3       6 GLL5        0.0000 
     16 CA         14.1495    6.6145    6.9630 C.3       2 GLC5        0.0000 
     17 CA         15.9040    6.7940    5.9310 C.3       4 GLP5        0.0000 
     18 CA          9.6635   10.1955    8.9425 C.3       2 GLC5        0.0000 
     19 CA         11.2600    9.3050    9.9300 C.3       6 GLL5        0.0000 
     20 CA          8.0670   11.0860    7.9550 C.3       4 GLP5        0.0000 
     21 CA          7.8880    7.4385    8.5220 C.3       2 GLC5        0.0000 
     22 CA          7.7740    6.0440   10.1960 C.3       6 GLL5        0.0000 
     23 CA          8.0020    8.8330    6.8480 C.3       4 GLP5        0.0000 
     24 CA          8.2850    5.5350    8.4470 C.3       2 GLC5        0.0000 
     25 CA          7.1375    4.2185   11.2135 C.3       2 GLC5        0.0000 
     26 CA          6.5010    2.3930   12.2310 C.3       4 GLP5        0.0000 
     27 N           6.7025    3.7420    9.9275 N.am      1 SEC2        0.0000 
     28 N           7.7530    4.7810    9.9050 N.am      5 SEL2        0.0000 
     29 N           5.6520    2.7030    9.9500 N.am      3 SEP2        0.0000 
     30 CA          7.3860    3.1805    8.7090 C.3       2 GLC5        0.0000 
     31 CA          8.8500    4.1090    9.8150 C.3       6 GLL5        0.0000 
     32 CA          5.9220    2.2520    7.6030 C.3       4 GLP5        0.0000 
     33 CA          7.6755    3.2510   11.0230 C.3       2 GLC5        0.0000 
     34 CA          5.4435    4.4615   10.4750 C.3       2 GLC5        0.0000 
     35 CA          5.6370    6.4390    9.6030 C.3       6 GLL5        0.0000 
     36 CA          5.2500    2.4840   11.3470 C.3       4 GLP5        0.0000 
     37 CA          8.7495    9.3455   16.0220 C.3       2 GLC5        0.0000 
     38 CA          9.1800    9.1500   14.0090 C.3       6 GLL5        0.0000 
     39 CA          8.3190    9.5410   18.0350 C.3       4 GLP5        0.0000 
     40 CA         13.0617    8.3072    8.0840 C.3       2 GLC5        0.0000 
     41 CA         13.3140   10.1000    7.5550 C.3       4 GLP5        0.0000 
     42 CA         13.5708    4.7523    7.7835 C.3       2 GLC5        0.0000 
     43 CA         14.3320    2.9900    6.9540 C.3       4 GLP5        0.0000 
     44 CA         11.6977    6.7268   12.5390 C.3       2 GLC5        0.0000 
     45 CA         11.2770    8.1880   10.9180 C.3       6 GLL5        0.0000 
     46 CA          9.1174    4.8955    8.3509 C.3       2 GLC5        0.0000 
     47 CA         10.0360    6.1210   10.3550 C.3       6 GLL5        0.0000 
     48 CA          5.5113    8.4748    8.6292 C.3       2 GLC5        0.0000 
     49 CA          5.8380   10.0550    7.4680 C.3       4 GLP5        0.0000 
     50 CA          3.6877    5.8483   10.7203 C.3       2 GLC5        0.0000 
     51 CA          4.7320    7.3500    9.9780 C.3       6 GLL5        0.0000 
     52 CA          2.1910    4.8020   11.6500 C.3       4 GLP5        0.0000 
     53 CA          6.3785    8.8285   13.7628 C.3       2 GLC5        0.0000 
     54 CA          7.5090    8.2660   12.0490 C.3       6 GLL5        0.0000 
     55 CA          5.2020    8.7310   15.3540 C.3       4 GLP5        0.0000 
     56 CA          7.0060    9.1540   14.4957 C.3       2 GLC5        0.0000 
     57 CA          8.4400   10.0040   13.2660 C.3       6 GLL5        0.0000 
     58 CA          7.2502    6.9830   14.4757 C.3       2 GLC5        0.0000 
     59 CA          9.0710    7.8350   13.7950 C.3       6 GLL5        0.0000 
     60 CA          5.8580    6.3430   15.6420 C.3       4 GLP5        0.0000 
     61 CA         12.5064    9.7914    9.2109 C.3       2 GLC5        0.0000 
@<TRIPOS>BOND
@<TRIPOS>SUBSTRUCTURE
     1 SEC2       27 GROUP        1 X    SEC  0     ROOT SEC X 2
     2 GLC5        1 GROUP        1 X    GLC  0     **** GLC X 6
     3 SEP2       29 GROUP        1 Y    SEP  0     ROOT SEP Y 9
     4 GLP5        3 GROUP        1 Y    GLP  0     **** GLP Y 13
     5 SEL2       28 GROUP        1 Z    SEL  0     ROOT SEL Z 16
     6 GLL5        2 GROUP        1 Z    GLL  0     **** GLL Z 20
@<TRIPOS>SET

