#    Name: 4i6f_1C7_1_ligand
#    Modification time : Tue Mar 25 02:30:22 2014

@<TRIPOS>MOLECULE
4i6f_1C7_1_ligand
   56    60     1     0     0
SMALL
NO_CHARGES


@<TRIPOS>ATOM
      1 O18        13.4420    4.0860   10.0700 O.2       1 1C7401      0.0000 
      2 C8         12.4030    4.6960   10.1670 C.2       1 1C7401      0.0000 
      3 N7         11.2110    4.0420    9.9600 N.am      1 1C7401      0.0000 
      4 C19        11.2150    2.6500    9.6480 C.3       1 1C7401      0.0000 
      5 C2         10.0190    4.7210   10.0300 C.ar      1 1C7401      0.0000 
      6 C9         12.5090    6.1030   10.4600 C.3       1 1C7401      0.0000 
      7 C16        13.2240    6.5940    9.2310 C.3       1 1C7401      0.0000 
      8 C17        12.3950    6.4350    7.9950 C.3       1 1C7401      0.0000 
      9 N10        11.2470    6.7930   10.5560 N.3       1 1C7401      0.0000 
     10 C11        11.2770    8.1880   10.9180 C.3       1 1C7401      0.0000 
     11 C15        12.4660    8.4670   11.7580 C.3       1 1C7401      0.0000 
     12 C14        12.5280    9.9540   11.8780 C.3       1 1C7401      0.0000 
     13 C13        11.7300   10.4840   10.7410 C.3       1 1C7401      0.0000 
     14 C12        11.2600    9.3050    9.9300 C.3       1 1C7401      0.0000 
     15 C3         10.0360    6.1210   10.3550 C.ar      1 1C7401      0.0000 
     16 N4          8.8680    6.7160   10.4280 N.ar      1 1C7401      0.0000 
     17 C5          7.7740    6.0440   10.1960 C.ar      1 1C7401      0.0000 
     18 N6          7.7530    4.7810    9.9050 N.ar      1 1C7401      0.0000 
     19 C1          8.8500    4.1090    9.8150 C.ar      1 1C7401      0.0000 
     20 N20         6.6730    6.7050   10.2870 N.pl3     1 1C7401      0.0000 
     21 C24         5.6370    6.4390    9.6030 C.2       1 1C7401      0.0000 
     22 C23         4.7320    7.3500    9.9780 C.2       1 1C7401      0.0000 
     23 N22         5.3190    8.0710   10.8890 N.2       1 1C7401      0.0000 
     24 C21         6.5710    7.7050   11.0600 C.2       1 1C7401      0.0000 
     25 C25         7.5090    8.2660   12.0490 C.ar      1 1C7401      0.0000 
     26 C30         7.6010    9.5860   12.2940 C.ar      1 1C7401      0.0000 
     27 C29         8.4400   10.0040   13.2660 C.ar      1 1C7401      0.0000 
     28 C28         9.1800    9.1500   14.0090 C.ar      1 1C7401      0.0000 
     29 C27         9.0710    7.8350   13.7950 C.ar      1 1C7401      0.0000 
     30 C26         8.2140    7.4110   12.8240 C.ar      1 1C7401      0.0000 
     31 H          13.1450    6.2738   11.2874 H         1 1C7401      0.0000 
     32 H          14.1665    6.0382    9.1147 H         1 1C7401      0.0000 
     33 H          13.4848    7.6547    9.3640 H         1 1C7401      0.0000 
     34 H          10.4072    8.3983   11.6350 H         1 1C7401      0.0000 
     35 H          13.3566    8.1014   11.2779 H         1 1C7401      0.0000 
     36 H          12.3469    8.0262   12.7321 H         1 1C7401      0.0000 
     37 H          13.5492   10.2858   11.8015 H         1 1C7401      0.0000 
     38 H          12.0943   10.2649   12.8129 H         1 1C7401      0.0000 
     39 H          12.3418   11.1263   10.1216 H         1 1C7401      0.0000 
     40 H          10.8732   11.0327   11.1088 H         1 1C7401      0.0000 
     41 H          10.2696    9.4781    9.5813 H         1 1C7401      0.0000 
     42 H          11.9466    9.1132    9.1399 H         1 1C7401      0.0000 
     43 H           8.8481    3.0850    9.5752 H         1 1C7401      0.0000 
     44 H           5.4914    5.7465    8.9496 H         1 1C7401      0.0000 
     45 H           3.8404    7.4356    9.6331 H         1 1C7401      0.0000 
     46 H           7.0437   10.2655   11.7523 H         1 1C7401      0.0000 
     47 H           8.5226   11.0435   13.4550 H         1 1C7401      0.0000 
     48 H           9.8236    9.5188   14.7359 H         1 1C7401      0.0000 
     49 H           9.6136    7.1522   14.3415 H         1 1C7401      0.0000 
     50 H           8.0987    6.3705   12.6740 H         1 1C7401      0.0000 
     51 H          11.7171    2.4599    8.8043 H         1 1C7401      0.0000 
     52 H          11.6425    2.1084   10.3718 H         1 1C7401      0.0000 
     53 H          10.2886    2.2945    9.5242 H         1 1C7401      0.0000 
     54 H          12.8747    6.7633    7.1813 H         1 1C7401      0.0000 
     55 H          12.1562    5.4783    7.8285 H         1 1C7401      0.0000 
     56 H          11.5370    6.9451    8.0551 H         1 1C7401      0.0000 
@<TRIPOS>BOND
     1    2    1 2    
     2    3    2 am   
     3    6    2 1    
     4    4    3 1    
     5    5    3 1    
     6   51    4 1    
     7   52    4 1    
     8   53    4 1    
     9   15    5 ar   
    10   19    5 ar   
    11    7    6 1    
    12    9    6 1    
    13   31    6 1    
    14    8    7 1    
    15   32    7 1    
    16   33    7 1    
    17   54    8 1    
    18   55    8 1    
    19   56    8 1    
    20   10    9 1    
    21   15    9 1    
    22   11   10 1    
    23   14   10 1    
    24   34   10 1    
    25   12   11 1    
    26   35   11 1    
    27   36   11 1    
    28   13   12 1    
    29   37   12 1    
    30   38   12 1    
    31   14   13 1    
    32   39   13 1    
    33   40   13 1    
    34   41   14 1    
    35   42   14 1    
    36   16   15 ar   
    37   17   16 ar   
    38   18   17 ar   
    39   20   17 1    
    40   19   18 ar   
    41   43   19 1    
    42   21   20 1    
    43   24   20 1    
    44   22   21 2    
    45   44   21 1    
    46   23   22 1    
    47   45   22 1    
    48   24   23 2    
    49   25   24 1    
    50   26   25 ar   
    51   30   25 ar   
    52   27   26 ar   
    53   46   26 1    
    54   28   27 ar   
    55   47   27 1    
    56   29   28 ar   
    57   48   28 1    
    58   30   29 ar   
    59   49   29 1    
    60   50   30 1    
@<TRIPOS>SUBSTRUCTURE
     1 1C7401      1 GROUP   
@<TRIPOS>SET

