#    Name: 2h2e_SA8_1_INTS_M
#    Modification time : Tue Mar 25 15:25:40 2014

@<TRIPOS>MOLECULE
2h2e_SA8_1_INTS_M
   38     0     9     0     0
SMALL
NO_CHARGES


@<TRIPOS>ATOM
      1 O          71.6110  136.7425   50.1030 O.2       1 ALC1        0.0000 
      2 O          70.9100  136.2930   50.9190 O.2       7 ALL1        0.0000 
      3 O          72.3120  137.1920   49.2870 O.2       4 ALP1        0.0000 
      4 O          70.8630  137.3415   51.7215 O.2       1 ALC1        0.0000 
      5 O          70.8160  138.3900   52.5240 O.2       4 ALP1        0.0000 
      6 CA         70.1885  135.8775   49.0805 C.3       3 GLC5        0.0000 
      7 CA         70.4820  134.9160   51.0490 C.3       9 GLL5        0.0000 
      8 CA         69.8950  136.8390   47.1120 C.3       6 GLP5        0.0000 
      9 N          67.7590  134.1770   50.5395 N.am      2 SEC2        0.0000 
     10 N          68.6980  134.9550   49.4230 N.am      8 SEL2        0.0000 
     11 N          66.8200  133.3990   51.6560 N.am      5 SEP2        0.0000 
     12 N          71.1480  134.5275   48.2095 N.am      2 SEC2        0.0000 
     13 N          70.3700  133.5830   49.0760 N.am      8 SEL2        0.0000 
     14 N          71.9260  135.4720   47.3430 N.am      5 SEP2        0.0000 
     15 CA         71.5085  135.3760   56.9010 C.3       3 GLC5        0.0000 
     16 CA         70.1220  134.7460   56.0670 C.3       9 GLL5        0.0000 
     17 CA         72.8950  136.0060   57.7350 C.3       6 GLP5        0.0000 
     18 CA         69.4480  135.3710   57.6980 C.3       3 GLC5        0.0000 
     19 CA         68.7740  135.9960   59.3290 C.3       6 GLP5        0.0000 
     20 N          76.1200  135.7035   55.7085 N.am      2 SEC2        0.0000 
     21 N          76.2650  134.2290   55.3160 N.am      8 SEL2        0.0000 
     22 N          75.9750  137.1780   56.1010 N.am      5 SEP2        0.0000 
     23 CA         76.8590  134.6080   56.2745 C.3       3 GLC5        0.0000 
     24 CA         77.0280  133.3600   54.5110 C.3       9 GLL5        0.0000 
     25 CA         76.6900  135.8560   58.0380 C.3       6 GLP5        0.0000 
     26 O          79.0535  135.2060   55.4540 O.2       1 ALC1        0.0000 
     27 O          79.3640  133.7220   55.1200 O.2       7 ALL1        0.0000 
     28 O          78.7430  136.6900   55.7880 O.2       4 ALP1        0.0000 
     29 CA         77.3460  132.8020   51.5165 C.3       3 GLC5        0.0000 
     30 CA         77.9300  131.4920   52.7180 C.3       9 GLL5        0.0000 
     31 CA         76.7620  134.1120   50.3150 C.3       6 GLP5        0.0000 
     32 CA         77.9525  130.2215   54.4420 C.3       3 GLC5        0.0000 
     33 CA         77.9750  128.9510   56.1660 C.3       6 GLP5        0.0000 
     34 CA         69.1623  137.0548   52.5335 C.3       3 GLC5        0.0000 
     35 CA         70.0210  135.1870   53.6130 C.3       9 GLL5        0.0000 
     36 CA         68.5600  139.1310   52.1480 C.3       6 GLP5        0.0000 
     37 CA         76.6860  133.5493   52.2037 C.3       3 GLC5        0.0000 
     38 CA         76.1920  132.6130   53.6740 C.3       9 GLL5        0.0000 
@<TRIPOS>BOND
@<TRIPOS>SUBSTRUCTURE
     1 ALC1        1 GROUP        1 X    ALC  0     ROOT ALC X 1
     2 SEC2        9 GROUP        1 X    SEC  0     **** SEC X 2
     3 GLC5        6 GROUP        1 X    GLC  0     **** GLC X 6
     4 ALP1        3 GROUP        1 Y    ALP  0     ROOT ALP Y 8
     5 SEP2       11 GROUP        1 Y    SEP  0     **** SEP Y 9
     6 GLP5        8 GROUP        1 Y    GLP  0     **** GLP Y 13
     7 ALL1        2 GROUP        1 Z    ALL  0     ROOT ALL Z 15
     8 SEL2       10 GROUP        1 Z    SEL  0     **** SEL Z 16
     9 GLL5        7 GROUP        1 Z    GLL  0     **** GLL Z 20
@<TRIPOS>SET

