#    Name: 2h2e_SA8_1_ligand
#    Modification time : Tue Mar 25 15:25:40 2014

@<TRIPOS>MOLECULE
2h2e_SA8_1_ligand
   50    52     1     0     0
SMALL
NO_CHARGES


@<TRIPOS>ATOM
      1 N          70.9100  136.2930   50.9190 N.4       1 SA8800      0.0000 
      2 CA         70.4820  134.9160   51.0490 C.3       1 SA8800      0.0000 
      3 C          69.7970  134.4490   49.7500 C.2       1 SA8800      0.0000 
      4 O          68.6980  134.9550   49.4230 O.co2     1 SA8800      0.0000 
      5 OXT        70.3700  133.5830   49.0760 O.co2     1 SA8800      0.0000 
      6 CB         69.5080  134.7700   52.2250 C.3       1 SA8800      0.0000 
      7 CG         70.0210  135.1870   53.6130 C.3       1 SA8800      0.0000 
      8 ND         69.6300  134.2240   54.7820 N.3       1 SA8800      0.0000 
      9 CE         70.1220  134.7460   56.0670 C.3       1 SA8800      0.0000 
     10 C5'        70.2120  132.7730   54.6240 C.3       1 SA8800      0.0000 
     11 C4'        71.2950  132.4970   53.6080 C.3       1 SA8800      0.0000 
     12 O4'        72.4840  133.3220   53.7410 O.3       1 SA8800      0.0000 
     13 C3'        71.7310  131.0400   53.6240 C.3       1 SA8800      0.0000 
     14 O3'        71.2460  130.3890   52.4380 O.3       1 SA8800      0.0000 
     15 C2'        73.2450  131.0960   53.7260 C.3       1 SA8800      0.0000 
     16 O2'        73.8520  130.0990   52.8650 O.3       1 SA8800      0.0000 
     17 C1'        73.6020  132.5270   53.3230 C.3       1 SA8800      0.0000 
     18 N9         74.8750  133.0300   53.9640 N.pl3     1 SA8800      0.0000 
     19 C8         75.0470  133.9780   54.9400 C.2       1 SA8800      0.0000 
     20 N7         76.2650  134.2290   55.3160 N.2       1 SA8800      0.0000 
     21 C5         77.0280  133.3600   54.5110 C.ar      1 SA8800      0.0000 
     22 C6         78.4380  133.0900   54.3860 C.ar      1 SA8800      0.0000 
     23 N6         79.3640  133.7220   55.1200 N.pl3     1 SA8800      0.0000 
     24 N1         78.8540  132.1410   53.4700 N.ar      1 SA8800      0.0000 
     25 C2         77.9300  131.4920   52.7180 C.ar      1 SA8800      0.0000 
     26 N3         76.5850  131.6480   52.7350 N.ar      1 SA8800      0.0000 
     27 C4         76.1920  132.6130   53.6740 C.ar      1 SA8800      0.0000 
     28 H          71.3248  134.2651   51.2298 H         1 SA8800      0.0000 
     29 H          69.1730  133.7083   52.2780 H         1 SA8800      0.0000 
     30 H          68.5884  135.3576   51.9986 H         1 SA8800      0.0000 
     31 H          69.6363  136.1919   53.8539 H         1 SA8800      0.0000 
     32 H          71.1207  135.2623   53.5846 H         1 SA8800      0.0000 
     33 H          69.3362  132.0894   54.4265 H         1 SA8800      0.0000 
     34 H          70.5712  132.4522   55.6444 H         1 SA8800      0.0000 
     35 H          70.8608  132.6689   52.5956 H         1 SA8800      0.0000 
     36 H          71.3440  130.6024   54.5234 H         1 SA8800      0.0000 
     37 H          73.5094  130.9644   54.7554 H         1 SA8800      0.0000 
     38 H          73.6955  132.5554   52.2506 H         1 SA8800      0.0000 
     39 H          74.2237  134.4508   55.3356 H         1 SA8800      0.0000 
     40 H          79.3841  134.7186   55.0399 H         1 SA8800      0.0000 
     41 H          79.9520  133.1405   55.6821 H         1 SA8800      0.0000 
     42 H          78.3203  130.7520   52.0114 H         1 SA8800      0.0000 
     43 H          70.3176  136.8092   50.3006 H         1 SA8800      0.0000 
     44 H          70.9017  136.7691   51.7983 H         1 SA8800      0.0000 
     45 H          71.8401  136.3603   50.5580 H         1 SA8800      0.0000 
     46 H          71.1169  134.8467   56.0705 H         1 SA8800      0.0000 
     47 H          69.7357  135.6446   56.2752 H         1 SA8800      0.0000 
     48 H          69.8858  134.1419   56.8281 H         1 SA8800      0.0000 
     49 H          71.9942  129.7936   52.1454 H         1 SA8800      0.0000 
     50 H          74.8013  130.3942   52.7565 H         1 SA8800      0.0000 
@<TRIPOS>BOND
     1    2    1 1    
     2   43    1 1    
     3   44    1 1    
     4   45    1 1    
     5    3    2 1    
     6    6    2 1    
     7   28    2 1    
     8    4    3 ar   
     9    5    3 ar   
    10    7    6 1    
    11   29    6 1    
    12   30    6 1    
    13    8    7 1    
    14   31    7 1    
    15   32    7 1    
    16    9    8 1    
    17   10    8 1    
    18   46    9 1    
    19   47    9 1    
    20   48    9 1    
    21   11   10 1    
    22   33   10 1    
    23   34   10 1    
    24   12   11 1    
    25   13   11 1    
    26   35   11 1    
    27   17   12 1    
    28   14   13 1    
    29   15   13 1    
    30   36   13 1    
    31   49   14 1    
    32   16   15 1    
    33   17   15 1    
    34   37   15 1    
    35   50   16 1    
    36   18   17 1    
    37   38   17 1    
    38   19   18 1    
    39   27   18 1    
    40   20   19 2    
    41   39   19 1    
    42   21   20 1    
    43   22   21 ar   
    44   27   21 ar   
    45   23   22 1    
    46   24   22 ar   
    47   40   23 1    
    48   41   23 1    
    49   25   24 ar   
    50   26   25 ar   
    51   42   25 1    
    52   27   26 ar   
@<TRIPOS>SUBSTRUCTURE
     1 SA8800      1 GROUP   
@<TRIPOS>SET

