#    Name: 2xhr_C0P_1_INTS_M
#    Modification time : Tue Mar 25 06:01:13 2014

@<TRIPOS>MOLECULE
2xhr_C0P_1_INTS_M
   61     0     6     0     0
SMALL
NO_CHARGES


@<TRIPOS>ATOM
      1 O          -5.0545   11.7115   23.9125 O.2       1 ALC1        0.0000 
      2 O          -3.6640   11.5530   23.7810 O.2       5 ALL1        0.0000 
      3 O          -6.4450   11.8700   24.0440 O.2       3 ALP1        0.0000 
      4 CA         -2.0655   10.2485   22.7710 C.3       2 GLC5        0.0000 
      5 CA         -2.6920   11.1430   24.6330 C.3       6 GLL5        0.0000 
      6 CA         -1.4390    9.3540   20.9090 C.3       4 GLP5        0.0000 
      7 CA         -3.7625    9.3985   25.3900 C.3       2 GLC5        0.0000 
      8 CA         -4.8330    7.6540   26.1470 C.3       4 GLP5        0.0000 
      9 CA         -3.0040   12.9180   25.3985 C.3       2 GLC5        0.0000 
     10 CA         -3.3160   14.6930   26.1640 C.3       4 GLP5        0.0000 
     11 CA         -3.3260   12.1235   26.7120 C.3       2 GLC5        0.0000 
     12 CA         -2.0980   10.2750   26.6350 C.3       6 GLL5        0.0000 
     13 CA         -4.5540   13.9720   26.7890 C.3       4 GLP5        0.0000 
     14 CA         -3.4635    8.2080   29.1445 C.3       2 GLC5        0.0000 
     15 CA         -2.5600    9.6230   28.1690 C.3       6 GLL5        0.0000 
     16 CA         -4.3670    6.7930   30.1200 C.3       4 GLP5        0.0000 
     17 CA         -3.5205   10.4285   29.5735 C.3       2 GLC5        0.0000 
     18 CA         -4.4810   11.2340   30.9780 C.3       4 GLP5        0.0000 
     19 CA         -1.1455   10.5550   29.1825 C.3       2 GLC5        0.0000 
     20 CA          0.2690   11.4870   30.1960 C.3       4 GLP5        0.0000 
     21 CA          6.1465    8.5520   28.0090 C.3       2 GLC5        0.0000 
     22 CA          6.3890    6.6820   27.2870 C.3       6 GLL5        0.0000 
     23 CA          5.9040   10.4220   28.7310 C.3       4 GLP5        0.0000 
     24 CA          7.5545    9.0450   27.2090 C.3       2 GLC5        0.0000 
     25 CA          7.6690    7.6950   25.5750 C.3       6 GLL5        0.0000 
     26 CA          7.4400   10.3950   28.8430 C.3       4 GLP5        0.0000 
     27 CA          8.6450    7.4200   26.9500 C.3       2 GLC5        0.0000 
     28 CA          9.6210    7.1450   28.3250 C.3       4 GLP5        0.0000 
     29 CA          9.4590    8.1620   24.9575 C.3       2 GLC5        0.0000 
     30 CA         11.2490    8.6290   24.3400 C.3       4 GLP5        0.0000 
     31 CA          4.6015   11.9185   22.1125 C.3       2 GLC5        0.0000 
     32 CA          5.4010   11.3180   23.5970 C.3       6 GLL5        0.0000 
     33 CA          3.8020   12.5190   20.6280 C.3       4 GLP5        0.0000 
     34 CA          6.8990   11.8475   22.4530 C.3       2 GLC5        0.0000 
     35 CA          8.3970   12.3770   21.3090 C.3       4 GLP5        0.0000 
     36 CA          2.7905   14.2565   24.8390 C.3       2 GLC5        0.0000 
     37 CA          0.7360   13.7560   24.6570 C.3       6 GLL5        0.0000 
     38 CA          4.8450   14.7570   25.0210 C.3       4 GLP5        0.0000 
     39 CA          1.5635   14.1220   23.0010 C.3       2 GLC5        0.0000 
     40 CA          2.3910   14.4880   21.3450 C.3       4 GLP5        0.0000 
     41 CA          0.2075   15.3705   25.5960 C.3       2 GLC5        0.0000 
     42 CA         -0.3210   16.9850   26.5350 C.3       4 GLP5        0.0000 
     43 CA         -1.2900   14.2245   25.4105 C.3       2 GLC5        0.0000 
     44 CA         -0.7550   14.8680   23.5425 C.3       2 GLC5        0.0000 
     45 CA         -2.2460   15.9800   22.4280 C.3       4 GLP5        0.0000 
     46 CA         -3.5810    8.8015   26.7745 C.3       2 GLC5        0.0000 
     47 CA         -0.7427   11.8468   27.3202 C.3       2 GLC5        0.0000 
     48 CA         -0.0500   13.3790   28.1680 C.3       4 GLP5        0.0000 
     49 CA          0.1082   12.1630   26.5192 C.3       2 GLC5        0.0000 
     50 CA         -0.4440   10.8730   25.0800 C.3       6 GLL5        0.0000 
     51 CA          3.6033   11.5390   22.3630 C.3       2 GLC5        0.0000 
     52 CA          3.0980    9.9290   24.1900 C.3       6 GLL5        0.0000 
     53 CA          7.2030    6.5245   28.0222 C.3       2 GLC5        0.0000 
     54 CA          5.1550    6.6200   26.3980 C.3       6 GLL5        0.0000 
     55 CA          8.6340    6.3980   29.2020 C.3       4 GLP5        0.0000 
     56 CA          4.7005   13.0053   24.4113 C.3       2 GLC5        0.0000 
     57 CA          3.5700   13.5348   24.6710 C.3       2 GLC5        0.0000 
     58 CA          2.9700   12.3490   24.1530 C.3       6 GLL5        0.0000 
     59 CA          3.0485   12.4158   22.4745 C.3       2 GLC5        0.0000 
     60 CA          0.5640   13.1975   26.3705 C.3       2 GLC5        0.0000 
     61 CA          1.6200   12.2760   24.4890 C.3       6 GLL5        0.0000 
@<TRIPOS>BOND
@<TRIPOS>SUBSTRUCTURE
     1 ALC1        1 GROUP        1 X    ALC  0     ROOT ALC X 1
     2 GLC5        4 GROUP        1 X    GLC  0     **** GLC X 6
     3 ALP1        3 GROUP        1 Y    ALP  0     ROOT ALP Y 8
     4 GLP5        6 GROUP        1 Y    GLP  0     **** GLP Y 13
     5 ALL1        2 GROUP        1 Z    ALL  0     ROOT ALL Z 15
     6 GLL5        5 GROUP        1 Z    GLL  0     **** GLL Z 20
@<TRIPOS>SET

