#    Name: 2xhr_C0P_1_ligand
#    Modification time : Tue Mar 25 06:01:14 2014

@<TRIPOS>MOLECULE
2xhr_C0P_1_ligand
   43    45     1     0     0
SMALL
NO_CHARGES


@<TRIPOS>ATOM
      1 N1         -3.6640   11.5530   23.7810 N.pl3     1 C0P1001     0.0000 
      2 C2         -2.6920   11.1430   24.6330 C.ar      1 C0P1001     0.0000 
      3 N3         -3.0860   10.6510   25.8230 N.ar      1 C0P1001     0.0000 
      4 C4         -2.0980   10.2750   26.6350 C.ar      1 C0P1001     0.0000 
      5 CL5        -2.5600    9.6230   28.1690 Cl        1 C0P1001     0.0000 
      6 C6         -0.7730   10.3540   26.3100 C.ar      1 C0P1001     0.0000 
      7 C7         -0.4440   10.8730   25.0800 C.ar      1 C0P1001     0.0000 
      8 N8         -1.3960   11.2830   24.2290 N.ar      1 C0P1001     0.0000 
      9 C9          0.9770   11.0210   24.6610 C.ar      1 C0P1001     0.0000 
     10 C10         1.7510    9.8610   24.5460 C.ar      1 C0P1001     0.0000 
     11 C11         3.0980    9.9290   24.1900 C.ar      1 C0P1001     0.0000 
     12 O12         3.9040    8.8360   24.0350 O.3       1 C0P1001     0.0000 
     13 C13         3.3430    7.5430   24.3540 C.3       1 C0P1001     0.0000 
     14 C14         4.3800    6.5010   24.0370 C.3       1 C0P1001     0.0000 
     15 N15         5.5680    6.5550   24.9600 N.4       1 C0P1001     0.0000 
     16 C17         5.1550    6.6200   26.3980 C.3       1 C0P1001     0.0000 
     17 C18         6.3890    6.6820   27.2870 C.3       1 C0P1001     0.0000 
     18 O19         7.2430    7.7920   26.9430 O.3       1 C0P1001     0.0000 
     19 C20         7.6690    7.6950   25.5750 C.3       1 C0P1001     0.0000 
     20 C21         6.4840    7.6960   24.6240 C.3       1 C0P1001     0.0000 
     21 C22         3.7110   11.1890   24.0060 C.ar      1 C0P1001     0.0000 
     22 CL23        5.4010   11.3180   23.5970 Cl        1 C0P1001     0.0000 
     23 C24         2.9700   12.3490   24.1530 C.ar      1 C0P1001     0.0000 
     24 C25         1.6200   12.2760   24.4890 C.ar      1 C0P1001     0.0000 
     25 CL26        0.7360   13.7560   24.6570 Cl        1 C0P1001     0.0000 
     26 H          -4.6051   11.4375   24.0988 H         1 C0P1001     0.0000 
     27 H          -3.3537   11.9345   22.9103 H         1 C0P1001     0.0000 
     28 H          -0.0490   10.0394   26.9558 H         1 C0P1001     0.0000 
     29 H           1.3167    8.9415   24.7278 H         1 C0P1001     0.0000 
     30 H           2.4523    7.3433   23.7611 H         1 C0P1001     0.0000 
     31 H           3.0880    7.4743   25.4099 H         1 C0P1001     0.0000 
     32 H           4.7228    6.6341   22.9971 H         1 C0P1001     0.0000 
     33 H           3.9198    5.5004   24.0970 H         1 C0P1001     0.0000 
     34 H           6.1430    5.6177   24.8209 H         1 C0P1001     0.0000 
     35 H           4.5741    5.7372   26.6588 H         1 C0P1001     0.0000 
     36 H           4.5481    7.5069   26.5714 H         1 C0P1001     0.0000 
     37 H           6.9259    5.7226   27.1895 H         1 C0P1001     0.0000 
     38 H           6.0491    6.7521   28.3347 H         1 C0P1001     0.0000 
     39 H           8.2437    6.7702   25.3999 H         1 C0P1001     0.0000 
     40 H           8.3254    8.5375   25.3000 H         1 C0P1001     0.0000 
     41 H           5.9508    8.6389   24.7192 H         1 C0P1001     0.0000 
     42 H           6.8452    7.5923   23.6036 H         1 C0P1001     0.0000 
     43 H           3.4129   13.2676   24.0149 H         1 C0P1001     0.0000 
@<TRIPOS>BOND
     1    2    1 1    
     2   26    1 1    
     3   27    1 1    
     4    3    2 ar   
     5    8    2 ar   
     6    4    3 ar   
     7    5    4 1    
     8    6    4 ar   
     9    7    6 ar   
    10   28    6 1    
    11    8    7 ar   
    12    9    7 1    
    13   10    9 ar   
    14   24    9 ar   
    15   11   10 ar   
    16   29   10 1    
    17   12   11 1    
    18   21   11 ar   
    19   13   12 1    
    20   14   13 1    
    21   30   13 1    
    22   31   13 1    
    23   15   14 1    
    24   32   14 1    
    25   33   14 1    
    26   16   15 1    
    27   20   15 1    
    28   34   15 1    
    29   17   16 1    
    30   35   16 1    
    31   36   16 1    
    32   18   17 1    
    33   37   17 1    
    34   38   17 1    
    35   19   18 1    
    36   20   19 1    
    37   39   19 1    
    38   40   19 1    
    39   41   20 1    
    40   42   20 1    
    41   22   21 1    
    42   23   21 ar   
    43   24   23 ar   
    44   43   23 1    
    45   25   24 1    
@<TRIPOS>SUBSTRUCTURE
     1 C0P1001     1 GROUP   
@<TRIPOS>SET

