#    Name: 4bvb_AR6_2_INTS_M
#    Modification time : Tue Mar 25 08:28:42 2014

@<TRIPOS>MOLECULE
4bvb_AR6_2_INTS_M
   97     0    12     0     0
SMALL
NO_CHARGES


@<TRIPOS>ATOM
      1 N           0.5820  -13.9180  -11.5535 N.am      2 SEC2        0.0000 
      2 N           0.8470  -12.8580  -10.6750 N.am     10 SEL2        0.0000 
      3 N           0.3170  -14.9780  -12.4320 N.am      6 SEP2        0.0000 
      4 CA          3.7275  -12.6045  -12.4110 C.3       4 GLC5        0.0000 
      5 CA          1.9910  -12.4410  -11.2960 C.3      12 GLL5        0.0000 
      6 CA          5.4640  -12.7680  -13.5260 C.3       8 GLP5        0.0000 
      7 CA          2.6340  -11.0270  -12.4410 C.3       4 GLC5        0.0000 
      8 CA          3.2770   -9.6130  -13.5860 C.3       8 GLP5        0.0000 
      9 CA          0.4380  -12.8780  -12.3940 C.3       4 GLC5        0.0000 
     10 CA         -1.1150  -13.3150  -13.4920 C.3       8 GLP5        0.0000 
     11 CA          2.0600  -14.3230  -11.2255 C.3       4 GLC5        0.0000 
     12 CA          2.1290  -16.2050  -11.1550 C.3       8 GLP5        0.0000 
     13 N           3.4570  -11.2975  -11.9080 N.am      2 SEC2        0.0000 
     14 N           2.9300  -11.7570  -10.6360 N.am     10 SEL2        0.0000 
     15 N           3.9840  -10.8380  -13.1800 N.am      6 SEP2        0.0000 
     16 CA          2.8290  -10.0965  -10.8480 C.3       4 GLC5        0.0000 
     17 CA          2.7470  -11.4270   -9.3420 C.3      12 GLL5        0.0000 
     18 CA          2.9110   -8.7660  -12.3540 C.3       8 GLP5        0.0000 
     19 CA         -0.2760  -12.9400  -11.4535 C.3       4 GLC5        0.0000 
     20 CA          0.5630  -12.5650   -9.4150 C.3      12 GLL5        0.0000 
     21 CA          0.9395  -14.5105   -9.6360 C.3       4 GLC5        0.0000 
     22 CA          1.3160  -16.4560   -9.8570 C.3       8 GLP5        0.0000 
     23 O          -0.1870  -13.1075   -7.2445 O.2       1 ALC1        0.0000 
     24 O          -0.5900  -12.9850   -8.8400 O.2       9 ALL1        0.0000 
     25 O           0.2160  -13.2300   -5.6490 O.2       5 ALP1        0.0000 
     26 O          -1.7385  -13.5305   -9.9140 O.2       1 ALC1        0.0000 
     27 O          -2.8870  -14.0760  -10.9880 O.2       5 ALP1        0.0000 
     28 N           0.9005  -12.2645   -6.5170 N.am      2 SEC2        0.0000 
     29 N           1.5850  -11.2990   -7.3850 N.am     10 SEL2        0.0000 
     30 N           0.2160  -13.2300   -5.6490 N.am      6 SEP2        0.0000 
     31 CA          4.5310  -11.8160   -7.3945 C.3       4 GLC5        0.0000 
     32 CA          4.7550  -10.1710   -8.6990 C.3      12 GLL5        0.0000 
     33 CA          4.3070  -13.4610   -6.0900 C.3       8 GLP5        0.0000 
     34 CA          5.6885  -12.2115   -8.8025 C.3       4 GLC5        0.0000 
     35 CA          6.6220  -14.2520   -8.9060 C.3       8 GLP5        0.0000 
     36 N           6.3105   -8.2170   -2.4000 N.am      2 SEC2        0.0000 
     37 N           7.0390   -8.3030   -3.5950 N.am     10 SEL2        0.0000 
     38 N           5.5820   -8.1310   -1.2050 N.am      6 SEP2        0.0000 
     39 N           6.4275   -6.9910   -3.0645 N.am      2 SEC2        0.0000 
     40 N           5.8160   -5.6790   -2.5340 N.am      6 SEP2        0.0000 
     41 N           8.7040  -13.1580   -3.3820 N.am      2 SEC2        0.0000 
     42 N           9.7760  -12.3630   -3.1310 N.am     10 SEL2        0.0000 
     43 N           7.6320  -13.9530   -3.6330 N.am      6 SEP2        0.0000 
     44 CA         12.1625   -8.3305    2.3375 C.3       4 GLC5        0.0000 
     45 CA         12.3240   -9.0850    0.9300 C.3      12 GLL5        0.0000 
     46 CA         12.0010   -7.5760    3.7450 C.3       8 GLP5        0.0000 
     47 CA         13.6990   -8.4070   -0.6510 C.3       4 GLC5        0.0000 
     48 CA         15.0740   -7.7290   -2.2320 C.3       8 GLP5        0.0000 
     49 NZ         10.3175   -7.4095   -3.2555 N.4       3 LYC4        0.0000 
     50 NZ          9.5760   -7.8920   -4.2570 N.4      11 LYL4        0.0000 
     51 NZ         11.5040   -5.6590   -2.1610 N.4       7 LYP4        0.0000 
     52 N          10.3175   -7.4095   -3.2555 N.am      2 SEC2        0.0000 
     53 N           9.5760   -7.8920   -4.2570 N.am     10 SEL2        0.0000 
     54 N          11.0590   -6.9270   -2.2540 N.am      6 SEP2        0.0000 
     55 N          10.4320   -7.7795   -5.2850 N.am      2 SEC2        0.0000 
     56 N          11.2880   -7.6670   -6.3130 N.am      6 SEP2        0.0000 
     57 N          11.2905  -11.5235   -5.9890 N.am      2 SEC2        0.0000 
     58 N          10.6370  -10.8270   -5.0780 N.am     10 SEL2        0.0000 
     59 N          11.9440  -12.2200   -6.9000 N.am      6 SEP2        0.0000 
     60 N          10.4225  -10.3540   -6.4900 N.am      2 SEC2        0.0000 
     61 N          10.2080   -9.8810   -7.9020 N.am      6 SEP2        0.0000 
     62 CA         12.4220   -9.6035    2.7960 C.3       4 GLC5        0.0000 
     63 CA         12.1530  -10.5050    1.3960 C.3      12 GLL5        0.0000 
     64 CA         12.6910   -8.7020    4.1960 C.3       8 GLP5        0.0000 
     65 CA          8.3860   -8.0690   -7.7500 C.3       4 GLC5        0.0000 
     66 CA          6.3710   -8.6300   -8.0390 C.3      12 GLL5        0.0000 
     67 CA         10.4010   -7.5080   -7.4610 C.3       8 GLP5        0.0000 
     68 N           7.2350   -9.3625  -10.5940 N.am      2 SEC2        0.0000 
     69 N           7.0350   -8.5360   -9.3060 N.am     10 SEL2        0.0000 
     70 N           7.4350  -10.1890  -11.8820 N.am      6 SEP2        0.0000 
     71 N          13.1390  -13.3095    0.6295 N.am      2 SEC2        0.0000 
     72 N          12.0760  -12.6340    0.0840 N.am     10 SEL2        0.0000 
     73 N          14.2020  -13.9850    1.1750 N.am      6 SEP2        0.0000 
     74 CA          6.6655  -12.1420   -8.2020 C.3       4 GLC5        0.0000 
     75 CA          6.7090  -10.0320   -7.4980 C.3      12 GLL5        0.0000 
     76 CA          8.6870   -9.3225   -7.9915 C.3       4 GLC5        0.0000 
     77 CA         10.6650   -8.6130   -8.4850 C.3       8 GLP5        0.0000 
     78 CA         13.7145   -9.0915   -1.6075 C.3       4 GLC5        0.0000 
     79 CA         12.3550  -10.4540   -0.9830 C.3      12 GLL5        0.0000 
     80 N          11.7880   -8.0340   -1.3690 N.am      2 SEC2        0.0000 
     81 N          12.5170   -9.1410   -0.4840 N.am     10 SEL2        0.0000 
     82 CA          5.4675   -9.9365   -4.4950 C.3       4 GLC5        0.0000 
     83 CA          6.8220   -9.9880   -5.9600 C.3      12 GLL5        0.0000 
     84 CA          4.1130   -9.8850   -3.0300 C.3       8 GLP5        0.0000 
     85 N           9.0565   -9.4840   -6.8090 N.am      2 SEC2        0.0000 
     86 N           7.9050   -9.0870   -5.7160 N.am     10 SEL2        0.0000 
     87 CA          9.6410   -9.8040   -0.7025 C.3       4 GLC5        0.0000 
     88 CA         11.0420  -10.2040   -1.6930 C.3      12 GLL5        0.0000 
     89 CA          8.2400   -9.4040    0.2880 C.3       8 GLP5        0.0000 
     90 CA          3.2210  -12.5360   -7.5450 C.3       4 GLC5        0.0000 
     91 CA          3.8635   -9.1022  -10.4302 C.3       4 GLC5        0.0000 
     92 CA          5.5363  -11.7355   -6.4095 C.3       4 GLC5        0.0000 
     93 CA          8.2317  -11.1450   -7.2970 C.3       4 GLC5        0.0000 
     94 CA          9.6980  -12.2800   -7.8650 C.3       8 GLP5        0.0000 
     95 CA         10.3896  -10.3431    0.8137 C.3       4 GLC5        0.0000 
     96 CA         11.7250  -11.2330    0.1430 C.3      12 GLL5        0.0000 
     97 CA          8.6400  -10.3670    1.2560 C.3       8 GLP5        0.0000 
@<TRIPOS>BOND
@<TRIPOS>SUBSTRUCTURE
     1 ALC1       23 GROUP        1 X    ALC  0     ROOT ALC X 1
     2 SEC2        1 GROUP        1 X    SEC  0     **** SEC X 2
     3 LYC4       49 GROUP        1 X    LYC  0     **** LYC X 4
     4 GLC5        4 GROUP        1 X    GLC  0     **** GLC X 6
     5 ALP1       25 GROUP        1 Y    ALP  0     ROOT ALP Y 8
     6 SEP2        3 GROUP        1 Y    SEP  0     **** SEP Y 9
     7 LYP4       51 GROUP        1 Y    LYP  0     **** LYP Y 11
     8 GLP5        6 GROUP        1 Y    GLP  0     **** GLP Y 13
     9 ALL1       24 GROUP        1 Z    ALL  0     ROOT ALL Z 15
    10 SEL2        2 GROUP        1 Z    SEL  0     **** SEL Z 16
    11 LYL4       50 GROUP        1 Z    LYL  0     **** LYL Z 18
    12 GLL5        5 GROUP        1 Z    GLL  0     **** GLL Z 20
@<TRIPOS>SET

