#    Name: 4bvb_AR6_2_ligand
#    Modification time : Tue Mar 25 08:28:42 2014

@<TRIPOS>MOLECULE
4bvb_AR6_2_ligand
   57    60     1     0     0
SMALL
NO_CHARGES


@<TRIPOS>ATOM
      1 N1          0.8470  -12.8580  -10.6750 N.ar      1 AR61396     0.0000 
      2 C2          1.9910  -12.4410  -11.2960 C.ar      1 AR61396     0.0000 
      3 N3          2.9300  -11.7570  -10.6360 N.ar      1 AR61396     0.0000 
      4 C4          2.7470  -11.4270   -9.3420 C.ar      1 AR61396     0.0000 
      5 C5          1.5230  -11.7950   -8.6580 C.ar      1 AR61396     0.0000 
      6 C6          0.5630  -12.5650   -9.4150 C.ar      1 AR61396     0.0000 
      7 N6         -0.5900  -12.9850   -8.8400 N.pl3     1 AR61396     0.0000 
      8 N7          1.5850  -11.2990   -7.3850 N.2       1 AR61396     0.0000 
      9 C8          2.7800  -10.6640   -7.2880 C.2       1 AR61396     0.0000 
     10 N9          3.4390  -10.6980   -8.4490 N.pl3     1 AR61396     0.0000 
     11 PA          8.3190   -8.7440   -4.2460 P.3       1 AR61396     0.0000 
     12 PB         10.0820  -10.9990   -3.6960 P.3       1 AR61396     0.0000 
     13 C1'         4.7550  -10.1710   -8.6990 C.3       1 AR61396     0.0000 
     14 O1A         7.0390   -8.3030   -3.5950 O.co2     1 AR61396     0.0000 
     15 O1B         9.7760  -12.3630   -3.1310 O.co2     1 AR61396     0.0000 
     16 C1D        12.3240   -9.0850    0.9300 C.3       1 AR61396     0.0000 
     17 O1D        13.6280   -8.7230    1.4570 O.3       1 AR61396     0.0000 
     18 C2'         4.8770   -8.7060   -8.3140 C.3       1 AR61396     0.0000 
     19 O2'         4.4660   -8.0150   -9.5210 O.3       1 AR61396     0.0000 
     20 O2A         9.5760   -7.8920   -4.2570 O.co2     1 AR61396     0.0000 
     21 O2B        10.6370  -10.8270   -5.0780 O.co2     1 AR61396     0.0000 
     22 C2D        12.1530  -10.5050    1.3960 C.3       1 AR61396     0.0000 
     23 O2D        13.4920  -10.9570    1.7550 O.3       1 AR61396     0.0000 
     24 C3'         6.3710   -8.6300   -8.0390 C.3       1 AR61396     0.0000 
     25 O3'         7.0350   -8.5360   -9.3060 O.3       1 AR61396     0.0000 
     26 O3A         8.7320  -10.1120   -3.5050 O.3       1 AR61396     0.0000 
     27 C3D        11.7250  -11.2330    0.1430 C.3       1 AR61396     0.0000 
     28 O3D        12.0760  -12.6340    0.0840 O.3       1 AR61396     0.0000 
     29 C4'         6.7090  -10.0320   -7.4980 C.3       1 AR61396     0.0000 
     30 O4'         5.6060  -10.8960   -7.8090 O.3       1 AR61396     0.0000 
     31 C4D        12.3550  -10.4540   -0.9830 C.3       1 AR61396     0.0000 
     32 O4D        12.5170   -9.1410   -0.4840 O.3       1 AR61396     0.0000 
     33 C5'         6.8220   -9.9880   -5.9600 C.3       1 AR61396     0.0000 
     34 O5'         7.9050   -9.0870   -5.7160 O.3       1 AR61396     0.0000 
     35 C5D        11.0420  -10.2040   -1.6930 C.3       1 AR61396     0.0000 
     36 O5D        11.3660  -10.4700   -2.9630 O.3       1 AR61396     0.0000 
     37 H           2.1220  -12.6696  -12.3129 H         1 AR61396     0.0000 
     38 H          -1.3752  -13.0855   -9.4509 H         1 AR61396     0.0000 
     39 H          -0.5535  -13.1572   -7.8557 H         1 AR61396     0.0000 
     40 H           3.1080  -10.2374   -6.4637 H         1 AR61396     0.0000 
     41 H           5.0551  -10.3063   -9.6989 H         1 AR61396     0.0000 
     42 H          11.5830   -8.4887    1.2449 H         1 AR61396     0.0000 
     43 H           4.3230   -8.5287   -7.4867 H         1 AR61396     0.0000 
     44 H          11.4673  -10.5754    2.1334 H         1 AR61396     0.0000 
     45 H           6.5972   -7.9199   -7.3647 H         1 AR61396     0.0000 
     46 H          10.6401  -11.0925    0.0434 H         1 AR61396     0.0000 
     47 H           7.6115  -10.3657   -7.9082 H         1 AR61396     0.0000 
     48 H          12.9878  -10.8786   -1.4922 H         1 AR61396     0.0000 
     49 H           7.0297  -10.9821   -5.6167 H         1 AR61396     0.0000 
     50 H           5.8908   -9.6253   -5.5718 H         1 AR61396     0.0000 
     51 H          10.7656   -9.1781   -1.5047 H         1 AR61396     0.0000 
     52 H          10.3129  -10.8744   -1.2649 H         1 AR61396     0.0000 
     53 H          13.9666   -9.5523    1.9016 H         1 AR61396     0.0000 
     54 H           5.2777   -8.0095  -10.1051 H         1 AR61396     0.0000 
     55 H          13.6100  -11.8250    1.2727 H         1 AR61396     0.0000 
     56 H           7.9353   -8.1532   -9.0985 H         1 AR61396     0.0000 
     57 H          11.2104  -13.1224    0.1945 H         1 AR61396     0.0000 
@<TRIPOS>BOND
     1    2    1 ar   
     2    6    1 ar   
     3    3    2 ar   
     4   37    2 1    
     5    4    3 ar   
     6    5    4 ar   
     7   10    4 1    
     8    6    5 ar   
     9    8    5 1    
    10    7    6 1    
    11   38    7 1    
    12   39    7 1    
    13    9    8 2    
    14   10    9 1    
    15   40    9 1    
    16   13   10 1    
    17   14   11 ar   
    18   20   11 ar   
    19   26   11 1    
    20   34   11 1    
    21   15   12 ar   
    22   21   12 ar   
    23   26   12 1    
    24   36   12 1    
    25   18   13 1    
    26   30   13 1    
    27   41   13 1    
    28   17   16 1    
    29   22   16 1    
    30   32   16 1    
    31   42   16 1    
    32   53   17 1    
    33   19   18 1    
    34   24   18 1    
    35   43   18 1    
    36   54   19 1    
    37   23   22 1    
    38   27   22 1    
    39   44   22 1    
    40   55   23 1    
    41   25   24 1    
    42   29   24 1    
    43   45   24 1    
    44   56   25 1    
    45   28   27 1    
    46   31   27 1    
    47   46   27 1    
    48   57   28 1    
    49   30   29 1    
    50   33   29 1    
    51   47   29 1    
    52   32   31 1    
    53   35   31 1    
    54   48   31 1    
    55   34   33 1    
    56   49   33 1    
    57   50   33 1    
    58   36   35 1    
    59   51   35 1    
    60   52   35 1    
@<TRIPOS>SUBSTRUCTURE
     1 AR61396     1 GROUP   
@<TRIPOS>SET

