#    Name: 1EJI_3_CAVITY_N1_6.mol2
#    Modification time : Mon Mar 10 21:03:34 2014

@<TRIPOS>MOLECULE
1EJI_3_CAVITY_N1_6.mol2
   64     0     6     0     0
SMALL
NO_CHARGES


@<TRIPOS>ATOM
      1 CA        107.3454   79.5085   57.0589 C.3       5 GLY6        0.0000 
      2 O         106.5737   75.5284   65.3693 O.2       2 ALA2        0.0000 
      3 N         105.5911   76.5908   64.9746 N.2       2 ALA2        0.0000 
      4 OG        104.6084   77.6531   64.5800 O.2       1 SER1        0.0000 
      5 O         106.4655   73.4377   65.7117 O.2       2 ALA2        0.0000 
      6 CA        105.4829   74.5000   65.3170 C.3       5 GLY6        0.0000 
      7 CA        104.5003   75.5624   64.9223 C.3       5 GLY6        0.0000 
      8 CA        103.5177   76.6248   64.5277 C.3       5 GLY6        0.0000 
      9 OG        105.3916   78.9342   66.0784 O.2       1 SER1        0.0000 
     10 OG        104.4090   79.9966   65.6838 O.2       1 SER1        0.0000 
     11 O         105.2835   76.8435   66.4208 O.2       2 ALA2        0.0000 
     12 CA        104.3008   77.9059   66.0262 C.3       5 GLY6        0.0000 
     13 NZ        106.1150   80.5194   62.8437 N.2       4 LYS4        0.0000 
     14 OG        105.0242   79.4911   62.7914 O.2       1 SER1        0.0000 
     15 OG        104.0416   80.5535   62.3967 O.2       1 SER1        0.0000 
     16 O         110.2020   80.7555   59.0043 O.2       2 ALA2        0.0000 
     17 DU        109.2194   81.8179   58.6097 H         6 CUB7        0.0000 
     18 DU        108.2368   82.8802   58.2150 H         6 CUB7        0.0000 
     19 DU        107.2541   83.9426   57.8203 H         6 CUB7        0.0000 
     20 O         106.2715   85.0050   57.4256 O.2       2 ALA2        0.0000 
     21 CA        109.1112   79.7271   58.9520 C.3       5 GLY6        0.0000 
     22 DU        108.1286   80.7895   58.5574 H         6 CUB7        0.0000 
     23 O         107.1460   81.8519   58.1627 O.2       2 ALA2        0.0000 
     24 OG        106.1633   82.9143   57.7680 O.2       1 SER1        0.0000 
     25 CA        105.3318   79.2384   61.3452 C.3       5 GLY6        0.0000 
     26 OG        104.3492   80.3008   60.9505 O.2       1 SER1        0.0000 
     27 OD1       105.2237   77.1477   61.6875 O.3       3 ASP3        0.0000 
     28 OD1       104.2410   78.2100   61.2929 O.3       3 ASP3        0.0000 
     29 CA        107.0378   79.7612   58.5051 C.3       5 GLY6        0.0000 
     30 O         106.0552   80.8236   58.1104 O.2       2 ALA2        0.0000 
     31 N         109.7264   79.2217   56.0596 N.2       2 ALA2        0.0000 
     32 O         108.7438   80.2840   55.6650 O.2       2 ALA2        0.0000 
     33 NZ        106.8384   82.1047   59.6089 N.2       4 LYS4        0.0000 
     34 CA        106.7302   80.0139   59.9513 C.3       5 GLY6        0.0000 
     35 OG        105.7476   81.0763   59.5566 O.2       1 SER1        0.0000 
     36 OG        105.6394   78.9856   59.8990 O.2       1 SER1        0.0000 
     37 OG        104.6568   80.0480   59.5043 O.2       1 SER1        0.0000 
     38 DU        109.5270   81.5651   57.1635 H         6 CUB7        0.0000 
     39 O         108.5444   82.6275   56.7688 O.2       2 ALA2        0.0000 
     40 O         107.5617   83.6899   56.3741 O.2       2 ALA2        0.0000 
     41 N         109.4188   79.4744   57.5058 N.2       2 ALA2        0.0000 
     42 CA        108.4362   80.5368   57.1112 C.3       5 GLY6        0.0000 
     43 O         107.4536   81.5992   56.7165 O.2       2 ALA2        0.0000 
     44 O         106.4709   82.6616   56.3218 O.2       2 ALA2        0.0000 
     45 CA        109.5868   81.2609   61.8967 C.3       5 GLY6        0.0000 
     46 NZ        108.6042   82.3233   61.5021 N.2       4 LYS4        0.0000 
     47 NZ        107.5134   81.2950   61.4498 N.2       4 LYS4        0.0000 
     48 CA        106.4226   80.2667   61.3975 C.3       5 GLY6        0.0000 
     49 NZ        105.4400   81.3291   61.0028 N.2       4 LYS4        0.0000 
     50 N         106.6819   77.6191   65.0269 N.2       2 ALA2        0.0000 
     51 N         105.6992   78.6815   64.6322 N.2       2 ALA2        0.0000 
     52 OG        104.7166   79.7439   64.2376 O.2       1 SER1        0.0000 
     53 N         106.8813   75.2756   63.9231 N.2       2 ALA2        0.0000 
     54 N         105.8987   76.3380   63.5284 N.2       2 ALA2        0.0000 
     55 OD1       104.9160   77.4004   63.1337 O.3       3 ASP3        0.0000 
     56 OD1       103.9334   78.4628   62.7391 O.3       3 ASP3        0.0000 
     57 NZ        105.7905   74.2473   63.8708 N.2       4 LYS4        0.0000 
     58 OD1       104.8079   75.3097   63.4761 O.3       3 ASP3        0.0000 
     59 CA        109.8944   81.0082   60.4505 C.3       5 GLY6        0.0000 
     60 NZ        108.9118   82.0706   60.0559 N.2       4 LYS4        0.0000 
     61 NZ        107.9291   83.1330   59.6612 N.2       4 LYS4        0.0000 
     62 NZ        106.9465   84.1954   59.2665 N.2       4 LYS4        0.0000 
     63 CA        108.8036   79.9799   60.3982 C.3       5 GLY6        0.0000 
     64 NZ        107.8210   81.0423   60.0036 N.2       4 LYS4        0.0000 
@<TRIPOS>BOND
@<TRIPOS>SUBSTRUCTURE
     1 SER1        4 GROUP   
     2 ALA2        2 GROUP   
     3 ASP3       27 GROUP   
     4 LYS4       13 GROUP   
     5 GLY6        1 GROUP   
     6 CUB7       17 GROUP   
@<TRIPOS>SET

