#    Name: 1eji_PLG_3_INTS_M
#    Modification time : Tue Mar 25 00:01:36 2014

@<TRIPOS>MOLECULE
1eji_PLG_3_INTS_M
   69     0    12     0     0
SMALL
NO_CHARGES


@<TRIPOS>ATOM
      1 CA        107.7620   75.6000   61.8120 C.3       4 GLC5        0.0000 
      2 CA        106.2590   74.3510   62.0000 C.3      12 GLL5        0.0000 
      3 CA        109.2650   76.8490   61.6240 C.3       8 GLP5        0.0000 
      4 CA        108.0885   74.6630   60.7000 C.3       4 GLC5        0.0000 
      5 CA        106.5360   73.3310   60.9380 C.3      12 GLL5        0.0000 
      6 CA        109.6410   75.9950   60.4620 C.3       8 GLP5        0.0000 
      7 CA        107.2245   71.5865   61.7870 C.3       4 GLC5        0.0000 
      8 CA        107.9130   69.8420   62.6360 C.3       8 GLP5        0.0000 
      9 N         103.9810   75.7510   59.4030 N.am      2 SEC2        0.0000 
     10 N         105.0740   75.9880   60.4800 N.am     10 SEL2        0.0000 
     11 N         102.8880   75.5140   58.3260 N.am      6 SEP2        0.0000 
     12 N         103.7590   76.1230   61.2500 N.am      2 SEC2        0.0000 
     13 N         102.4440   76.2580   62.0200 N.am      6 SEP2        0.0000 
     14 O         106.1775   76.2450   59.6490 O.2       1 ALC1        0.0000 
     15 O         105.0740   75.9880   60.4800 O.2       9 ALL1        0.0000 
     16 O         107.2810   76.5020   58.8180 O.2       5 ALP1        0.0000 
     17 CA        105.5460   74.9720   66.4320 C.3       4 GLC5        0.0000 
     18 CA        106.4970   74.9680   64.4100 C.3      12 GLL5        0.0000 
     19 CA        104.5950   74.9760   68.4540 C.3       8 GLP5        0.0000 
     20 CA        104.8705   73.9265   63.4625 C.3       4 GLC5        0.0000 
     21 CA        103.2440   72.8850   62.5150 C.3       8 GLP5        0.0000 
     22 CA        105.1330   76.0425   66.9940 C.3       4 GLC5        0.0000 
     23 CA        105.6710   77.1090   65.5340 C.3      12 GLL5        0.0000 
     24 CA        106.8840   76.7120   67.2505 C.3       4 GLC5        0.0000 
     25 CA        108.0970   76.3150   68.9670 C.3       8 GLP5        0.0000 
     26 N         105.9065   77.6480   68.2080 N.am      2 SEC2        0.0000 
     27 N         105.1320   79.1230   67.7120 N.am     10 SEL2        0.0000 
     28 N         106.6810   76.1730   68.7040 N.am      6 SEP2        0.0000 
     29 N         106.6730   78.7445   67.7130 N.am      2 SEC2        0.0000 
     30 N         108.2140   78.3660   67.7140 N.am      6 SEP2        0.0000 
     31 N         102.5990   79.8735   65.2165 N.am      2 SEC2        0.0000 
     32 N         103.2590   79.7720   66.2990 N.am     10 SEL2        0.0000 
     33 N         101.9390   79.9750   64.1340 N.am      6 SEP2        0.0000 
     34 N         103.8965   81.3085   66.6880 N.am      2 SEC2        0.0000 
     35 N         104.5340   82.8450   67.0770 N.am      6 SEP2        0.0000 
     36 N         102.7200   78.1190   68.8395 N.am      2 SEC2        0.0000 
     37 N         103.2010   77.9280   67.6150 N.am     10 SEL2        0.0000 
     38 N         102.2390   78.3100   70.0640 N.am      6 SEP2        0.0000 
     39 N         103.4740   76.8530   68.4690 N.am      2 SEC2        0.0000 
     40 N         103.7470   75.7780   69.3230 N.am      6 SEP2        0.0000 
     41 N         102.0255   81.0310   59.2970 N.am      2 SEC2        0.0000 
     42 N         103.3480   81.0580   59.3370 N.am     10 SEL2        0.0000 
     43 N         100.7030   81.0040   59.2570 N.am      6 SEP2        0.0000 
     44 N         102.8750   80.9860   57.7090 N.am      2 SEC2        0.0000 
     45 N         102.4020   80.9140   56.0810 N.am      6 SEP2        0.0000 
     46 NZ        104.5355   79.9215   57.2125 N.4       3 LYC4        0.0000 
     47 NZ        104.4550   79.3680   58.7440 N.4      11 LYL4        0.0000 
     48 NZ        103.3600   80.5320   55.2570 N.4       7 LYP4        0.0000 
     49 N         104.5355   79.9215   57.2125 N.am      2 SEC2        0.0000 
     50 N         104.4550   79.3680   58.7440 N.am     10 SEL2        0.0000 
     51 N         104.6160   80.4750   55.6810 N.am      6 SEP2        0.0000 
     52 CA        102.6300   80.3130   62.3935 C.3       4 GLC5        0.0000 
     53 CA        103.7920   79.4710   61.1710 C.3      12 GLL5        0.0000 
     54 CA        101.4680   81.1550   63.6160 C.3       8 GLP5        0.0000 
     55 CA        102.1220   79.5425   60.2830 C.3       4 GLC5        0.0000 
     56 CA        100.4520   79.6140   59.3950 C.3       8 GLP5        0.0000 
     57 CA        102.4730   78.2005   61.4805 C.3       4 GLC5        0.0000 
     58 CA        101.1540   76.9300   61.7900 C.3       8 GLP5        0.0000 
     59 CA        104.8208   73.3630   61.9920 C.3       4 GLC5        0.0000 
     60 CA        104.3360   74.5030   62.4100 C.3       4 GLC5        0.0000 
     61 CA        105.3150   76.6150   62.9030 C.3      12 GLL5        0.0000 
     62 CA        103.0787   77.0673   62.3118 C.3       4 GLC5        0.0000 
     63 CA        106.6775   77.3697   62.1508 C.3       4 GLC5        0.0000 
     64 CA        104.6920   77.7940   62.7640 C.3      12 GLL5        0.0000 
     65 CA        108.2950   77.7820   61.7670 C.3       8 GLP5        0.0000 
     66 CA        107.2248   76.6940   63.0480 C.3       4 GLC5        0.0000 
     67 CA        105.8120   76.2440   64.2480 C.3      12 GLL5        0.0000 
     68 CA        103.9652   75.8233   65.4240 C.3       4 GLC5        0.0000 
     69 CA        102.1890   74.9700   65.9570 C.3       8 GLP5        0.0000 
@<TRIPOS>BOND
@<TRIPOS>SUBSTRUCTURE
     1 ALC1       14 GROUP        1 X    ALC  0     ROOT ALC X 1
     2 SEC2        9 GROUP        1 X    SEC  0     **** SEC X 2
     3 LYC4       46 GROUP        1 X    LYC  0     **** LYC X 4
     4 GLC5        1 GROUP        1 X    GLC  0     **** GLC X 6
     5 ALP1       16 GROUP        1 Y    ALP  0     ROOT ALP Y 8
     6 SEP2       11 GROUP        1 Y    SEP  0     **** SEP Y 9
     7 LYP4       48 GROUP        1 Y    LYP  0     **** LYP Y 11
     8 GLP5        3 GROUP        1 Y    GLP  0     **** GLP Y 13
     9 ALL1       15 GROUP        1 Z    ALL  0     ROOT ALL Z 15
    10 SEL2       10 GROUP        1 Z    SEL  0     **** SEL Z 16
    11 LYL4       47 GROUP        1 Z    LYL  0     **** LYL Z 18
    12 GLL5        2 GROUP        1 Z    GLL  0     **** GLL Z 20
@<TRIPOS>SET

