#    Name: 1eji_PLG_3_ligand
#    Modification time : Tue Mar 25 00:01:36 2014

@<TRIPOS>MOLECULE
1eji_PLG_3_ligand
   31    31     1     0     0
SMALL
NO_CHARGES


@<TRIPOS>ATOM
      1 N1        106.6790   74.1230   63.3220 N.ar      1 PLG501      0.0000 
      2 C2        106.2590   74.3510   62.0000 C.ar      1 PLG501      0.0000 
      3 C2A       106.5360   73.3310   60.9380 C.3       1 PLG501      0.0000 
      4 C3        105.5410   75.6270   61.7070 C.ar      1 PLG501      0.0000 
      5 O3        105.0740   75.9880   60.4800 O.3       1 PLG501      0.0000 
      6 C4        105.3150   76.6150   62.9030 C.ar      1 PLG501      0.0000 
      7 C4A       104.6920   77.7940   62.7640 C.3       1 PLG501      0.0000 
      8 C5        105.8120   76.2440   64.2480 C.ar      1 PLG501      0.0000 
      9 C6        106.4970   74.9680   64.4100 C.ar      1 PLG501      0.0000 
     10 C5A       105.6710   77.1090   65.5340 C.3       1 PLG501      0.0000 
     11 OP4       104.7320   78.2060   65.6130 O.3       1 PLG501      0.0000 
     12 P         104.0350   78.6570   66.7700 P.3       1 PLG501      0.0000 
     13 OP1       105.1320   79.1230   67.7120 O.co2     1 PLG501      0.0000 
     14 OP2       103.2590   79.7720   66.2990 O.co2     1 PLG501      0.0000 
     15 OP3       103.2010   77.9280   67.6150 O.co2     1 PLG501      0.0000 
     16 C         103.8650   80.0090   59.6530 C.2       1 PLG501      0.0000 
     17 O         103.3480   81.0580   59.3370 O.co2     1 PLG501      0.0000 
     18 OXT       104.4550   79.3680   58.7440 O.co2     1 PLG501      0.0000 
     19 CA        103.7920   79.4710   61.1710 C.3       1 PLG501      0.0000 
     20 N         104.4260   78.2660   61.4550 N.4       1 PLG501      0.0000 
     21 H         105.2631   78.6252   63.3273 H         1 PLG501      0.0000 
     22 H         103.6954   77.7993   63.3480 H         1 PLG501      0.0000 
     23 H         106.8345   74.7202   65.3413 H         1 PLG501      0.0000 
     24 H         106.7263   77.4780   65.7800 H         1 PLG501      0.0000 
     25 H         105.4839   76.3707   66.3886 H         1 PLG501      0.0000 
     26 H         102.6900   79.4532   61.4078 H         1 PLG501      0.0000 
     27 H         104.1826   80.3285   61.7898 H         1 PLG501      0.0000 
     28 H         107.5160   73.1640   60.8300 H         1 PLG501      0.0000 
     29 H         106.1101   72.4510   61.1482 H         1 PLG501      0.0000 
     30 H         106.1878   73.6195   60.0461 H         1 PLG501      0.0000 
     31 H         105.8125   76.5227   60.0692 H         1 PLG501      0.0000 
@<TRIPOS>BOND
     1    2    1 ar   
     2    9    1 ar   
     3    3    2 1    
     4    4    2 ar   
     5   28    3 1    
     6   29    3 1    
     7   30    3 1    
     8    5    4 1    
     9    6    4 ar   
    10   31    5 1    
    11    7    6 1    
    12    8    6 ar   
    13   20    7 1    
    14   21    7 1    
    15   22    7 1    
    16    9    8 ar   
    17   10    8 1    
    18   23    9 1    
    19   11   10 1    
    20   24   10 1    
    21   25   10 1    
    22   12   11 1    
    23   13   12 ar   
    24   14   12 ar   
    25   15   12 ar   
    26   17   16 ar   
    27   18   16 ar   
    28   19   16 1    
    29   20   19 1    
    30   26   19 1    
    31   27   19 1    
@<TRIPOS>SUBSTRUCTURE
     1 PLG501      1 GROUP   
@<TRIPOS>SET

