#    Name: 2bxv_3FT_2_INTS_M
#    Modification time : Mon Mar 24 21:56:59 2014

@<TRIPOS>MOLECULE
2bxv_3FT_2_INTS_M
   82     0     6     0     0
SMALL
NO_CHARGES


@<TRIPOS>ATOM
      1 CA         33.5750   46.1660   40.7505 C.3       2 GLC5        0.0000 
      2 CA         35.4660   47.2920   40.5860 C.3       6 GLL5        0.0000 
      3 CA         31.6840   45.0400   40.9150 C.3       4 GLP5        0.0000 
      4 CA         35.1460   48.0875   46.4860 C.3       2 GLC5        0.0000 
      5 CA         33.9450   47.4630   45.1830 C.3       6 GLL5        0.0000 
      6 CA         36.3470   48.7120   47.7890 C.3       4 GLP5        0.0000 
      7 CA         33.0065   51.4570   45.9090 C.3       2 GLC5        0.0000 
      8 CA         33.3890   49.5920   45.3750 C.3       6 GLL5        0.0000 
      9 CA         32.6240   53.3220   46.4430 C.3       4 GLP5        0.0000 
     10 CA         38.0695   47.3360   44.7500 C.3       2 GLC5        0.0000 
     11 CA         36.4860   47.1830   43.2700 C.3       6 GLL5        0.0000 
     12 CA         39.6530   47.4890   46.2300 C.3       4 GLP5        0.0000 
     13 CA         37.1680   48.1075   40.7555 C.3       2 GLC5        0.0000 
     14 CA         36.4410   46.3260   40.9360 C.3       6 GLL5        0.0000 
     15 CA         37.8950   49.8890   40.5750 C.3       4 GLP5        0.0000 
     16 CA         40.2820   42.9390   39.7100 C.3       2 GLC5        0.0000 
     17 CA         40.9570   43.7230   41.0790 C.3       6 GLL5        0.0000 
     18 CA         39.6070   42.1550   38.3410 C.3       4 GLP5        0.0000 
     19 N          40.9890   42.3970   46.7895 N.am      1 SEC2        0.0000 
     20 N          41.0580   41.9900   45.5210 N.am      5 SEL2        0.0000 
     21 N          40.9200   42.8040   48.0580 N.am      3 SEP2        0.0000 
     22 CA         41.0345   38.5740   42.6180 C.3       2 GLC5        0.0000 
     23 CA         42.6010   39.5500   43.3440 C.3       6 GLL5        0.0000 
     24 CA         39.4680   37.5980   41.8920 C.3       4 GLP5        0.0000 
     25 CA         46.1220   39.3480   44.8650 C.3       2 GLC5        0.0000 
     26 CA         43.9620   39.0100   45.1590 C.3       6 GLL5        0.0000 
     27 CA         48.2820   39.6860   44.5710 C.3       4 GLP5        0.0000 
     28 CA         42.0840   38.0870   46.5570 C.3       2 GLC5        0.0000 
     29 CA         42.7780   39.7920   45.6600 C.3       6 GLL5        0.0000 
     30 CA         41.3900   36.3820   47.4540 C.3       4 GLP5        0.0000 
     31 CA         40.6155   39.6185   46.2355 C.3       2 GLC5        0.0000 
     32 CA         38.4530   39.4450   46.8110 C.3       4 GLP5        0.0000 
     33 N          42.9045   38.5860   39.8075 N.am      1 SEC2        0.0000 
     34 N          42.6350   38.6030   41.0930 N.am      5 SEL2        0.0000 
     35 N          43.1740   38.5690   38.5220 N.am      3 SEP2        0.0000 
     36 CA         34.5980   48.4085   39.5352 C.3       2 GLC5        0.0000 
     37 CA         33.9680   49.0670   37.9970 C.3       4 GLP5        0.0000 
     38 CA         36.6842   47.5240   39.0285 C.3       2 GLC5        0.0000 
     39 CA         37.4150   48.2390   37.2960 C.3       4 GLP5        0.0000 
     40 CA         36.6265   48.9233   41.2831 C.3       2 GLC5        0.0000 
     41 CA         35.1380   50.3838   44.8152 C.3       2 GLC5        0.0000 
     42 CA         33.7670   48.6330   44.4960 C.3       6 GLL5        0.0000 
     43 CA         36.6980   51.6550   44.6950 C.3       4 GLP5        0.0000 
     44 CA         34.2615   49.9548   46.3638 C.3       2 GLC5        0.0000 
     45 CA         34.9450   50.7970   47.7920 C.3       4 GLP5        0.0000 
     46 CA         31.9250   47.2013   43.5439 C.3       2 GLC5        0.0000 
     47 CA         32.7440   48.4710   43.6040 C.3       6 GLL5        0.0000 
     48 CA         30.5500   46.1430   42.8660 C.3       4 GLP5        0.0000 
     49 CA         37.7587   48.2163   42.2828 C.3       2 GLC5        0.0000 
     50 CA         38.7870   49.7160   41.7900 C.3       4 GLP5        0.0000 
     51 CA         39.6155   45.6433   43.8800 C.3       2 GLC5        0.0000 
     52 CA         37.9390   45.2320   42.5640 C.3       6 GLL5        0.0000 
     53 CA         40.7380   46.1800   45.6430 C.3       4 GLP5        0.0000 
     54 CA         36.9675   44.0847   41.4821 C.3       2 GLC5        0.0000 
     55 CA         36.9750   46.2500   42.2810 C.3       6 GLL5        0.0000 
     56 CA         36.9860   42.1360   41.2850 C.3       4 GLP5        0.0000 
     57 CA         40.3140   44.8430   44.0745 C.3       2 GLC5        0.0000 
     58 CA         39.9690   43.9250   41.9290 C.3       6 GLL5        0.0000 
     59 CA         38.6093   43.1120   41.3621 C.3       2 GLC5        0.0000 
     60 CA         41.2308   45.2770   40.4331 C.3       2 GLC5        0.0000 
     61 CA         39.0470   44.9810   41.6700 C.3       6 GLL5        0.0000 
     62 CA         42.2290   46.4660   39.4270 C.3       4 GLP5        0.0000 
     63 CA         42.0350   43.8562   42.8812 C.3       2 GLC5        0.0000 
     64 CA         39.8110   43.0870   43.0830 C.3       6 GLL5        0.0000 
     65 CA         43.9330   44.2570   43.4690 C.3       4 GLP5        0.0000 
     66 CA         39.4965   45.0258   44.7495 C.3       2 GLC5        0.0000 
     67 CA         38.7160   43.3440   43.9840 C.3       6 GLL5        0.0000 
     68 CA         37.6730   43.7278   45.5295 C.3       2 GLC5        0.0000 
     69 CA         37.0910   43.5840   47.2030 C.3       4 GLP5        0.0000 
     70 CA         37.7574   42.9716   42.4579 C.3       2 GLC5        0.0000 
     71 CA         37.7940   44.3990   43.7280 C.3       6 GLL5        0.0000 
     72 CA         43.7963   40.6400   42.8255 C.3       2 GLC5        0.0000 
     73 CA         44.5420   42.2710   42.0630 C.3       4 GLP5        0.0000 
     74 CA         43.3085   37.3985   45.9483 C.3       2 GLC5        0.0000 
     75 CA         43.5000   38.4680   43.8320 C.3       6 GLL5        0.0000 
     76 CA         42.8860   36.0580   47.4010 C.3       4 GLP5        0.0000 
     77 CA         44.4660   36.8285   44.1647 C.3       2 GLC5        0.0000 
     78 CA         45.2010   34.9180   43.8340 C.3       4 GLP5        0.0000 
     79 CA         44.4555   39.0445   47.0913 C.3       2 GLC5        0.0000 
     80 CA         45.5410   38.6880   48.7730 C.3       4 GLP5        0.0000 
     81 CA         43.8820   41.1859   44.2801 C.3       2 GLC5        0.0000 
     82 CA         44.5410   42.8420   43.4680 C.3       4 GLP5        0.0000 
@<TRIPOS>BOND
@<TRIPOS>SUBSTRUCTURE
     1 SEC2       19 GROUP        1 X    SEC  0     ROOT SEC X 2
     2 GLC5        1 GROUP        1 X    GLC  0     **** GLC X 6
     3 SEP2       21 GROUP        1 Y    SEP  0     ROOT SEP Y 9
     4 GLP5        3 GROUP        1 Y    GLP  0     **** GLP Y 13
     5 SEL2       20 GROUP        1 Z    SEL  0     ROOT SEL Z 16
     6 GLL5        2 GROUP        1 Z    GLL  0     **** GLL Z 20
@<TRIPOS>SET

