#    Name: 2bxv_3FT_2_ligand
#    Modification time : Mon Mar 24 21:56:59 2014

@<TRIPOS>MOLECULE
2bxv_3FT_2_ligand
   43    45     1     0     0
SMALL
NO_CHARGES


@<TRIPOS>ATOM
      1 C1         35.4660   47.2920   40.5860 C.ar      1 3FT1401     0.0000 
      2 C2         34.9900   48.2080   41.5610 C.ar      1 3FT1401     0.0000 
      3 C3         35.4880   48.1650   42.9090 C.ar      1 3FT1401     0.0000 
      4 O4         35.0040   49.0730   43.8460 O.3       1 3FT1401     0.0000 
      5 C5         33.7670   48.6330   44.4960 C.3       1 3FT1401     0.0000 
      6 F6         33.9450   47.4630   45.1830 F         1 3FT1401     0.0000 
      7 F7         33.3890   49.5920   45.3750 F         1 3FT1401     0.0000 
      8 F8         32.7440   48.4710   43.6040 F         1 3FT1401     0.0000 
      9 C9         36.4860   47.1830   43.2700 C.ar      1 3FT1401     0.0000 
     10 C10        36.9750   46.2500   42.2810 C.ar      1 3FT1401     0.0000 
     11 C11        37.9390   45.2320   42.5640 C.ar      1 3FT1401     0.0000 
     12 C12        36.4410   46.3260   40.9360 C.ar      1 3FT1401     0.0000 
     13 C13        39.0470   44.9810   41.6700 C.ar      1 3FT1401     0.0000 
     14 C14        39.9690   43.9250   41.9290 C.ar      1 3FT1401     0.0000 
     15 F15        40.9570   43.7230   41.0790 F         1 3FT1401     0.0000 
     16 C16        39.8110   43.0870   43.0830 C.ar      1 3FT1401     0.0000 
     17 N17        40.7060   42.0310   43.2920 N.am      1 3FT1401     0.0000 
     18 C18        38.7160   43.3440   43.9840 C.ar      1 3FT1401     0.0000 
     19 C19        37.7940   44.3990   43.7280 C.ar      1 3FT1401     0.0000 
     20 C20        41.3040   41.4750   44.4220 C.2       1 3FT1401     0.0000 
     21 C21        42.1900   40.3070   44.3910 C.2       1 3FT1401     0.0000 
     22 O22        41.0580   41.9900   45.5210 O.2       1 3FT1401     0.0000 
     23 C23        42.6010   39.5500   43.3440 C.2       1 3FT1401     0.0000 
     24 C24        43.5000   38.4680   43.8320 C.3       1 3FT1401     0.0000 
     25 C25        43.9620   39.0100   45.1590 C.3       1 3FT1401     0.0000 
     26 C26        42.7780   39.7920   45.6600 C.3       1 3FT1401     0.0000 
     27 C27        42.2930   39.6440   41.9040 C.2       1 3FT1401     0.0000 
     28 O28        41.7290   40.6140   41.3930 O.co2     1 3FT1401     0.0000 
     29 O29        42.6350   38.6030   41.0930 O.co2     1 3FT1401     0.0000 
     30 H          35.1046   47.3309   39.6334 H         1 3FT1401     0.0000 
     31 H          34.2892   48.9050   41.3107 H         1 3FT1401     0.0000 
     32 H          36.8417   47.1495   44.2153 H         1 3FT1401     0.0000 
     33 H          36.7838   45.6630   40.2359 H         1 3FT1401     0.0000 
     34 H          39.1629   45.5708   40.8471 H         1 3FT1401     0.0000 
     35 H          41.0092   41.5178   42.3335 H         1 3FT1401     0.0000 
     36 H          38.6063   42.7596   44.8125 H         1 3FT1401     0.0000 
     37 H          37.0226   44.5704   44.3714 H         1 3FT1401     0.0000 
     38 H          44.3304   38.3513   43.1813 H         1 3FT1401     0.0000 
     39 H          42.9554   37.5689   43.9795 H         1 3FT1401     0.0000 
     40 H          44.7953   39.6588   45.0177 H         1 3FT1401     0.0000 
     41 H          44.1783   38.2073   45.8254 H         1 3FT1401     0.0000 
     42 H          42.0970   39.1432   46.1489 H         1 3FT1401     0.0000 
     43 H          43.1066   40.5943   46.2700 H         1 3FT1401     0.0000 
@<TRIPOS>BOND
     1    2    1 ar   
     2   12    1 ar   
     3   30    1 1    
     4    3    2 ar   
     5   31    2 1    
     6    4    3 1    
     7    9    3 ar   
     8    5    4 1    
     9    6    5 1    
    10    7    5 1    
    11    8    5 1    
    12   10    9 ar   
    13   32    9 1    
    14   11   10 1    
    15   12   10 ar   
    16   13   11 ar   
    17   19   11 ar   
    18   33   12 1    
    19   14   13 ar   
    20   34   13 1    
    21   15   14 1    
    22   16   14 ar   
    23   17   16 1    
    24   18   16 ar   
    25   20   17 am   
    26   35   17 1    
    27   19   18 ar   
    28   36   18 1    
    29   37   19 1    
    30   21   20 1    
    31   22   20 2    
    32   23   21 2    
    33   26   21 1    
    34   24   23 1    
    35   27   23 1    
    36   25   24 1    
    37   38   24 1    
    38   39   24 1    
    39   26   25 1    
    40   40   25 1    
    41   41   25 1    
    42   42   26 1    
    43   43   26 1    
    44   28   27 ar   
    45   29   27 ar   
@<TRIPOS>SUBSTRUCTURE
     1 3FT1401     1 GROUP   
@<TRIPOS>SET

