#    Name: 1tlz_URI_1_INTS_M
#    Modification time : Tue Mar 25 05:30:51 2014

@<TRIPOS>MOLECULE
1tlz_URI_1_INTS_M
   30     0     9     0     0
SMALL
NO_CHARGES


@<TRIPOS>ATOM
      1 CA        -13.2545   89.6205   -2.4275 C.3       3 GLC5        0.0000 
      2 CA        -14.5320   91.3410   -1.8260 C.3       9 GLL5        0.0000 
      3 CA        -11.9770   87.9000   -3.0290 C.3       6 GLP5        0.0000 
      4 CA        -16.0145   93.0180   -2.9635 C.3       3 GLC5        0.0000 
      5 CA        -14.3970   93.0660   -3.5890 C.3       9 GLL5        0.0000 
      6 CA        -17.6320   92.9700   -2.3380 C.3       6 GLP5        0.0000 
      7 CA        -12.9285   92.9310   -2.2540 C.3       3 GLC5        0.0000 
      8 CA        -11.4600   92.7960   -0.9190 C.3       6 GLP5        0.0000 
      9 CA        -11.9660   92.4530   -2.8125 C.3       3 GLC5        0.0000 
     10 CA        -12.9150   93.1830   -3.8970 C.3       9 GLL5        0.0000 
     11 CA        -11.0170   91.7230   -1.7280 C.3       6 GLP5        0.0000 
     12 CA        -11.8940   90.0650   -4.3700 C.3       3 GLC5        0.0000 
     13 CA        -12.6470   91.8840   -4.6690 C.3       9 GLL5        0.0000 
     14 CA        -11.1410   88.2460   -4.0710 C.3       6 GLP5        0.0000 
     15 CA        -11.3220   91.9035   -3.6795 C.3       3 GLC5        0.0000 
     16 CA         -9.9970   91.9230   -2.6900 C.3       6 GLP5        0.0000 
     17 CA        -12.6635   89.1990   -4.8550 C.3       3 GLC5        0.0000 
     18 CA        -14.1860   90.1520   -5.6390 C.3       9 GLL5        0.0000 
     19 N         -16.5630   89.4975   -4.2515 N.am      2 SEC2        0.0000 
     20 N         -14.8570   89.5570   -4.4940 N.am      8 SEL2        0.0000 
     21 N         -18.2690   89.4380   -4.0090 N.am      5 SEP2        0.0000 
     22 O         -13.8030   89.2175   -3.4615 O.2       1 ALC1        0.0000 
     23 O         -14.8570   89.5570   -4.4940 O.2       7 ALL1        0.0000 
     24 O         -12.7490   88.8780   -2.4290 O.2       4 ALP1        0.0000 
     25 CA        -16.0348   91.6910   -1.1887 C.3       3 GLC5        0.0000 
     26 CA        -17.5370   92.2230   -1.1900 C.3       6 GLP5        0.0000 
     27 CA        -12.9962   91.9775   -1.0533 C.3       3 GLC5        0.0000 
     28 CA        -13.6360   91.1118   -7.6107 C.3       3 GLC5        0.0000 
     29 CA        -13.9640   91.6170   -5.3780 C.3       9 GLL5        0.0000 
     30 CA        -13.1970   91.3390   -9.7130 C.3       6 GLP5        0.0000 
@<TRIPOS>BOND
@<TRIPOS>SUBSTRUCTURE
     1 ALC1       22 GROUP        1 X    ALC  0     ROOT ALC X 1
     2 SEC2       19 GROUP        1 X    SEC  0     **** SEC X 2
     3 GLC5        1 GROUP        1 X    GLC  0     **** GLC X 6
     4 ALP1       24 GROUP        1 Y    ALP  0     ROOT ALP Y 8
     5 SEP2       21 GROUP        1 Y    SEP  0     **** SEP Y 9
     6 GLP5        3 GROUP        1 Y    GLP  0     **** GLP Y 13
     7 ALL1       23 GROUP        1 Z    ALL  0     ROOT ALL Z 15
     8 SEL2       20 GROUP        1 Z    SEL  0     **** SEL Z 16
     9 GLL5        2 GROUP        1 Z    GLL  0     **** GLL Z 20
@<TRIPOS>SET

