#    Name: 1tlz_URI_1_ligand
#    Modification time : Tue Mar 25 05:30:51 2014

@<TRIPOS>MOLECULE
1tlz_URI_1_ligand
   29    30     1     0     0
SMALL
NO_CHARGES


@<TRIPOS>ATOM
      1 N1        -14.4760   92.6470   -2.2050 N.am      1 URI800      0.0000 
      2 C2        -14.4490   93.6790   -1.3070 C.2       1 URI800      0.0000 
      3 N3        -14.4560   93.3020    0.0180 N.am      1 URI800      0.0000 
      4 C4        -14.4990   91.9870    0.4790 C.2       1 URI800      0.0000 
      5 C5        -14.5330   90.9770   -0.5490 C.2       1 URI800      0.0000 
      6 C6        -14.5320   91.3410   -1.8260 C.2       1 URI800      0.0000 
      7 O2        -14.4150   94.8590   -1.6910 O.2       1 URI800      0.0000 
      8 O4        -14.6320   91.7740    1.6870 O.2       1 URI800      0.0000 
      9 C1'       -14.3970   93.0660   -3.5890 C.3       1 URI800      0.0000 
     10 C2'       -12.9150   93.1830   -3.8970 C.3       1 URI800      0.0000 
     11 C3'       -12.6470   91.8840   -4.6690 C.3       1 URI800      0.0000 
     12 C4'       -13.9640   91.6170   -5.3780 C.3       1 URI800      0.0000 
     13 O2'       -12.7870   94.3800   -4.6100 O.3       1 URI800      0.0000 
     14 O3'       -11.6630   92.0810   -5.6860 O.3       1 URI800      0.0000 
     15 O4'       -14.9780   92.0880   -4.4360 O.3       1 URI800      0.0000 
     16 C5'       -14.1860   90.1520   -5.6390 C.3       1 URI800      0.0000 
     17 O5'       -14.8570   89.5570   -4.4940 O.3       1 URI800      0.0000 
     18 H         -14.4263   94.0726    0.7548 H         1 URI800      0.0000 
     19 H         -14.5571   89.9953   -0.2428 H         1 URI800      0.0000 
     20 H         -14.5757   90.6036   -2.5831 H         1 URI800      0.0000 
     21 H         -14.8354   94.0284   -3.7131 H         1 URI800      0.0000 
     22 H         -12.4064   93.1527   -2.9735 H         1 URI800      0.0000 
     23 H         -12.4477   91.1124   -4.0098 H         1 URI800      0.0000 
     24 H         -14.0030   92.1766   -6.2710 H         1 URI800      0.0000 
     25 H         -13.2182   89.6746   -5.8135 H         1 URI800      0.0000 
     26 H         -14.7903   90.0429   -6.5434 H         1 URI800      0.0000 
     27 H         -13.7036   94.5713   -4.9610 H         1 URI800      0.0000 
     28 H         -11.5140   93.0694   -5.7138 H         1 URI800      0.0000 
     29 H         -14.1265   89.3578   -3.8408 H         1 URI800      0.0000 
@<TRIPOS>BOND
     1    2    1 1    
     2    6    1 1    
     3    9    1 1    
     4    3    2 1    
     5    7    2 2    
     6    4    3 1    
     7   18    3 1    
     8    5    4 1    
     9    8    4 2    
    10    6    5 2    
    11   19    5 1    
    12   20    6 1    
    13   10    9 1    
    14   15    9 1    
    15   21    9 1    
    16   11   10 1    
    17   13   10 1    
    18   22   10 1    
    19   12   11 1    
    20   14   11 1    
    21   23   11 1    
    22   15   12 1    
    23   16   12 1    
    24   24   12 1    
    25   27   13 1    
    26   28   14 1    
    27   17   16 1    
    28   25   16 1    
    29   26   16 1    
    30   29   17 1    
@<TRIPOS>SUBSTRUCTURE
     1 URI800      1 GROUP   
@<TRIPOS>SET

