#    Name: 1ikw_EFZ_1_INTS_M
#    Modification time : Tue Mar 25 07:11:59 2014

@<TRIPOS>MOLECULE
1ikw_EFZ_1_INTS_M
   68     0     9     0     0
SMALL
NO_CHARGES


@<TRIPOS>ATOM
      1 CA         -7.4560  146.9820  177.1685 C.3       3 GLC5        0.0000 
      2 CA         -7.0580  146.0360  175.8400 C.3       9 GLL5        0.0000 
      3 CA         -7.8540  147.9280  178.4970 C.3       6 GLP5        0.0000 
      4 CA         -4.9010  146.4240  175.5995 C.3       3 GLC5        0.0000 
      5 CA         -2.7440  146.8120  175.3590 C.3       6 GLP5        0.0000 
      6 CA        -14.3285  142.3345  175.3160 C.3       3 GLC5        0.0000 
      7 CA        -13.2680  143.4330  173.9990 C.3       9 GLL5        0.0000 
      8 CA        -15.3890  141.2360  176.6330 C.3       6 GLP5        0.0000 
      9 CA        -11.0535  144.8710  170.9680 C.3       3 GLC5        0.0000 
     10 CA        -11.9300  144.5790  172.6110 C.3       9 GLL5        0.0000 
     11 CA        -10.1770  145.1630  169.3250 C.3       6 GLP5        0.0000 
     12 CA        -11.2135  146.7025  174.9330 C.3       3 GLC5        0.0000 
     13 CA        -12.0580  145.1600  174.8030 C.3       9 GLL5        0.0000 
     14 CA        -10.3690  148.2450  175.0630 C.3       6 GLP5        0.0000 
     15 CA        -13.7835  146.4520  174.5520 C.3       3 GLC5        0.0000 
     16 CA        -15.5090  147.7440  174.3010 C.3       6 GLP5        0.0000 
     17 N          -9.7240  140.2280  170.4275 N.am      2 SEC2        0.0000 
     18 N         -10.8650  141.1570  171.3080 N.am      8 SEL2        0.0000 
     19 N          -8.5830  139.2990  169.5470 N.am      5 SEP2        0.0000 
     20 O          -8.6280  142.3175  170.7150 O.2       1 ALC1        0.0000 
     21 O          -9.3010  142.7160  171.8850 O.2       7 ALL1        0.0000 
     22 O          -7.9550  141.9190  169.5450 O.2       4 ALP1        0.0000 
     23 CA         -9.4495  144.3635  171.0920 C.3       3 GLC5        0.0000 
     24 CA         -8.7220  143.5640  172.8590 C.3       9 GLL5        0.0000 
     25 CA         -8.2820  145.2040  171.0345 C.3       3 GLC5        0.0000 
     26 CA         -7.4330  144.1570  172.6480 C.3       9 GLL5        0.0000 
     27 CA         -9.1310  146.2510  169.4210 C.3       6 GLP5        0.0000 
     28 CA         -9.6115  146.4510  175.0625 C.3       3 GLC5        0.0000 
     29 CA         -8.8540  144.6570  175.0620 C.3       9 GLL5        0.0000 
     30 CA         -9.7180  140.9955  175.9450 C.3       3 GLC5        0.0000 
     31 CA        -11.2010  142.0780  176.8030 C.3       9 GLL5        0.0000 
     32 CA         -8.2350  139.9130  175.0870 C.3       6 GLP5        0.0000 
     33 CA        -12.2325  143.2210  178.6295 C.3       3 GLC5        0.0000 
     34 CA        -11.3910  141.4730  178.1030 C.3       9 GLL5        0.0000 
     35 CA        -13.0740  144.9690  179.1560 C.3       6 GLP5        0.0000 
     36 CA         -9.4880  140.0725  176.8325 C.3       3 GLC5        0.0000 
     37 CA        -10.7410  140.2320  178.5780 C.3       9 GLL5        0.0000 
     38 CA        -10.3755  139.1280  179.8060 C.3       3 GLC5        0.0000 
     39 CA        -10.0100  138.0240  181.0340 C.3       6 GLP5        0.0000 
     40 CA        -10.9625  143.5790  179.1540 C.3       3 GLC5        0.0000 
     41 CA        -10.1040  141.6150  178.9340 C.3       9 GLL5        0.0000 
     42 CA        -11.8210  145.5430  179.3740 C.3       6 GLP5        0.0000 
     43 CA         -9.6845  141.0440  180.5400 C.3       3 GLC5        0.0000 
     44 CA         -9.2650  140.4730  182.1460 C.3       6 GLP5        0.0000 
     45 CA         -8.4340  142.1845  179.2045 C.3       3 GLC5        0.0000 
     46 CA         -6.7640  142.7540  179.4750 C.3       6 GLP5        0.0000 
     47 CA         -6.2882  144.8750  176.7030 C.3       3 GLC5        0.0000 
     48 CA         -5.2620  144.1050  178.0500 C.3       6 GLP5        0.0000 
     49 CA        -13.4499  143.5806  172.2887 C.3       3 GLC5        0.0000 
     50 CA        -12.0590  144.1020  173.9050 C.3       9 GLL5        0.0000 
     51 CA        -14.6030  142.9880  171.2960 C.3       6 GLP5        0.0000 
     52 CA        -13.0449  144.7434  176.0862 C.3       3 GLC5        0.0000 
     53 CA        -13.7290  145.0230  177.7950 C.3       6 GLP5        0.0000 
     54 CA        -12.5581  146.1471  172.7317 C.3       3 GLC5        0.0000 
     55 CA        -13.0900  147.5440  171.4330 C.3       6 GLP5        0.0000 
     56 CA         -8.6642  141.7978  174.2755 C.3       3 GLC5        0.0000 
     57 CA         -9.4650  143.8010  174.0690 C.3       9 GLL5        0.0000 
     58 CA         -5.8810  145.9368  172.6062 C.3       3 GLC5        0.0000 
     59 CA         -4.6170  147.2940  172.0610 C.3       6 GLP5        0.0000 
     60 CA         -7.7109  147.1633  174.1743 C.3       3 GLC5        0.0000 
     61 CA         -6.8570  145.0020  173.6550 C.3       9 GLL5        0.0000 
     62 CA         -8.3360  149.0030  173.8430 C.3       6 GLP5        0.0000 
     63 CA         -9.5840  141.3748  174.9882 C.3       3 GLC5        0.0000 
     64 CA        -10.8690  143.0970  174.2060 C.3       9 GLL5        0.0000 
     65 CA        -12.4140  143.6750  176.9915 C.3       3 GLC5        0.0000 
     66 CA        -10.9970  142.5760  175.5730 C.3       9 GLL5        0.0000 
     67 CA        -12.7848  140.7684  178.4673 C.3       3 GLC5        0.0000 
     68 CA        -14.5510  140.5330  178.9190 C.3       6 GLP5        0.0000 
@<TRIPOS>BOND
@<TRIPOS>SUBSTRUCTURE
     1 ALC1       20 GROUP        1 X    ALC  0     ROOT ALC X 1
     2 SEC2       17 GROUP        1 X    SEC  0     **** SEC X 2
     3 GLC5        1 GROUP        1 X    GLC  0     **** GLC X 6
     4 ALP1       22 GROUP        1 Y    ALP  0     ROOT ALP Y 8
     5 SEP2       19 GROUP        1 Y    SEP  0     **** SEP Y 9
     6 GLP5        3 GROUP        1 Y    GLP  0     **** GLP Y 13
     7 ALL1       21 GROUP        1 Z    ALL  0     ROOT ALL Z 15
     8 SEL2       18 GROUP        1 Z    SEL  0     **** SEL Z 16
     9 GLL5        2 GROUP        1 Z    GLL  0     **** GLL Z 20
@<TRIPOS>SET

