#    Name: 1ikw_EFZ_1_ligand
#    Modification time : Tue Mar 25 07:12:00 2014

@<TRIPOS>MOLECULE
1ikw_EFZ_1_ligand
   30    32     1     0     0
SMALL
NO_CHARGES


@<TRIPOS>ATOM
      1 CL         -7.0580  146.0360  175.8400 Cl        1 EFZ2000     0.0000 
      2 F1        -13.2680  143.4330  173.9990 F         1 EFZ2000     0.0000 
      3 F2        -11.9300  144.5790  172.6110 F         1 EFZ2000     0.0000 
      4 F3        -12.0580  145.1600  174.8030 F         1 EFZ2000     0.0000 
      5 O1        -10.8650  141.1570  171.3080 O.2       1 EFZ2000     0.0000 
      6 O2        -10.9920  141.8560  173.4180 O.3       1 EFZ2000     0.0000 
      7 N          -9.3010  142.7160  171.8850 N.am      1 EFZ2000     0.0000 
      8 C1         -8.7220  143.5640  172.8590 C.ar      1 EFZ2000     0.0000 
      9 C2         -7.4330  144.1570  172.6480 C.ar      1 EFZ2000     0.0000 
     10 C3         -6.8570  145.0020  173.6550 C.ar      1 EFZ2000     0.0000 
     11 C4         -7.5710  145.2540  174.8720 C.ar      1 EFZ2000     0.0000 
     12 C5         -8.8540  144.6570  175.0620 C.ar      1 EFZ2000     0.0000 
     13 C6         -9.4650  143.8010  174.0690 C.ar      1 EFZ2000     0.0000 
     14 C7        -10.8690  143.0970  174.2060 C.3       1 EFZ2000     0.0000 
     15 C8        -10.9970  142.5760  175.5730 C.1       1 EFZ2000     0.0000 
     16 C9        -11.2010  142.0780  176.8030 C.1       1 EFZ2000     0.0000 
     17 C10       -11.3910  141.4730  178.1030 C.3       1 EFZ2000     0.0000 
     18 C11       -10.7410  140.2320  178.5780 C.3       1 EFZ2000     0.0000 
     19 C12       -10.1040  141.6150  178.9340 C.3       1 EFZ2000     0.0000 
     20 C13       -12.0590  144.1020  173.9050 C.3       1 EFZ2000     0.0000 
     21 C14       -10.4100  141.8780  172.1860 C.2       1 EFZ2000     0.0000 
     22 H          -8.9104  142.7032  170.9304 H         1 EFZ2000     0.0000 
     23 H          -6.9281  143.9793  171.7869 H         1 EFZ2000     0.0000 
     24 H          -5.9460  145.4198  173.5049 H         1 EFZ2000     0.0000 
     25 H          -9.3695  144.8377  175.9355 H         1 EFZ2000     0.0000 
     26 H         -12.0981  141.7093  178.7586 H         1 EFZ2000     0.0000 
     27 H         -10.2097  139.8686  177.8813 H         1 EFZ2000     0.0000 
     28 H         -11.1752  139.9312  179.3659 H         1 EFZ2000     0.0000 
     29 H         -10.3662  141.8012  179.8131 H         1 EFZ2000     0.0000 
     30 H          -9.4008  141.7387  178.3286 H         1 EFZ2000     0.0000 
@<TRIPOS>BOND
     1   11    1 1    
     2   20    2 1    
     3   20    3 1    
     4   20    4 1    
     5   21    5 2    
     6   14    6 1    
     7   21    6 1    
     8    8    7 1    
     9   21    7 am   
    10   22    7 1    
    11    9    8 ar   
    12   13    8 ar   
    13   10    9 ar   
    14   23    9 1    
    15   11   10 ar   
    16   24   10 1    
    17   12   11 ar   
    18   13   12 ar   
    19   25   12 1    
    20   14   13 1    
    21   15   14 1    
    22   20   14 1    
    23   16   15 3    
    24   17   16 1    
    25   18   17 1    
    26   19   17 1    
    27   26   17 1    
    28   19   18 1    
    29   27   18 1    
    30   28   18 1    
    31   29   19 1    
    32   30   19 1    
@<TRIPOS>SUBSTRUCTURE
     1 EFZ2000     1 GROUP   
@<TRIPOS>SET

