#    Name: 4ki8_ADP_4_INTS_M
#    Modification time : Tue Mar 25 07:55:07 2014

@<TRIPOS>MOLECULE
4ki8_ADP_4_INTS_M
   78     0    12     0     0
SMALL
NO_CHARGES


@<TRIPOS>ATOM
      1 N         314.3825  -48.5585  299.7655 N.am      2 SEC2        0.0000 
      2 N         314.4980  -49.5690  300.6890 N.am     10 SEL2        0.0000 
      3 N         314.2670  -47.5480  298.8420 N.am      6 SEP2        0.0000 
      4 N         313.9325  -49.9020  299.4705 N.am      2 SEC2        0.0000 
      5 N         313.3670  -50.2350  298.2520 N.am      6 SEP2        0.0000 
      6 Zn        315.1600  -51.8415  303.5710 Zn        3 ZIC7        0.0000 
      7 Zn        314.9590  -51.3330  302.5150 Zn       11 ZIL7        0.0000 
      8 Zn        315.3610  -52.3500  304.6270 Zn        7 ZIP7        0.0000 
      9 N         315.5030  -47.6735  301.9995 N.am      2 SEC2        0.0000 
     10 N         315.8990  -48.9940  302.7200 N.am     10 SEL2        0.0000 
     11 N         315.1070  -46.3530  301.2790 N.am      6 SEP2        0.0000 
     12 N         316.8100  -48.0980  302.0975 N.am      2 SEC2        0.0000 
     13 N         317.7210  -47.2020  301.4750 N.am      6 SEP2        0.0000 
     14 N         319.6190  -52.0270  299.9870 N.am      2 SEC2        0.0000 
     15 N         319.1480  -51.3250  301.3280 N.am     10 SEL2        0.0000 
     16 N         320.0900  -52.7290  298.6460 N.am      6 SEP2        0.0000 
     17 N         319.7300  -50.0865  301.5880 N.am      2 SEC2        0.0000 
     18 N         320.3120  -48.8480  301.8480 N.am      6 SEP2        0.0000 
     19 Zn        316.2680  -52.3160  303.7305 Zn        3 ZIC7        0.0000 
     20 Zn        317.1750  -52.2820  302.8340 Zn       11 ZIL7        0.0000 
     21 N         318.7435  -52.7600  299.4945 N.am      2 SEC2        0.0000 
     22 N         317.3970  -52.7910  300.3430 N.am     10 SEL2        0.0000 
     23 CA        318.0475  -54.1360  298.7505 C.3       4 GLC5        0.0000 
     24 CA        315.8510  -54.1190  299.1320 C.3      12 GLL5        0.0000 
     25 CA        320.2440  -54.1530  298.3690 C.3       8 GLP5        0.0000 
     26 O         312.2970  -55.3495  298.2640 O.2       1 ALC1        0.0000 
     27 O         313.7200  -54.6060  298.0920 O.2       9 ALL1        0.0000 
     28 O         310.8740  -56.0930  298.4360 O.2       5 ALP1        0.0000 
     29 CA        314.4585  -57.1800  301.1290 C.3       4 GLC5        0.0000 
     30 CA        314.9870  -56.3260  299.2820 C.3      12 GLL5        0.0000 
     31 CA        313.9300  -58.0340  302.9760 C.3       8 GLP5        0.0000 
     32 N         313.8120  -57.6205  297.3595 N.am      2 SEC2        0.0000 
     33 N         314.0380  -57.2800  298.7770 N.am     10 SEL2        0.0000 
     34 N         313.5860  -57.9610  295.9420 N.am      6 SEP2        0.0000 
     35 O         312.8200  -57.0895  299.5565 O.2       1 ALC1        0.0000 
     36 O         314.0380  -57.2800  298.7770 O.2       9 ALL1        0.0000 
     37 O         311.6020  -56.8990  300.3360 O.2       5 ALP1        0.0000 
     38 O         312.4560  -56.6865  298.6065 O.2       1 ALC1        0.0000 
     39 CA        318.4210  -56.6580  298.3190 C.3       4 GLC5        0.0000 
     40 CA        316.2450  -56.3060  298.4310 C.3      12 GLL5        0.0000 
     41 CA        320.5970  -57.0100  298.2070 C.3       8 GLP5        0.0000 
     42 CA        315.4045  -56.9685  296.6770 C.3       4 GLC5        0.0000 
     43 CA        314.5640  -57.6310  294.9230 C.3       8 GLP5        0.0000 
     44 CA        316.4655  -55.4120  296.5705 C.3       4 GLC5        0.0000 
     45 CA        316.6860  -54.5180  294.7100 C.3       8 GLP5        0.0000 
     46 CA        318.8620  -61.7945  295.6775 C.3       4 GLC5        0.0000 
     47 CA        318.6480  -60.5100  297.5050 C.3      12 GLL5        0.0000 
     48 CA        319.0760  -63.0790  293.8500 C.3       8 GLP5        0.0000 
     49 CA        319.9740  -59.7130  296.0070 C.3       4 GLC5        0.0000 
     50 CA        321.3000  -58.9160  294.5090 C.3       8 GLP5        0.0000 
     51 CA        317.6475  -61.9280  297.2800 C.3       4 GLC5        0.0000 
     52 CA        316.6470  -63.3460  297.0550 C.3       8 GLP5        0.0000 
     53 O         319.9340  -62.6900  297.1085 O.2       1 ALC1        0.0000 
     54 O         319.3080  -61.5690  298.0280 O.2       9 ALL1        0.0000 
     55 O         320.5600  -63.8110  296.1890 O.2       5 ALP1        0.0000 
     56 N         319.4815  -60.7915  295.2855 N.am      2 SEC2        0.0000 
     57 N         318.4600  -60.3660  296.1720 N.am     10 SEL2        0.0000 
     58 N         320.5030  -61.2170  294.3990 N.am      6 SEP2        0.0000 
     59 CA        319.5765  -58.7980  296.8180 C.3       4 GLC5        0.0000 
     60 CA        317.8010  -59.3120  295.6580 C.3      12 GLL5        0.0000 
     61 CA        321.3520  -58.2840  297.9780 C.3       8 GLP5        0.0000 
     62 CA        316.1825  -58.4715  295.2905 C.3       4 GLC5        0.0000 
     63 CA        318.6330  -57.5130  294.7680 C.3       4 GLC5        0.0000 
     64 CA        319.4650  -55.7140  293.8780 C.3       8 GLP5        0.0000 
     65 CA        318.4385  -61.1955  294.7540 C.3       4 GLC5        0.0000 
     66 CA        319.5505  -59.1140  295.0835 C.3       4 GLC5        0.0000 
     67 CA        316.1540  -60.4940  295.2450 C.3       4 GLC5        0.0000 
     68 CA        314.5070  -61.6760  294.8320 C.3       8 GLP5        0.0000 
     69 CA        316.2945  -60.2355  296.8990 C.3       4 GLC5        0.0000 
     70 CA        314.7880  -61.1590  298.1400 C.3       8 GLP5        0.0000 
     71 CA        319.0020  -57.6810  297.9785 C.3       4 GLC5        0.0000 
     72 CA        317.4070  -58.3520  297.7500 C.3      12 GLL5        0.0000 
     73 CA        315.9855  -57.9915  296.3365 C.3       4 GLC5        0.0000 
     74 CA        316.5907  -52.0095  298.8317 C.3       4 GLC5        0.0000 
     75 CA        317.1440  -50.1760  297.8520 C.3       8 GLP5        0.0000 
     76 CA        319.8650  -59.1365  297.9615 C.3       4 GLC5        0.0000 
     77 CA        318.1080  -59.4680  298.3850 C.3      12 GLL5        0.0000 
     78 CA        316.2727  -60.0345  298.1037 C.3       4 GLC5        0.0000 
@<TRIPOS>BOND
@<TRIPOS>SUBSTRUCTURE
     1 ALC1       26 GROUP        1 X    ALC  0     ROOT ALC X 1
     2 SEC2        1 GROUP        1 X    SEC  0     **** SEC X 2
     3 ZIC7        6 GROUP        1 X    ZIC  0     **** ZIC X 5
     4 GLC5       23 GROUP        1 X    GLC  0     **** GLC X 6
     5 ALP1       28 GROUP        1 Y    ALP  0     ROOT ALP Y 8
     6 SEP2        3 GROUP        1 Y    SEP  0     **** SEP Y 9
     7 ZIP7        8 GROUP        1 Y    ZIP  0     **** ZIP Y 12
     8 GLP5       25 GROUP        1 Y    GLP  0     **** GLP Y 13
     9 ALL1       27 GROUP        1 Z    ALL  0     ROOT ALL Z 15
    10 SEL2        2 GROUP        1 Z    SEL  0     **** SEL Z 16
    11 ZIL7        7 GROUP        1 Z    ZIL  0     **** ZIL Z 19
    12 GLL5       24 GROUP        1 Z    GLL  0     **** GLL Z 20
@<TRIPOS>SET

