#    Name: 4ki8_ADP_4_ligand
#    Modification time : Tue Mar 25 07:55:07 2014

@<TRIPOS>MOLECULE
4ki8_ADP_4_ligand
   39    41     1     0     0
SMALL
NO_CHARGES


@<TRIPOS>ATOM
      1 PB        315.4120  -50.0750  301.7900 P.3       1 ADP601      0.0000 
      2 O1B       314.4980  -49.5690  300.6890 O.co2     1 ADP601      0.0000 
      3 O2B       314.9590  -51.3330  302.5150 O.co2     1 ADP601      0.0000 
      4 O3B       315.8990  -48.9940  302.7200 O.co2     1 ADP601      0.0000 
      5 PA        317.7030  -51.7320  301.5110 P.3       1 ADP601      0.0000 
      6 O1A       319.1480  -51.3250  301.3280 O.co2     1 ADP601      0.0000 
      7 O2A       317.1750  -52.2820  302.8340 O.co2     1 ADP601      0.0000 
      8 O3A       316.7230  -50.5560  300.9700 O.3       1 ADP601      0.0000 
      9 O5'       317.3970  -52.7910  300.3430 O.3       1 ADP601      0.0000 
     10 C5'       316.2240  -53.5670  300.4910 C.3       1 ADP601      0.0000 
     11 C4'       315.8510  -54.1190  299.1320 C.3       1 ADP601      0.0000 
     12 O4'       316.8710  -55.0440  298.7110 O.3       1 ADP601      0.0000 
     13 C3'       314.5370  -54.8790  299.2380 C.3       1 ADP601      0.0000 
     14 O3'       313.7200  -54.6060  298.0920 O.3       1 ADP601      0.0000 
     15 C2'       314.9870  -56.3260  299.2820 C.3       1 ADP601      0.0000 
     16 O2'       314.0380  -57.2800  298.7770 O.3       1 ADP601      0.0000 
     17 C1'       316.2450  -56.3060  298.4310 C.3       1 ADP601      0.0000 
     18 N9        317.0260  -57.5330  298.7210 N.pl3     1 ADP601      0.0000 
     19 C8        317.4070  -58.0630  299.9080 C.2       1 ADP601      0.0000 
     20 N7        318.0760  -59.2410  299.7110 N.2       1 ADP601      0.0000 
     21 C5        318.1080  -59.4680  298.3850 C.ar      1 ADP601      0.0000 
     22 C6        318.6480  -60.5100  297.5050 C.ar      1 ADP601      0.0000 
     23 N6        319.3080  -61.5690  298.0280 N.pl3     1 ADP601      0.0000 
     24 N1        318.4600  -60.3660  296.1720 N.ar      1 ADP601      0.0000 
     25 C2        317.8010  -59.3120  295.6580 C.ar      1 ADP601      0.0000 
     26 N3        317.2820  -58.3260  296.4110 N.ar      1 ADP601      0.0000 
     27 C4        317.4070  -58.3520  297.7500 C.ar      1 ADP601      0.0000 
     28 H         315.3829  -52.9739  300.8578 H         1 ADP601      0.0000 
     29 H         316.3725  -54.4104  301.1696 H         1 ADP601      0.0000 
     30 H         315.7366  -53.3203  298.4425 H         1 ADP601      0.0000 
     31 H         314.0838  -54.6315  300.1578 H         1 ADP601      0.0000 
     32 H         315.3016  -56.5423  300.2925 H         1 ADP601      0.0000 
     33 H         315.8947  -56.3317  297.3931 H         1 ADP601      0.0000 
     34 H         317.2336  -57.6686  300.7810 H         1 ADP601      0.0000 
     35 H         319.4378  -61.5606  299.0195 H         1 ADP601      0.0000 
     36 H         319.6075  -62.2662  297.3767 H         1 ADP601      0.0000 
     37 H         317.6842  -59.2555  294.5996 H         1 ADP601      0.0000 
     38 H         312.9394  -55.2251  298.1775 H         1 ADP601      0.0000 
     39 H         313.2026  -57.1164  299.3017 H         1 ADP601      0.0000 
@<TRIPOS>BOND
     1    2    1 ar   
     2    3    1 ar   
     3    4    1 ar   
     4    8    1 1    
     5    6    5 ar   
     6    7    5 ar   
     7    8    5 1    
     8    9    5 1    
     9   10    9 1    
    10   11   10 1    
    11   28   10 1    
    12   29   10 1    
    13   12   11 1    
    14   13   11 1    
    15   30   11 1    
    16   17   12 1    
    17   14   13 1    
    18   15   13 1    
    19   31   13 1    
    20   38   14 1    
    21   16   15 1    
    22   17   15 1    
    23   32   15 1    
    24   39   16 1    
    25   18   17 1    
    26   33   17 1    
    27   19   18 1    
    28   27   18 1    
    29   20   19 2    
    30   34   19 1    
    31   21   20 1    
    32   22   21 ar   
    33   27   21 ar   
    34   23   22 1    
    35   24   22 ar   
    36   35   23 1    
    37   36   23 1    
    38   25   24 ar   
    39   26   25 ar   
    40   37   25 1    
    41   27   26 ar   
@<TRIPOS>SUBSTRUCTURE
     1 ADP601      1 GROUP   
@<TRIPOS>SET

