#    Name: 1qwc_14W_1_INTS_M
#    Modification time : Tue Mar 25 00:00:05 2014

@<TRIPOS>MOLECULE
1qwc_14W_1_INTS_M
   23     0     6     0     0
SMALL
NO_CHARGES


@<TRIPOS>ATOM
      1 CA          1.3815   -0.8105   60.4795 C.3       2 GLC5        0.0000 
      2 CA          2.5750    0.5380   59.4460 C.3       6 GLL5        0.0000 
      3 CA          0.1880   -2.1590   61.5130 C.3       4 GLP5        0.0000 
      4 O           0.3765   -0.2685   57.3655 O.2       1 ALC1        0.0000 
      5 O          -0.0690    0.6740   58.4250 O.2       5 ALL1        0.0000 
      6 O           0.8220   -1.2110   56.3060 O.2       3 ALP1        0.0000 
      7 O          -3.1795   -1.6165   58.9160 O.2       1 ALC1        0.0000 
      8 O          -2.0630   -0.4460   58.3120 O.2       5 ALL1        0.0000 
      9 O          -4.2960   -2.7870   59.5200 O.2       3 ALP1        0.0000 
     10 O          -1.6145   -1.2805   57.2395 O.2       1 ALC1        0.0000 
     11 O          -1.1660   -2.1150   56.1670 O.2       3 ALP1        0.0000 
     12 CA          3.0133    3.1018   59.6138 C.3       2 GLC5        0.0000 
     13 CA          3.0400    2.4780   58.1060 C.3       6 GLL5        0.0000 
     14 CA          2.2980    3.8340   61.0680 C.3       4 GLP5        0.0000 
     15 CA          5.3295    0.8042   60.7703 C.3       2 GLC5        0.0000 
     16 CA          4.8600    1.1620   58.9560 C.3       6 GLL5        0.0000 
     17 CA          6.2560    0.8750   62.2770 C.3       4 GLP5        0.0000 
     18 CA          3.3505    2.2838   60.1658 C.3       2 GLC5        0.0000 
     19 CA          3.9460    0.3050   59.5710 C.3       6 GLL5        0.0000 
     20 CA          1.8919    2.6700   59.9515 C.3       2 GLC5        0.0000 
     21 CA          2.1060    1.6320   58.7120 C.3       6 GLL5        0.0000 
     22 CA         -0.6727   -0.7065   60.5157 C.3       2 GLC5        0.0000 
     23 CA         -1.7710    1.0950   60.1360 C.3       6 GLL5        0.0000 
@<TRIPOS>BOND
@<TRIPOS>SUBSTRUCTURE
     1 ALC1        4 GROUP        1 X    ALC  0     ROOT ALC X 1
     2 GLC5        1 GROUP        1 X    GLC  0     **** GLC X 6
     3 ALP1        6 GROUP        1 Y    ALP  0     ROOT ALP Y 8
     4 GLP5        3 GROUP        1 Y    GLP  0     **** GLP Y 13
     5 ALL1        5 GROUP        1 Z    ALL  0     ROOT ALL Z 15
     6 GLL5        2 GROUP        1 Z    GLL  0     **** GLL Z 20
@<TRIPOS>SET

