#    Name: 1qwc_14W_1_ligand
#    Modification time : Tue Mar 25 00:00:05 2014

@<TRIPOS>MOLECULE
1qwc_14W_1_ligand
   30    30     1     0     0
SMALL
NO_CHARGES


@<TRIPOS>ATOM
      1 C2          3.0400    2.4780   58.1060 C.ar      1 14W902      0.0000 
      2 C3          4.4170    2.2610   58.2130 C.ar      1 14W902      0.0000 
      3 C4          4.8600    1.1620   58.9560 C.ar      1 14W902      0.0000 
      4 C5          3.9460    0.3050   59.5710 C.ar      1 14W902      0.0000 
      5 C6          2.5750    0.5380   59.4460 C.ar      1 14W902      0.0000 
      6 C1          2.1060    1.6320   58.7120 C.ar      1 14W902      0.0000 
      7 C7          0.6310    1.9270   58.5910 C.3       1 14W902      0.0000 
      8 N8         -0.0690    0.6740   58.4250 N.pl3     1 14W902      0.0000 
      9 C9         -1.2960    0.3970   58.9010 C.2       1 14W902      0.0000 
     10 C10        -1.7710    1.0950   60.1360 C.3       1 14W902      0.0000 
     11 N11        -2.0630   -0.4460   58.3120 N.pl3     1 14W902      0.0000 
     12 C12         5.3850    3.1980   57.5350 C.3       1 14W902      0.0000 
     13 N13         4.6960    4.0320   56.5820 N.4       1 14W902      0.0000 
     14 H           2.6995    3.2944   57.5584 H         1 14W902      0.0000 
     15 H           5.8706    0.9845   59.0495 H         1 14W902      0.0000 
     16 H           4.2820   -0.4979   60.1161 H         1 14W902      0.0000 
     17 H           1.9042   -0.0992   59.8968 H         1 14W902      0.0000 
     18 H           0.4761    2.5822   57.7341 H         1 14W902      0.0000 
     19 H           0.3045    2.4452   59.4924 H         1 14W902      0.0000 
     20 H           0.4640   -0.0674   57.8739 H         1 14W902      0.0000 
     21 H          -2.9703   -0.5707   58.7136 H         1 14W902      0.0000 
     22 H          -1.6818   -0.8996   57.5064 H         1 14W902      0.0000 
     23 H           6.1630    2.5965   57.0435 H         1 14W902      0.0000 
     24 H           5.8781    3.8054   58.3074 H         1 14W902      0.0000 
     25 H          -1.1779    0.9087   60.9193 H         1 14W902      0.0000 
     26 H          -1.7947    2.0875   60.0158 H         1 14W902      0.0000 
     27 H          -2.6941    0.8087   60.3927 H         1 14W902      0.0000 
     28 H           5.3208    4.6599   56.1180 H         1 14W902      0.0000 
     29 H           4.2444    3.4906   55.8729 H         1 14W902      0.0000 
     30 H           3.9904    4.5900   57.0187 H         1 14W902      0.0000 
@<TRIPOS>BOND
     1    2    1 ar   
     2    6    1 ar   
     3   14    1 1    
     4    3    2 ar   
     5   12    2 1    
     6    4    3 ar   
     7   15    3 1    
     8    5    4 ar   
     9   16    4 1    
    10    6    5 ar   
    11   17    5 1    
    12    7    6 1    
    13    8    7 1    
    14   18    7 1    
    15   19    7 1    
    16    9    8 1    
    17   20    8 1    
    18   10    9 1    
    19   11    9 2    
    20   25   10 1    
    21   26   10 1    
    22   27   10 1    
    23   21   11 1    
    24   22   11 1    
    25   13   12 1    
    26   23   12 1    
    27   24   12 1    
    28   28   13 1    
    29   29   13 1    
    30   30   13 1    
@<TRIPOS>SUBSTRUCTURE
     1 14W902      1 GROUP   
@<TRIPOS>SET

