#    Name: 1o6h_W37_1_INTS_M
#    Modification time : Mon Mar 24 19:37:52 2014

@<TRIPOS>MOLECULE
1o6h_W37_1_INTS_M
   64     0     3     0     0
SMALL
NO_CHARGES


@<TRIPOS>ATOM
      1 CA         65.3325   69.5210   58.4730 C.3       1 GLC5        0.0000 
      2 CA         63.4410   69.1800   58.4770 C.3       3 GLL5        0.0000 
      3 CA         67.2240   69.8620   58.4690 C.3       2 GLP5        0.0000 
      4 CA         61.9305   71.4570   57.5315 C.3       1 GLC5        0.0000 
      5 CA         62.3480   69.9280   58.7130 C.3       3 GLL5        0.0000 
      6 CA         61.5130   72.9860   56.3500 C.3       2 GLP5        0.0000 
      7 CA         60.5240   68.8750   58.8140 C.3       1 GLC5        0.0000 
      8 CA         61.8000   70.1160   60.1100 C.3       3 GLL5        0.0000 
      9 CA         59.2480   67.6340   57.5180 C.3       2 GLP5        0.0000 
     10 CA         60.7215   68.9900   61.0795 C.3       1 GLC5        0.0000 
     11 CA         59.6430   67.8640   62.0490 C.3       2 GLP5        0.0000 
     12 CA         65.3635   71.0420   61.5780 C.3       1 GLC5        0.0000 
     13 CA         63.4980   70.8530   61.6670 C.3       3 GLL5        0.0000 
     14 CA         67.2290   71.2310   61.4890 C.3       2 GLP5        0.0000 
     15 CA         61.6480   68.6270   63.0190 C.3       1 GLC5        0.0000 
     16 CA         63.0880   69.9340   62.8220 C.3       3 GLL5        0.0000 
     17 CA         60.2080   67.3200   63.2160 C.3       2 GLP5        0.0000 
     18 CA         65.6980   71.0745   63.2595 C.3       1 GLC5        0.0000 
     19 CA         64.1370   70.0940   63.9100 C.3       3 GLL5        0.0000 
     20 CA         67.2590   72.0550   62.6090 C.3       2 GLP5        0.0000 
     21 CA         62.1625   68.6945   67.4750 C.3       1 GLC5        0.0000 
     22 CA         63.6670   69.3460   66.2610 C.3       3 GLL5        0.0000 
     23 CA         60.6580   68.0430   68.6890 C.3       2 GLP5        0.0000 
     24 CA         63.7845   71.5715   69.2810 C.3       1 GLC5        0.0000 
     25 CA         65.6580   71.0550   68.8950 C.3       3 GLL5        0.0000 
     26 CA         61.9110   72.0880   69.6670 C.3       2 GLP5        0.0000 
     27 CA         68.0775   76.6370   74.3010 C.3       1 GLC5        0.0000 
     28 CA         69.0740   75.5540   73.0480 C.3       3 GLL5        0.0000 
     29 CA         67.0810   77.7200   75.5540 C.3       2 GLP5        0.0000 
     30 CA         67.2540   73.5115   73.9800 C.3       1 GLC5        0.0000 
     31 CA         68.4840   74.3020   72.7280 C.3       3 GLL5        0.0000 
     32 CA         66.0240   72.7210   75.2320 C.3       2 GLP5        0.0000 
     33 CA         71.2885   76.0840   74.7580 C.3       1 GLC5        0.0000 
     34 CA         71.2410   77.3940   73.1700 C.3       3 GLL5        0.0000 
     35 CA         71.3360   74.7740   76.3460 C.3       2 GLP5        0.0000 
     36 CA         70.2870   78.5925   72.0435 C.3       1 GLC5        0.0000 
     37 CA         69.3330   79.7910   70.9170 C.3       2 GLP5        0.0000 
     38 CA         72.0215   78.0110   74.9095 C.3       1 GLC5        0.0000 
     39 CA         72.8020   78.6280   76.6490 C.3       2 GLP5        0.0000 
     40 CA         72.2910   78.3630   71.8565 C.3       1 GLC5        0.0000 
     41 CA         73.3410   79.3320   70.5430 C.3       2 GLP5        0.0000 
     42 CA         60.0930   70.4750   61.8715 C.3       1 GLC5        0.0000 
     43 CA         61.3480   71.9690   61.6110 C.3       3 GLL5        0.0000 
     44 CA         58.8380   68.9810   62.1320 C.3       2 GLP5        0.0000 
     45 CA         62.1093   68.5985   57.3930 C.3       1 GLC5        0.0000 
     46 CA         61.3240   67.6430   56.1910 C.3       2 GLP5        0.0000 
     47 CA         61.7525   68.9002   65.0900 C.3       1 GLC5        0.0000 
     48 CA         63.4330   70.4590   65.2150 C.3       3 GLL5        0.0000 
     49 CA         59.9550   67.8980   64.4420 C.3       2 GLP5        0.0000 
     50 CA         65.1525   67.7908   65.7050 C.3       1 GLC5        0.0000 
     51 CA         66.0110   66.0730   64.7370 C.3       2 GLP5        0.0000 
     52 CA         66.2113   74.3760   69.3762 C.3       1 GLC5        0.0000 
     53 CA         67.0840   72.7270   70.0140 C.3       3 GLL5        0.0000 
     54 CA         65.8400   76.1900   69.2110 C.3       2 GLP5        0.0000 
     55 CA         64.9742   73.4235   70.4423 C.3       1 GLC5        0.0000 
     56 CA         63.3660   74.2850   71.3430 C.3       2 GLP5        0.0000 
     57 CA         66.7777   71.9155   72.3195 C.3       1 GLC5        0.0000 
     58 CA         66.1730   71.6110   74.2290 C.3       2 GLP5        0.0000 
     59 CA         67.5780   72.1200   73.0817 C.3       1 GLC5        0.0000 
     60 CA         68.6990   71.9680   71.7750 C.3       3 GLL5        0.0000 
     61 CA         66.9820   70.7529   72.7455 C.3       1 GLC5        0.0000 
     62 CA         67.2490   70.3360   70.6330 C.3       3 GLL5        0.0000 
     63 CA         68.9253   77.4545   72.2400 C.3       1 GLC5        0.0000 
     64 CA         68.0940   79.2390   71.5890 C.3       2 GLP5        0.0000 
@<TRIPOS>BOND
@<TRIPOS>SUBSTRUCTURE
     1 GLC5        1 GROUP        1 X    GLC  0     ROOT GLC X 6
     2 GLP5        3 GROUP        1 Y    GLP  0     ROOT GLP Y 13
     3 GLL5        2 GROUP        1 Z    GLL  0     ROOT GLL Z 20
@<TRIPOS>SET

