#    Name: 1o6h_W37_1_ligand
#    Modification time : Mon Mar 24 19:37:53 2014

@<TRIPOS>MOLECULE
1o6h_W37_1_ligand
   57    59     1     0     0
SMALL
NO_CHARGES


@<TRIPOS>ATOM
      1 C3A        63.4410   69.1800   58.4770 C.2       1 W37800      0.0000 
      2 C2A        62.3480   69.9280   58.7130 C.2       1 W37800      0.0000 
      3 C1A        61.8000   70.1160   60.1100 C.3       1 W37800      0.0000 
      4 N1         62.3770   71.2880   60.8040 N.4       1 W37800      0.0000 
      5 C1B        63.4980   70.8530   61.6670 C.3       1 W37800      0.0000 
      6 C2B        63.0880   69.9340   62.8220 C.3       1 W37800      0.0000 
      7 C3B        64.1370   70.0940   63.9100 C.3       1 W37800      0.0000 
      8 C4B        63.4330   70.4590   65.2150 C.3       1 W37800      0.0000 
      9 C5B        63.6670   69.3460   66.2610 C.3       1 W37800      0.0000 
     10 C6B        64.9210   69.6710   67.0850 C.3       1 W37800      0.0000 
     11 O          64.6670   70.7820   67.9520 O.3       1 W37800      0.0000 
     12 C3C        68.8360   69.6140   72.3640 C.ar      1 W37800      0.0000 
     13 C6C        65.6580   71.0550   68.8950 C.ar      1 W37800      0.0000 
     14 C4C        67.8300   69.2930   71.4180 C.ar      1 W37800      0.0000 
     15 C7C        66.0810   72.3970   69.0690 C.ar      1 W37800      0.0000 
     16 C8C        67.0840   72.7270   70.0140 C.ar      1 W37800      0.0000 
     17 N2C        69.2380   70.9190   72.5150 N.ar      1 W37800      0.0000 
     18 C1C        68.6990   71.9680   71.7750 C.ar      1 W37800      0.0000 
     19 C8P        67.6810   71.7130   70.8060 C.ar      1 W37800      0.0000 
     20 C4P        67.2490   70.3360   70.6330 C.ar      1 W37800      0.0000 
     21 C5C        66.2460   70.0260   69.6840 C.ar      1 W37800      0.0000 
     22 C1D        69.2670   73.2900   72.0940 C.ar      1 W37800      0.0000 
     23 C2D        70.6190   73.5370   71.7800 C.ar      1 W37800      0.0000 
     24 C3D        71.1990   74.7780   72.0990 C.ar      1 W37800      0.0000 
     25 C4D        70.4390   75.7860   72.7340 C.ar      1 W37800      0.0000 
     26 C5D        69.0740   75.5540   73.0480 C.ar      1 W37800      0.0000 
     27 C6D        68.4840   74.3020   72.7280 C.ar      1 W37800      0.0000 
     28 BR29       71.2410   77.3940   73.1700 Br        1 W37800      0.0000 
     29 C1E        61.3480   71.9690   61.6110 C.3       1 W37800      0.0000 
     30 H          61.8211   70.4135   57.9724 H         1 W37800      0.0000 
     31 H          61.9979   69.1982   60.6929 H         1 W37800      0.0000 
     32 H          60.7015   70.2189   60.0470 H         1 W37800      0.0000 
     33 H          62.7610   71.9823   60.0583 H         1 W37800      0.0000 
     34 H          64.0109   71.7370   62.0981 H         1 W37800      0.0000 
     35 H          64.2604   70.3222   61.0609 H         1 W37800      0.0000 
     36 H          63.0705   68.9172   62.4790 H         1 W37800      0.0000 
     37 H          62.1278   70.2363   63.1939 H         1 W37800      0.0000 
     38 H          64.8230   70.8837   63.6401 H         1 W37800      0.0000 
     39 H          64.6713   69.1640   64.0392 H         1 W37800      0.0000 
     40 H          62.3699   70.5585   65.0399 H         1 W37800      0.0000 
     41 H          63.8327   71.3893   65.5966 H         1 W37800      0.0000 
     42 H          63.8059   68.4042   65.7497 H         1 W37800      0.0000 
     43 H          62.8095   69.2910   66.9163 H         1 W37800      0.0000 
     44 H          65.7347   69.8825   66.3810 H         1 W37800      0.0000 
     45 H          65.1907   68.7695   67.6480 H         1 W37800      0.0000 
     46 H          69.2495   68.8614   72.9235 H         1 W37800      0.0000 
     47 H          67.5229   68.3358   71.2961 H         1 W37800      0.0000 
     48 H          65.6550   73.1388   68.5030 H         1 W37800      0.0000 
     49 H          67.3785   73.6982   70.1257 H         1 W37800      0.0000 
     50 H          65.9395   69.0593   69.5615 H         1 W37800      0.0000 
     51 H          71.1763   72.8136   71.3207 H         1 W37800      0.0000 
     52 H          72.1834   74.9560   71.8696 H         1 W37800      0.0000 
     53 H          68.5227   76.2780   73.4984 H         1 W37800      0.0000 
     54 H          67.5087   74.1240   72.9481 H         1 W37800      0.0000 
     55 H          61.7181   72.7654   62.0893 H         1 W37800      0.0000 
     56 H          60.5880   72.2926   61.0474 H         1 W37800      0.0000 
     57 H          60.9603   71.3636   62.3061 H         1 W37800      0.0000 
@<TRIPOS>BOND
     1    2    1 2    
     2    3    2 1    
     3   30    2 1    
     4    4    3 1    
     5   31    3 1    
     6   32    3 1    
     7    5    4 1    
     8   29    4 1    
     9   33    4 1    
    10    6    5 1    
    11   34    5 1    
    12   35    5 1    
    13    7    6 1    
    14   36    6 1    
    15   37    6 1    
    16    8    7 1    
    17   38    7 1    
    18   39    7 1    
    19    9    8 1    
    20   40    8 1    
    21   41    8 1    
    22   10    9 1    
    23   42    9 1    
    24   43    9 1    
    25   11   10 1    
    26   44   10 1    
    27   45   10 1    
    28   13   11 1    
    29   14   12 ar   
    30   17   12 ar   
    31   46   12 1    
    32   15   13 ar   
    33   21   13 ar   
    34   20   14 ar   
    35   47   14 1    
    36   16   15 ar   
    37   48   15 1    
    38   19   16 ar   
    39   49   16 1    
    40   18   17 ar   
    41   19   18 ar   
    42   22   18 1    
    43   20   19 ar   
    44   21   20 ar   
    45   50   21 1    
    46   23   22 ar   
    47   27   22 ar   
    48   24   23 ar   
    49   51   23 1    
    50   25   24 ar   
    51   52   24 1    
    52   26   25 ar   
    53   28   25 1    
    54   27   26 ar   
    55   53   26 1    
    56   54   27 1    
    57   55   29 1    
    58   56   29 1    
    59   57   29 1    
@<TRIPOS>SUBSTRUCTURE
     1 W37800      1 GROUP   
@<TRIPOS>SET

