#    Name: 2D41_1_CAVITY_N1_6.mol2
#    Modification time : Tue Mar 11 08:14:07 2014

@<TRIPOS>MOLECULE
2D41_1_CAVITY_N1_6.mol2
   60     0     5     0     0
SMALL
NO_CHARGES


@<TRIPOS>ATOM
      1 CA          4.5285   41.9764   76.1873 C.3       4 GLY6        0.0000 
      2 CZ          8.9157   38.1450   74.7474 C.ar      3 PHE5        0.0000 
      3 CZ         10.0125   37.1871   74.3875 C.ar      3 PHE5        0.0000 
      4 N           3.5108   41.0099   75.6582 N.2       1 ALA2        0.0000 
      5 N           4.6076   40.0520   75.2982 N.2       1 ALA2        0.0000 
      6 CA          5.7043   39.0941   74.9382 C.3       4 GLY6        0.0000 
      7 CA          6.8011   38.1363   74.5783 C.3       4 GLY6        0.0000 
      8 DU          7.8979   37.1784   74.2183 H         5 CUB7        0.0000 
      9 CA          8.9947   36.2206   73.8583 C.3       4 GLY6        0.0000 
     10 CA         10.0915   35.2627   73.4984 C.3       4 GLY6        0.0000 
     11 N           2.4930   40.0433   75.1290 N.2       1 ALA2        0.0000 
     12 CA          3.5898   39.0855   74.7691 C.3       4 GLY6        0.0000 
     13 CA          4.6866   38.1276   74.4091 C.3       4 GLY6        0.0000 
     14 CA          5.7834   37.1698   74.0491 C.3       4 GLY6        0.0000 
     15 DU          6.8801   36.2119   73.6892 H         5 CUB7        0.0000 
     16 CA          7.9769   35.2540   73.3292 C.3       4 GLY6        0.0000 
     17 CA          9.0737   34.2962   72.9693 C.3       4 GLY6        0.0000 
     18 CZ          5.8624   35.2454   73.1600 C.ar      3 PHE5        0.0000 
     19 CZ          6.9592   34.2875   72.8001 C.ar      3 PHE5        0.0000 
     20 CA          8.0560   33.3296   72.4401 C.3       4 GLY6        0.0000 
     21 CZ          5.9414   33.3210   72.2710 C.ar      3 PHE5        0.0000 
     22 CA          5.5194   40.3874   77.1840 C.3       4 GLY6        0.0000 
     23 N           6.6162   39.4295   76.8240 N.2       1 ALA2        0.0000 
     24 N           8.8097   37.5138   76.1041 N.2       1 ALA2        0.0000 
     25 O           9.9065   36.5560   75.7441 O.2       1 ALA2        0.0000 
     26 CA          3.4048   40.3787   77.0148 C.3       4 GLY6        0.0000 
     27 CA          4.5016   39.4209   76.6548 C.3       4 GLY6        0.0000 
     28 N           5.5984   38.4630   76.2949 N.2       1 ALA2        0.0000 
     29 N           6.6952   37.5051   75.9349 N.2       1 ALA2        0.0000 
     30 O           7.7920   36.5473   75.5749 O.2       1 ALA2        0.0000 
     31 O           8.8887   35.5894   75.2150 O.2       1 ALA2        0.0000 
     32 CA          9.9855   34.6316   74.8550 C.3       4 GLY6        0.0000 
     33 CA          2.3871   39.4122   76.4857 C.3       4 GLY6        0.0000 
     34 CA          3.4839   38.4543   76.1257 C.3       4 GLY6        0.0000 
     35 CA          4.5806   37.4965   75.7657 C.3       4 GLY6        0.0000 
     36 CA          5.6774   36.5386   75.4058 C.3       4 GLY6        0.0000 
     37 DU          6.7742   35.5808   75.0458 H         5 CUB7        0.0000 
     38 DU          7.8710   34.6229   74.6858 H         5 CUB7        0.0000 
     39 N           7.6070   37.8405   77.8207 N.2       1 ALA2        0.0000 
     40 CA          3.2989   39.7476   78.3714 C.3       4 GLY6        0.0000 
     41 CA          4.3957   38.7897   78.0115 C.3       4 GLY6        0.0000 
     42 OD1         5.4925   37.8319   77.6515 O.3       2 ASP3        0.0000 
     43 DU          6.5892   36.8740   77.2915 H         5 CUB7        0.0000 
     44 DU          5.5715   35.9075   76.7624 H         5 CUB7        0.0000 
     45 DU          6.6683   34.9496   76.4024 H         5 CUB7        0.0000 
     46 CA          4.5537   34.9410   76.2333 C.3       4 GLY6        0.0000 
     47 CZ          9.0216   38.7761   73.3908 C.ar      3 PHE5        0.0000 
     48 CA         10.1184   37.8182   73.0308 C.3       4 GLY6        0.0000 
     49 N           5.8103   39.7253   73.5816 N.2       1 ALA2        0.0000 
     50 CA          6.9071   38.7674   73.2216 C.3       4 GLY6        0.0000 
     51 CA          8.0039   37.8096   72.8617 C.3       4 GLY6        0.0000 
     52 CA          9.1006   36.8517   72.5017 C.3       4 GLY6        0.0000 
     53 N           5.8893   37.8009   72.6925 N.2       1 ALA2        0.0000 
     54 CZ          6.9861   36.8430   72.3325 C.ar      3 PHE5        0.0000 
     55 CZ          7.0651   34.9186   71.4435 C.ar      3 PHE5        0.0000 
     56 CA          4.6597   35.5721   74.8766 C.3       4 GLY6        0.0000 
     57 DU          5.7564   34.6142   74.5167 H         5 CUB7        0.0000 
     58 O           4.7387   33.6477   73.9875 O.2       1 ALA2        0.0000 
     59 CA          9.1276   39.4072   72.0342 C.3       4 GLY6        0.0000 
     60 CA          8.1098   38.4407   71.5050 C.3       4 GLY6        0.0000 
@<TRIPOS>BOND
@<TRIPOS>SUBSTRUCTURE
     1 ALA2        4 GROUP   
     2 ASP3       42 GROUP   
     3 PHE5        2 GROUP   
     4 GLY6        1 GROUP   
     5 CUB7        8 GROUP   
@<TRIPOS>SET

