#    Name: 2d41_SNH_1_INTS_M
#    Modification time : Tue Mar 25 09:37:57 2014

@<TRIPOS>MOLECULE
2d41_SNH_1_INTS_M
   55     0     6     0     0
SMALL
NO_CHARGES


@<TRIPOS>ATOM
      1 CA         10.5120   33.2795   74.7945 C.3       2 GLC5        0.0000 
      2 CA          8.8610   33.1760   73.5840 C.3       6 GLL5        0.0000 
      3 CA         12.1630   33.3830   76.0050 C.3       4 GLP5        0.0000 
      4 CA          8.6545   32.9485   70.1260 C.3       2 GLC5        0.0000 
      5 CA          7.5930   32.1870   71.6260 C.3       6 GLL5        0.0000 
      6 CA          9.7160   33.7100   68.6260 C.3       4 GLP5        0.0000 
      7 CA          6.8720   30.8370   70.7390 C.3       2 GLC5        0.0000 
      8 CA          6.1510   29.4870   69.8520 C.3       4 GLP5        0.0000 
      9 N           3.7630   32.8560   70.8245 N.am      1 SEC2        0.0000 
     10 N           4.6080   32.7310   71.7430 N.am      5 SEL2        0.0000 
     11 N           2.9180   32.9810   69.9060 N.am      3 SEP2        0.0000 
     12 N           3.3775   34.0595   72.9880 N.am      1 SEC2        0.0000 
     13 N           4.5800   33.8640   73.6070 N.am      5 SEL2        0.0000 
     14 N           2.1750   34.2550   72.3690 N.am      3 SEP2        0.0000 
     15 CA          4.0490   37.1765   73.9450 C.3       2 GLC5        0.0000 
     16 CA          5.8310   37.4860   74.0660 C.3       6 GLL5        0.0000 
     17 CA          2.2670   36.8670   73.8240 C.3       4 GLP5        0.0000 
     18 CA          9.8495   40.8785   70.3525 C.3       2 GLC5        0.0000 
     19 CA          9.5970   39.7140   71.5210 C.3       6 GLL5        0.0000 
     20 CA         10.1020   42.0430   69.1840 C.3       4 GLP5        0.0000 
     21 CA         11.5215   39.0850   71.0810 C.3       2 GLC5        0.0000 
     22 CA         13.4460   38.4560   70.6410 C.3       4 GLP5        0.0000 
     23 CA         10.1445   40.5320   73.0435 C.3       2 GLC5        0.0000 
     24 CA         10.6920   41.3500   74.5660 C.3       4 GLP5        0.0000 
     25 CA         10.7205   34.1700   71.2020 C.3       2 GLC5        0.0000 
     26 CA         11.8710   32.6570   72.2370 C.3       6 GLL5        0.0000 
     27 CA          9.5700   35.6830   70.1670 C.3       4 GLP5        0.0000 
     28 CA         12.0170   33.0200   74.1210 C.3       2 GLC5        0.0000 
     29 CA         14.3125   29.0475   68.9720 C.3       2 GLC5        0.0000 
     30 CA         14.8470   30.3610   70.2990 C.3       6 GLL5        0.0000 
     31 CA         13.7780   27.7340   67.6450 C.3       4 GLP5        0.0000 
     32 CA         15.7745   31.5610   69.1955 C.3       2 GLC5        0.0000 
     33 CA         16.7020   32.7610   68.0920 C.3       4 GLP5        0.0000 
     34 CA          9.2655   34.2478   71.5873 C.3       2 GLC5        0.0000 
     35 CA          9.0610   32.4490   72.4310 C.3       6 GLL5        0.0000 
     36 CA          9.7323   36.5455   71.9290 C.3       2 GLC5        0.0000 
     37 CA          9.6810   36.9320   74.1700 C.3       6 GLL5        0.0000 
     38 CA         11.2278   36.5785   72.9315 C.3       2 GLC5        0.0000 
     39 CA         10.1080   37.8840   73.2120 C.3       6 GLL5        0.0000 
     40 CA         12.5610   35.7490   72.1720 C.3       4 GLP5        0.0000 
     41 CA         11.5198   36.5000   74.5155 C.3       2 GLC5        0.0000 
     42 CA         13.1450   35.5920   75.3400 C.3       4 GLP5        0.0000 
     43 CA          8.8588   39.8637   73.9465 C.3       2 GLC5        0.0000 
     44 CA          8.0820   41.4360   75.0170 C.3       4 GLP5        0.0000 
     45 CA          7.8178   39.7470   74.1745 C.3       2 GLC5        0.0000 
     46 CA          7.7820   38.5350   72.8510 C.3       6 GLL5        0.0000 
     47 CA          9.3024   37.4243   71.1376 C.3       2 GLC5        0.0000 
     48 CA          9.1630   38.6990   72.5400 C.3       6 GLL5        0.0000 
     49 CA          9.9987   29.5258   69.9305 C.3       2 GLC5        0.0000 
     50 CA         10.4980   30.8230   71.1280 C.3       6 GLL5        0.0000 
     51 CA          8.8280   28.3620   68.9050 C.3       4 GLP5        0.0000 
     52 CA         10.4241   32.3394   69.8903 C.3       2 GLC5        0.0000 
     53 CA         11.8410   30.5560   70.7840 C.3       6 GLL5        0.0000 
     54 CA         12.2387   33.8191   71.9364 C.3       2 GLC5        0.0000 
     55 CA         10.3490   31.9400   71.9220 C.3       6 GLL5        0.0000 
@<TRIPOS>BOND
@<TRIPOS>SUBSTRUCTURE
     1 SEC2        9 GROUP        1 X    SEC  0     ROOT SEC X 2
     2 GLC5        1 GROUP        1 X    GLC  0     **** GLC X 6
     3 SEP2       11 GROUP        1 Y    SEP  0     ROOT SEP Y 9
     4 GLP5        3 GROUP        1 Y    GLP  0     **** GLP Y 13
     5 SEL2       10 GROUP        1 Z    SEL  0     ROOT SEL Z 16
     6 GLL5        2 GROUP        1 Z    GLL  0     **** GLL Z 20
@<TRIPOS>SET

