#    Name: 2d41_SNH_1_ligand
#    Modification time : Tue Mar 25 09:37:57 2014

@<TRIPOS>MOLECULE
2d41_SNH_1_ligand
   44    46     1     0     0
SMALL
NO_CHARGES


@<TRIPOS>ATOM
      1 C1          9.0610   32.4490   72.4310 C.2       1 SNH1001     0.0000 
      2 C2          8.8610   33.1760   73.5840 C.2       1 SNH1001     0.0000 
      3 C3          7.4890   33.5370   73.8300 C.2       1 SNH1001     0.0000 
      4 C4          6.6630   33.0540   72.8140 C.2       1 SNH1001     0.0000 
      5 S5          7.5930   32.1870   71.6260 S.3       1 SNH1001     0.0000 
      6 C6          5.1930   33.2310   72.7220 C.2       1 SNH1001     0.0000 
      7 O7          4.6080   32.7310   71.7430 O.co2     1 SNH1001     0.0000 
      8 O8          4.5800   33.8640   73.6070 O.co2     1 SNH1001     0.0000 
      9 N9          7.0370   34.2700   74.9450 N.pl3     1 SNH1001     0.0000 
     10 S11         7.8650   35.5180   75.7150 S.o2      1 SNH1001     0.0000 
     11 O12         7.0040   36.1520   76.6860 O.2       1 SNH1001     0.0000 
     12 O13         9.0630   34.9350   76.3010 O.2       1 SNH1001     0.0000 
     13 C14         8.3010   36.7670   74.4830 C.ar      1 SNH1001     0.0000 
     14 C15         9.6810   36.9320   74.1700 C.ar      1 SNH1001     0.0000 
     15 C16        10.1080   37.8840   73.2120 C.ar      1 SNH1001     0.0000 
     16 C17         9.1630   38.6990   72.5400 C.ar      1 SNH1001     0.0000 
     17 C18         7.7820   38.5350   72.8510 C.ar      1 SNH1001     0.0000 
     18 C19         7.3250   37.5810   73.8130 C.ar      1 SNH1001     0.0000 
     19 C20         5.8310   37.4860   74.0660 C.3       1 SNH1001     0.0000 
     20 C21         9.5970   39.7140   71.5210 C.3       1 SNH1001     0.0000 
     21 C22        10.3490   31.9400   71.9220 C.2       1 SNH1001     0.0000 
     22 C23        10.4980   30.8230   71.1280 C.2       1 SNH1001     0.0000 
     23 C24        11.8410   30.5560   70.7840 C.2       1 SNH1001     0.0000 
     24 C25        12.7230   31.4800   71.3220 C.2       1 SNH1001     0.0000 
     25 S26        11.8710   32.6570   72.2370 S.3       1 SNH1001     0.0000 
     26 C27        14.2080   31.4610   71.1380 C.2       1 SNH1001     0.0000 
     27 C28        14.8470   30.3610   70.2990 C.3       1 SNH1001     0.0000 
     28 O29        14.9220   32.3130   71.6490 O.2       1 SNH1001     0.0000 
     29 H           9.5743   33.4417   74.2071 H         1 SNH1001     0.0000 
     30 H           6.1297   34.1052   75.4069 H         1 SNH1001     0.0000 
     31 H          10.3765   36.3481   74.6498 H         1 SNH1001     0.0000 
     32 H          11.1039   37.9842   73.0037 H         1 SNH1001     0.0000 
     33 H           7.0865   39.1239   72.3665 H         1 SNH1001     0.0000 
     34 H           9.7559   30.2585   70.8232 H         1 SNH1001     0.0000 
     35 H          12.1053   29.8006   70.2279 H         1 SNH1001     0.0000 
     36 H           5.4771   36.5732   73.8621 H         1 SNH1001     0.0000 
     37 H           5.6025   37.6827   75.0195 H         1 SNH1001     0.0000 
     38 H           5.3170   38.1324   73.5021 H         1 SNH1001     0.0000 
     39 H          10.2135   40.3957   71.9150 H         1 SNH1001     0.0000 
     40 H          10.0806   39.2888   70.7559 H         1 SNH1001     0.0000 
     41 H           8.8187   40.2103   71.1363 H         1 SNH1001     0.0000 
     42 H          15.8414   30.4576   70.2552 H         1 SNH1001     0.0000 
     43 H          14.6569   29.4524   70.6709 H         1 SNH1001     0.0000 
     44 H          14.5100   30.3688   69.3575 H         1 SNH1001     0.0000 
@<TRIPOS>BOND
     1    2    1 2    
     2    5    1 1    
     3   21    1 1    
     4    3    2 1    
     5   29    2 1    
     6    4    3 2    
     7    9    3 1    
     8    5    4 1    
     9    6    4 1    
    10    7    6 ar   
    11    8    6 ar   
    12   10    9 1    
    13   30    9 1    
    14   11   10 2    
    15   12   10 2    
    16   13   10 1    
    17   14   13 ar   
    18   18   13 ar   
    19   15   14 ar   
    20   31   14 1    
    21   16   15 ar   
    22   32   15 1    
    23   17   16 ar   
    24   20   16 1    
    25   18   17 ar   
    26   33   17 1    
    27   19   18 1    
    28   36   19 1    
    29   37   19 1    
    30   38   19 1    
    31   39   20 1    
    32   40   20 1    
    33   41   20 1    
    34   22   21 2    
    35   25   21 1    
    36   23   22 1    
    37   34   22 1    
    38   24   23 2    
    39   35   23 1    
    40   25   24 1    
    41   26   24 1    
    42   27   26 1    
    43   28   26 2    
    44   42   27 1    
    45   43   27 1    
    46   44   27 1    
@<TRIPOS>SUBSTRUCTURE
     1 SNH1001     1 GROUP   
@<TRIPOS>SET

