#    Name: 3uxy_NAD_1_INTS_M
#    Modification time : Mon Mar 24 23:43:34 2014

@<TRIPOS>MOLECULE
3uxy_NAD_1_INTS_M
  108     0     9     0     0
SMALL
NO_CHARGES


@<TRIPOS>ATOM
      1 N         -15.8700   48.9535   62.2955 N.am      2 SEC2        0.0000 
      2 N         -16.5630   47.5930   62.4630 N.am      8 SEL2        0.0000 
      3 N         -15.1770   50.3140   62.1280 N.am      5 SEP2        0.0000 
      4 CA        -15.5890   47.9800   59.5300 C.3       3 GLC5        0.0000 
      5 CA        -14.8900   45.9770   59.0840 C.3       9 GLL5        0.0000 
      6 CA        -16.2880   49.9830   59.9760 C.3       6 GLP5        0.0000 
      7 CA        -13.8870   45.4455   56.5265 C.3       3 GLC5        0.0000 
      8 CA        -15.5000   46.1260   57.6910 C.3       9 GLL5        0.0000 
      9 CA        -12.2740   44.7650   55.3620 C.3       6 GLP5        0.0000 
     10 N         -14.2230   43.9700   56.7555 N.am      2 SEC2        0.0000 
     11 N         -15.4240   45.0080   56.7520 N.am      8 SEL2        0.0000 
     12 N         -13.0220   42.9320   56.7590 N.am      5 SEP2        0.0000 
     13 CA        -16.6645   48.2675   58.8010 C.3       3 GLC5        0.0000 
     14 CA        -17.0410   46.5520   57.6260 C.3       9 GLL5        0.0000 
     15 O         -17.3095   48.4620   56.3450 O.2       1 ALC1        0.0000 
     16 O         -17.4260   47.8760   57.4640 O.2       7 ALL1        0.0000 
     17 O         -17.1930   49.0480   55.2260 O.2       4 ALP1        0.0000 
     18 O         -18.4845   46.7255   54.9820 O.2       1 ALC1        0.0000 
     19 O         -18.8720   45.9290   56.0170 O.2       7 ALL1        0.0000 
     20 O         -18.0970   47.5220   53.9470 O.2       4 ALP1        0.0000 
     21 CA        -15.2035   46.6660   55.4825 C.3       3 GLC5        0.0000 
     22 CA        -16.4450   45.1820   55.8270 C.3       9 GLL5        0.0000 
     23 CA        -13.9620   48.1500   55.1380 C.3       6 GLP5        0.0000 
     24 CA        -14.6830   44.9225   54.9155 C.3       3 GLC5        0.0000 
     25 CA        -12.9210   44.6630   54.0040 C.3       6 GLP5        0.0000 
     26 CA        -16.3130   42.3695   50.7165 C.3       3 GLC5        0.0000 
     27 CA        -17.8670   42.4570   52.0610 C.3       9 GLL5        0.0000 
     28 CA        -14.7590   42.2820   49.3720 C.3       6 GLP5        0.0000 
     29 CA        -16.9030   40.7165   52.3185 C.3       3 GLC5        0.0000 
     30 CA        -15.9390   38.9760   52.5760 C.3       6 GLP5        0.0000 
     31 O         -18.9520   41.0635   50.3105 O.2       1 ALC1        0.0000 
     32 O         -18.4850   41.1850   51.7300 O.2       7 ALL1        0.0000 
     33 O         -19.4190   40.9420   48.8910 O.2       4 ALP1        0.0000 
     34 N         -17.2640   43.0805   49.7070 N.am      2 SEC2        0.0000 
     35 N         -17.5990   43.3670   51.1110 N.am      8 SEL2        0.0000 
     36 N         -16.9290   42.7940   48.3030 N.am      5 SEP2        0.0000 
     37 CA        -17.2065   46.7795   51.5135 C.3       3 GLC5        0.0000 
     38 CA        -17.0660   44.5700   51.4360 C.3       9 GLL5        0.0000 
     39 CA        -17.3470   48.9890   51.5910 C.3       6 GLP5        0.0000 
     40 CA        -18.8575   44.5925   51.2110 C.3       3 GLC5        0.0000 
     41 CA        -20.6490   44.6150   50.9860 C.3       6 GLP5        0.0000 
     42 CA        -18.1330   44.0005   49.5665 C.3       3 GLC5        0.0000 
     43 CA        -19.2000   43.4310   47.6970 C.3       6 GLP5        0.0000 
     44 CA        -15.6395   44.1255   50.5365 C.3       3 GLC5        0.0000 
     45 CA        -14.2130   43.6810   49.6370 C.3       6 GLP5        0.0000 
     46 CA        -19.0445   44.6440   52.9785 C.3       3 GLC5        0.0000 
     47 CA        -17.0560   43.9450   53.7000 C.3       9 GLL5        0.0000 
     48 CA        -21.0330   45.3430   52.2570 C.3       6 GLP5        0.0000 
     49 CA        -14.9885   44.3040   53.8520 C.3       3 GLC5        0.0000 
     50 N         -13.6745   45.8920   64.8960 N.am      2 SEC2        0.0000 
     51 N         -12.5500   45.5740   63.7390 N.am      8 SEL2        0.0000 
     52 N         -14.7990   46.2100   66.0530 N.am      5 SEP2        0.0000 
     53 N         -12.7780   49.1365   62.4180 N.am      2 SEC2        0.0000 
     54 N         -13.3680   47.7720   62.3060 N.am      8 SEL2        0.0000 
     55 N         -12.1880   50.5010   62.5300 N.am      5 SEP2        0.0000 
     56 CA         -8.4335   45.0960   60.5625 C.3       3 GLC5        0.0000 
     57 CA        -10.2680   44.9640   60.4610 C.3       9 GLL5        0.0000 
     58 CA         -6.5990   45.2280   60.6640 C.3       6 GLP5        0.0000 
     59 N          -9.2875   41.5320   59.1215 N.am      2 SEC2        0.0000 
     60 N          -9.9160   42.9650   58.9130 N.am      8 SEL2        0.0000 
     61 N          -8.6590   40.0990   59.3300 N.am      5 SEP2        0.0000 
     62 O         -10.3040   44.1785   58.2180 O.2       1 ALC1        0.0000 
     63 O          -9.9160   42.9650   58.9130 O.2       7 ALL1        0.0000 
     64 O         -10.6920   45.3920   57.5230 O.2       4 ALP1        0.0000 
     65 CA        -12.4685   41.7890   62.3425 C.3       3 GLC5        0.0000 
     66 CA        -10.9750   42.7760   61.2160 C.3       9 GLL5        0.0000 
     67 CA        -13.9620   40.8020   63.4690 C.3       6 GLP5        0.0000 
     68 N         -10.5520   40.3875   62.3775 N.am      2 SEC2        0.0000 
     69 N         -11.2300   41.3880   61.1480 N.am      8 SEL2        0.0000 
     70 N          -9.8740   39.3870   63.6070 N.am      5 SEP2        0.0000 
     71 N          -9.9445   40.7435   60.2390 N.am      2 SEC2        0.0000 
     72 O         -10.5520   40.3875   62.3775 O.2       1 ALC1        0.0000 
     73 O         -11.2300   41.3880   61.1480 O.2       7 ALL1        0.0000 
     74 O          -9.8740   39.3870   63.6070 O.2       4 ALP1        0.0000 
     75 CA         -8.1545   44.2440   61.2750 C.3       3 GLC5        0.0000 
     76 CA         -9.7100   43.2600   61.8860 C.3       9 GLL5        0.0000 
     77 CA         -9.8580   45.5640   63.9530 C.3       3 GLC5        0.0000 
     78 CA        -10.4470   43.6090   64.3020 C.3       9 GLL5        0.0000 
     79 CA         -9.2690   47.5190   63.6040 C.3       6 GLP5        0.0000 
     80 N         -10.3560   44.2280   69.0165 N.am      2 SEC2        0.0000 
     81 N         -10.7850   43.2870   68.0240 N.am      8 SEL2        0.0000 
     82 N          -9.9270   45.1690   70.0090 N.am      5 SEP2        0.0000 
     83 O         -12.4835   45.1245   68.0215 O.2       1 ALC1        0.0000 
     84 O         -12.3870   44.2220   66.6880 O.2       7 ALL1        0.0000 
     85 O         -12.5800   46.0270   69.3550 O.2       4 ALP1        0.0000 
     86 CA         -7.4250   43.8735   62.1590 C.3       3 GLC5        0.0000 
     87 CA         -8.2510   42.5190   63.6540 C.3       9 GLL5        0.0000 
     88 CA         -6.9050   43.7540   64.1720 C.3       3 GLC5        0.0000 
     89 CA         -5.5590   44.9890   64.6900 C.3       6 GLP5        0.0000 
     90 CA        -15.1163   47.2445   56.3983 C.3       3 GLC5        0.0000 
     91 CA        -19.1890   43.6090   51.8543 C.3       3 GLC5        0.0000 
     92 CA        -17.5910   42.7490   53.3840 C.3       9 GLL5        0.0000 
     93 CA        -15.8117   41.8790   53.6895 C.3       3 GLC5        0.0000 
     94 CA        -14.3000   40.4110   53.8370 C.3       6 GLP5        0.0000 
     95 CA        -10.0362   46.5117   62.0667 C.3       3 GLC5        0.0000 
     96 CA        -11.3390   46.0450   60.5980 C.3       9 GLL5        0.0000 
     97 CA        -11.8358   42.4338   59.0203 C.3       3 GLC5        0.0000 
     98 CA        -10.7200   43.5690   59.8910 C.3       9 GLL5        0.0000 
     99 CA        -12.8240   41.6950   57.4870 C.3       6 GLP5        0.0000 
    100 CA         -9.0907   44.4057   66.8233 C.3       3 GLC5        0.0000 
    101 CA        -10.3930   42.9160   65.7450 C.3       9 GLL5        0.0000 
    102 CA         -8.4470   46.2080   67.7560 C.3       6 GLP5        0.0000 
    103 CA         -7.1210   43.4517   65.8553 C.3       3 GLC5        0.0000 
    104 CA         -9.0760   42.2910   66.0360 C.3       9 GLL5        0.0000 
    105 CA         -5.6780   44.6750   66.1650 C.3       6 GLP5        0.0000 
    106 CA         -7.0853   40.7318   64.0718 C.3       3 GLC5        0.0000 
    107 CA         -8.0520   42.1660   65.0550 C.3       9 GLL5        0.0000 
    108 CA         -6.0190   39.1210   63.7890 C.3       6 GLP5        0.0000 
@<TRIPOS>BOND
@<TRIPOS>SUBSTRUCTURE
     1 ALC1       15 GROUP        1 X    ALC  0     ROOT ALC X 1
     2 SEC2        1 GROUP        1 X    SEC  0     **** SEC X 2
     3 GLC5        4 GROUP        1 X    GLC  0     **** GLC X 6
     4 ALP1       17 GROUP        1 Y    ALP  0     ROOT ALP Y 8
     5 SEP2        3 GROUP        1 Y    SEP  0     **** SEP Y 9
     6 GLP5        6 GROUP        1 Y    GLP  0     **** GLP Y 13
     7 ALL1       16 GROUP        1 Z    ALL  0     ROOT ALL Z 15
     8 SEL2        2 GROUP        1 Z    SEL  0     **** SEL Z 16
     9 GLL5        5 GROUP        1 Z    GLL  0     **** GLL Z 20
@<TRIPOS>SET

