#    Name: 3uxy_NAD_1_ligand
#    Modification time : Mon Mar 24 23:43:34 2014

@<TRIPOS>MOLECULE
3uxy_NAD_1_ligand
   70    74     1     0     0
SMALL
NO_CHARGES


@<TRIPOS>ATOM
      1 PA        -16.0350   46.3500   61.5000 P.3       1 NAD245      0.0000 
      2 O1A       -16.5630   47.5930   62.4630 O.co2     1 NAD245      0.0000 
      3 O2A       -17.1020   45.4410   61.1160 O.co2     1 NAD245      0.0000 
      4 O5B       -15.3680   46.8970   60.0590 O.3       1 NAD245      0.0000 
      5 C5B       -14.8900   45.9770   59.0840 C.3       1 NAD245      0.0000 
      6 C4B       -15.5000   46.1260   57.6910 C.3       1 NAD245      0.0000 
      7 O4B       -15.4240   45.0080   56.7520 O.3       1 NAD245      0.0000 
      8 C3B       -17.0410   46.5520   57.6260 C.3       1 NAD245      0.0000 
      9 O3B       -17.4260   47.8760   57.4640 O.3       1 NAD245      0.0000 
     10 C2B       -17.6540   45.5650   56.6280 C.3       1 NAD245      0.0000 
     11 O2B       -18.8720   45.9290   56.0170 O.3       1 NAD245      0.0000 
     12 C1B       -16.4450   45.1820   55.8270 C.3       1 NAD245      0.0000 
     13 N9A       -16.8630   43.9730   55.1320 N.pl3     1 NAD245      0.0000 
     14 C8A       -17.2990   42.8260   55.6380 C.2       1 NAD245      0.0000 
     15 N7A       -17.7630   42.0190   54.5580 N.2       1 NAD245      0.0000 
     16 C5A       -17.5910   42.7490   53.3840 C.ar      1 NAD245      0.0000 
     17 C6A       -17.8670   42.4570   52.0610 C.ar      1 NAD245      0.0000 
     18 N6A       -18.4850   41.1850   51.7300 N.pl3     1 NAD245      0.0000 
     19 N1A       -17.5990   43.3670   51.1110 N.ar      1 NAD245      0.0000 
     20 C2A       -17.0660   44.5700   51.4360 C.ar      1 NAD245      0.0000 
     21 N3A       -16.7840   44.8720   52.7460 N.ar      1 NAD245      0.0000 
     22 C4A       -17.0560   43.9450   53.7000 C.ar      1 NAD245      0.0000 
     23 O3        -14.8830   45.5120   62.3710 O.3       1 NAD245      0.0000 
     24 PN        -13.3320   46.1120   62.3910 P.3       1 NAD245      0.0000 
     25 O1N       -12.5500   45.5740   63.7390 O.co2     1 NAD245      0.0000 
     26 O2N       -13.3680   47.7720   62.3060 O.co2     1 NAD245      0.0000 
     27 O5D       -12.5860   45.5180   61.0190 O.3       1 NAD245      0.0000 
     28 C5D       -11.3390   46.0450   60.5980 C.3       1 NAD245      0.0000 
     29 C4D       -10.2680   44.9640   60.4610 C.3       1 NAD245      0.0000 
     30 O4D        -9.5940   44.6270   61.6740 O.3       1 NAD245      0.0000 
     31 C3D       -10.7200   43.5690   59.8910 C.3       1 NAD245      0.0000 
     32 O3D        -9.9160   42.9650   58.9130 O.3       1 NAD245      0.0000 
     33 C2D       -10.9750   42.7760   61.2160 C.3       1 NAD245      0.0000 
     34 O2D       -11.2300   41.3880   61.1480 O.3       1 NAD245      0.0000 
     35 C1D        -9.7100   43.2600   61.8860 C.3       1 NAD245      0.0000 
     36 N1N        -9.6290   42.9530   63.3090 N.pl3     1 NAD245      0.0000 
     37 C2N       -10.4470   43.6090   64.3020 C.ar      1 NAD245      0.0000 
     38 C3N       -10.3930   42.9160   65.7450 C.ar      1 NAD245      0.0000 
     39 C7N       -11.1030   43.5910   66.9170 C.2       1 NAD245      0.0000 
     40 O7N       -10.7850   43.2870   68.0240 O.2       1 NAD245      0.0000 
     41 N7N       -12.3870   44.2220   66.6880 N.am      1 NAD245      0.0000 
     42 C4N        -9.0760   42.2910   66.0360 C.ar      1 NAD245      0.0000 
     43 C5N        -8.0520   42.1660   65.0550 C.ar      1 NAD245      0.0000 
     44 C6N        -8.2510   42.5190   63.6540 C.ar      1 NAD245      0.0000 
     45 H         -15.0645   44.9184   59.4071 H         1 NAD245      0.0000 
     46 H         -13.7785   46.0546   58.9655 H         1 NAD245      0.0000 
     47 H         -14.9891   47.0074   57.1756 H         1 NAD245      0.0000 
     48 H         -17.4366   46.1384   58.6393 H         1 NAD245      0.0000 
     49 H         -17.8195   44.6326   57.3072 H         1 NAD245      0.0000 
     50 H         -16.2676   45.9726   55.1355 H         1 NAD245      0.0000 
     51 H         -17.3224   42.5393   56.5464 H         1 NAD245      0.0000 
     52 H         -19.0785   41.1804   50.9252 H         1 NAD245      0.0000 
     53 H         -18.2659   40.4189   52.3342 H         1 NAD245      0.0000 
     54 H         -16.8668   45.2726   50.6968 H         1 NAD245      0.0000 
     55 H         -10.9534   46.8029   61.3089 H         1 NAD245      0.0000 
     56 H         -11.4198   46.5552   59.6174 H         1 NAD245      0.0000 
     57 H          -9.4957   45.3213   59.7328 H         1 NAD245      0.0000 
     58 H         -11.7678   43.7801   59.5184 H         1 NAD245      0.0000 
     59 H         -11.7825   43.3672   61.7032 H         1 NAD245      0.0000 
     60 H          -8.8682   42.7427   61.3690 H         1 NAD245      0.0000 
     61 H         -10.9861   44.3712   64.1905 H         1 NAD245      0.0000 
     62 H         -12.7182   44.2159   65.7445 H         1 NAD245      0.0000 
     63 H         -12.8357   44.6113   67.4924 H         1 NAD245      0.0000 
     64 H          -8.9242   41.9437   66.9901 H         1 NAD245      0.0000 
     65 H          -7.1230   41.8114   65.3330 H         1 NAD245      0.0000 
     66 H          -7.5510   42.4782   62.9930 H         1 NAD245      0.0000 
     67 H         -16.8549   48.2223   56.7198 H         1 NAD245      0.0000 
     68 H         -18.6095   46.4803   55.2251 H         1 NAD245      0.0000 
     69 H          -9.5035   43.7254   58.4115 H         1 NAD245      0.0000 
     70 H         -10.7869   41.0036   61.9579 H         1 NAD245      0.0000 
@<TRIPOS>BOND
     1    2    1 ar   
     2    3    1 ar   
     3    4    1 1    
     4   23    1 1    
     5    5    4 1    
     6    6    5 1    
     7   45    5 1    
     8   46    5 1    
     9    7    6 1    
    10    8    6 1    
    11   47    6 1    
    12   12    7 1    
    13    9    8 1    
    14   10    8 1    
    15   48    8 1    
    16   67    9 1    
    17   11   10 1    
    18   12   10 1    
    19   49   10 1    
    20   68   11 1    
    21   13   12 1    
    22   50   12 1    
    23   14   13 1    
    24   22   13 1    
    25   15   14 2    
    26   51   14 1    
    27   16   15 1    
    28   17   16 ar   
    29   22   16 ar   
    30   18   17 1    
    31   19   17 ar   
    32   52   18 1    
    33   53   18 1    
    34   20   19 ar   
    35   21   20 ar   
    36   54   20 1    
    37   22   21 ar   
    38   24   23 1    
    39   25   24 ar   
    40   26   24 ar   
    41   27   24 1    
    42   28   27 1    
    43   29   28 1    
    44   55   28 1    
    45   56   28 1    
    46   30   29 1    
    47   31   29 1    
    48   57   29 1    
    49   35   30 1    
    50   32   31 1    
    51   33   31 1    
    52   58   31 1    
    53   69   32 1    
    54   34   33 1    
    55   35   33 1    
    56   59   33 1    
    57   70   34 1    
    58   36   35 1    
    59   60   35 1    
    60   37   36 ar   
    61   44   36 ar   
    62   38   37 ar   
    63   61   37 1    
    64   39   38 1    
    65   42   38 ar   
    66   40   39 2    
    67   41   39 am   
    68   62   41 1    
    69   63   41 1    
    70   43   42 ar   
    71   64   42 1    
    72   44   43 ar   
    73   65   43 1    
    74   66   44 1    
@<TRIPOS>SUBSTRUCTURE
     1 NAD245      1 GROUP   
@<TRIPOS>SET

