#    Name: 2FVC_1_CAVITY_N1_ALL.mol2
#    Modification time : Mon Mar 10 13:22:48 2014

@<TRIPOS>MOLECULE
2FVC_1_CAVITY_N1_ALL.mol2
  108     0     5     0     0
SMALL
NO_CHARGES


@<TRIPOS>ATOM
      1 CA          7.7876   43.2203   50.0744 C.3       4 GLY6        0.0000 
      2 N           8.6459   41.9913   50.1270 N.2       2 ALA2        0.0000 
      3 N           8.6866   42.1103   52.2446 N.2       2 ALA2        0.0000 
      4 N           9.5450   40.8813   52.2971 N.2       2 ALA2        0.0000 
      5 CZ          6.0799   43.9036   51.1314 C.ar      3 PHE5        0.0000 
      6 CA          6.9383   42.6746   51.1839 C.3       4 GLY6        0.0000 
      7 CA         13.9764   47.7540   55.0135 C.3       4 GLY6        0.0000 
      8 CA         14.8347   46.5250   55.0660 C.3       4 GLY6        0.0000 
      9 N          13.0864   47.0893   54.0054 N.2       2 ALA2        0.0000 
     10 N          13.9448   45.8603   54.0579 N.2       2 ALA2        0.0000 
     11 N          14.8032   44.6314   54.1105 N.2       2 ALA2        0.0000 
     12 O          15.6616   43.4024   54.1631 O.2       2 ALA2        0.0000 
     13 O          16.5199   42.1734   54.2156 O.2       2 ALA2        0.0000 
     14 N          11.3381   47.6537   52.9447 N.2       2 ALA2        0.0000 
     15 N          12.1965   46.4247   52.9973 N.2       2 ALA2        0.0000 
     16 DU         13.0549   45.1957   53.0499 H         5 CUB7        0.0000 
     17 N          13.9133   43.9667   53.1024 N.2       2 ALA2        0.0000 
     18 N          14.7716   42.7377   53.1550 N.2       2 ALA2        0.0000 
     19 O          15.6300   41.5087   53.2075 O.2       2 ALA2        0.0000 
     20 O          10.4482   46.9890   51.9367 O.2       2 ALA2        0.0000 
     21 DU         11.3066   45.7600   51.9892 H         5 CUB7        0.0000 
     22 DU         13.0233   43.3020   52.0943 H         5 CUB7        0.0000 
     23 O          13.8817   42.0730   52.1469 O.2       2 ALA2        0.0000 
     24 O          14.7401   40.8440   52.1994 O.2       2 ALA2        0.0000 
     25 CZ          9.5583   46.3243   50.9286 C.ar      3 PHE5        0.0000 
     26 DU         10.4167   45.0953   50.9811 H         5 CUB7        0.0000 
     27 DU         12.1334   42.6373   51.0862 H         5 CUB7        0.0000 
     28 O          12.9918   41.4083   51.1388 O.2       2 ALA2        0.0000 
     29 O          13.8502   40.1794   51.1913 O.2       2 ALA2        0.0000 
     30 CZ          9.5267   44.4307   49.9730 C.ar      3 PHE5        0.0000 
     31 DU         10.3851   43.2017   50.0256 H         5 CUB7        0.0000 
     32 DU         11.2435   41.9727   50.0781 H         5 CUB7        0.0000 
     33 O          13.0051   46.8514   49.7702 O.2       2 ALA2        0.0000 
     34 DU         13.8634   45.6224   49.8228 H         5 CUB7        0.0000 
     35 O          12.1151   46.1867   48.7621 O.2       2 ALA2        0.0000 
     36 N          16.4925   47.4975   50.7294 N.2       2 ALA2        0.0000 
     37 DU         17.3509   46.2685   50.7820 H         5 CUB7        0.0000 
     38 CA         14.7442   48.0618   49.6688 C.3       4 GLY6        0.0000 
     39 N          15.6026   46.8328   49.7214 N.2       2 ALA2        0.0000 
     40 O          13.8543   47.3971   48.6607 O.2       2 ALA2        0.0000 
     41 DU         14.7127   46.1681   48.7133 H         5 CUB7        0.0000 
     42 O          12.9644   46.7324   47.6526 O.2       2 ALA2        0.0000 
     43 CA          4.3814   42.8122   53.3504 C.3       4 GLY6        0.0000 
     44 N          14.7941   46.4060   52.9484 N.2       2 ALA2        0.0000 
     45 DU         15.6524   45.1771   53.0010 H         5 CUB7        0.0000 
     46 O          16.5108   43.9481   53.0536 O.2       2 ALA2        0.0000 
     47 N          13.0457   46.9704   51.8878 N.2       2 ALA2        0.0000 
     48 N          13.9041   45.7414   51.9404 N.2       2 ALA2        0.0000 
     49 DU         14.7625   44.5124   51.9929 H         5 CUB7        0.0000 
     50 O          15.6209   43.2834   52.0455 O.2       2 ALA2        0.0000 
     51 N          12.1558   46.3057   50.8797 N.2       2 ALA2        0.0000 
     52 DU         13.0142   45.0767   50.9323 H         5 CUB7        0.0000 
     53 DU         14.7310   42.6187   51.0374 H         5 CUB7        0.0000 
     54 O          15.5893   41.3897   51.0899 O.2       2 ALA2        0.0000 
     55 O          10.4075   46.8700   49.8191 O.2       2 ALA2        0.0000 
     56 O          11.2659   45.6410   49.8716 O.2       2 ALA2        0.0000 
     57 DU         10.3760   44.9764   48.8635 H         5 CUB7        0.0000 
     58 CA         16.5332   47.6164   52.8470 C.3       4 GLY6        0.0000 
     59 CA         17.3916   46.3874   52.8996 C.3       4 GLY6        0.0000 
     60 N          15.6433   46.9517   51.8389 N.2       2 ALA2        0.0000 
     61 DU         16.5017   45.7228   51.8915 H         5 CUB7        0.0000 
     62 O          17.3601   44.4938   51.9441 O.2       2 ALA2        0.0000 
     63 N          13.8950   47.5161   50.7783 N.2       2 ALA2        0.0000 
     64 N          14.7534   46.2871   50.8309 N.2       2 ALA2        0.0000 
     65 DU         15.6118   45.0581   50.8834 H         5 CUB7        0.0000 
     66 O          16.4701   43.8291   50.9360 O.2       2 ALA2        0.0000 
     67 N          15.6840   47.0707   53.9565 N.2       2 ALA2        0.0000 
     68 CA         16.5424   45.8417   54.0091 C.3       4 GLY6        0.0000 
     69 OG          7.8689   43.4582   54.3096 O.2       1 SER1        0.0000 
     70 CA          6.1206   44.0225   53.2490 C.3       4 GLY6        0.0000 
     71 OG          6.9790   42.7935   53.3015 O.2       1 SER1        0.0000 
     72 OG          7.8374   41.5646   53.3541 O.2       1 SER1        0.0000 
     73 OG          5.2307   43.3579   52.2409 O.2       1 SER1        0.0000 
     74 CA          6.0891   42.1289   52.2934 C.3       4 GLY6        0.0000 
     75 CA          5.2714   43.4768   54.3585 C.3       4 GLY6        0.0000 
     76 CA          6.1297   42.2478   54.4110 C.3       4 GLY6        0.0000 
     77 N          12.2372   46.5436   55.1149 N.2       2 ALA2        0.0000 
     78 N          13.0956   45.3146   55.1675 N.2       2 ALA2        0.0000 
     79 CA         10.4889   47.1080   54.0542 C.3       4 GLY6        0.0000 
     80 CA         11.3473   45.8790   54.1068 C.3       4 GLY6        0.0000 
     81 N          12.2056   44.6500   54.1594 N.2       2 ALA2        0.0000 
     82 N          13.0640   43.4210   54.2119 N.2       2 ALA2        0.0000 
     83 N          13.9224   42.1920   54.2645 N.2       2 ALA2        0.0000 
     84 O          14.7808   40.9630   54.3170 O.2       2 ALA2        0.0000 
     85 CA          9.5990   46.4433   53.0462 C.3       4 GLY6        0.0000 
     86 CA         10.4573   45.2143   53.0987 C.3       4 GLY6        0.0000 
     87 DU         11.3157   43.9853   53.1513 H         5 CUB7        0.0000 
     88 N          12.1741   42.7563   53.2038 N.2       2 ALA2        0.0000 
     89 O          13.0325   41.5273   53.2564 O.2       2 ALA2        0.0000 
     90 CA          8.7090   45.7786   52.0381 C.3       4 GLY6        0.0000 
     91 CA          9.5674   44.5496   52.0906 C.3       4 GLY6        0.0000 
     92 DU         10.4258   43.3206   52.1432 H         5 CUB7        0.0000 
     93 OG         11.2842   42.0916   52.1957 O.2       1 SER1        0.0000 
     94 O          12.1425   40.8626   52.2483 O.2       2 ALA2        0.0000 
     95 CZ          8.6775   43.8850   51.0825 C.ar      3 PHE5        0.0000 
     96 N           9.5359   42.6560   51.1351 N.2       2 ALA2        0.0000 
     97 N          10.3942   41.4270   51.1876 N.2       2 ALA2        0.0000 
     98 CA         11.2526   40.1980   51.2402 C.3       4 GLY6        0.0000 
     99 N          11.3564   44.1043   55.2689 N.2       2 ALA2        0.0000 
    100 CA          9.6081   44.6686   54.2082 C.3       4 GLY6        0.0000 
    101 CZ         10.4665   43.4396   54.2608 C.ar      3 PHE5        0.0000 
    102 CZ         11.3248   42.2106   54.3133 C.ar      3 PHE5        0.0000 
    103 O          12.1832   40.9816   54.3659 O.2       2 ALA2        0.0000 
    104 CA          8.7182   44.0039   53.2001 C.3       4 GLY6        0.0000 
    105 OG          9.5765   42.7749   53.2527 O.2       1 SER1        0.0000 
    106 OG         11.2933   40.3169   53.3578 O.2       1 SER1        0.0000 
    107 CZ          6.9699   44.5682   52.1395 C.ar      3 PHE5        0.0000 
    108 DU          7.8282   43.3393   52.1920 H         5 CUB7        0.0000 
@<TRIPOS>BOND
@<TRIPOS>SUBSTRUCTURE
     1 SER1       69 GROUP   
     2 ALA2        2 GROUP   
     3 PHE5        5 GROUP   
     4 GLY6        1 GROUP   
     5 CUB7       16 GROUP   
@<TRIPOS>SET

