#    Name: 2fvc_888_1_INTS_M
#    Modification time : Tue Mar 25 13:09:05 2014

@<TRIPOS>MOLECULE
2fvc_888_1_INTS_M
   55     0     6     0     0
SMALL
NO_CHARGES


@<TRIPOS>ATOM
      1 CA          7.2070   41.9300   46.9900 C.3       2 GLC5        0.0000 
      2 CA          8.7810   42.7530   46.0700 C.3       6 GLL5        0.0000 
      3 CA          5.6330   41.1070   47.9100 C.3       4 GLP5        0.0000 
      4 CA          7.6035   40.9720   44.4760 C.3       2 GLC5        0.0000 
      5 CA          8.7180   42.6470   44.6610 C.3       6 GLL5        0.0000 
      6 CA          6.4890   39.2970   44.2910 C.3       4 GLP5        0.0000 
      7 CA          7.9440   43.7240   42.2590 C.3       2 GLC5        0.0000 
      8 CA          9.2970   43.6510   43.8480 C.3       6 GLL5        0.0000 
      9 CA          6.5910   43.7970   40.6700 C.3       4 GLP5        0.0000 
     10 CA         11.2435   46.3185   43.8560 C.3       2 GLC5        0.0000 
     11 CA          9.9400   44.7690   44.4500 C.3       6 GLL5        0.0000 
     12 CA         12.5470   47.8680   43.2620 C.3       4 GLP5        0.0000 
     13 CA         12.9750   46.9705   56.0975 C.3       2 GLC5        0.0000 
     14 CA         11.9540   45.6010   54.7130 C.3       6 GLL5        0.0000 
     15 CA         13.9960   48.3400   57.4820 C.3       4 GLP5        0.0000 
     16 N          10.8490   47.9120   50.3080 N.am      1 SEC2        0.0000 
     17 N          11.6860   46.4310   50.5940 N.am      5 SEL2        0.0000 
     18 N          10.0120   49.3930   50.0220 N.am      3 SEP2        0.0000 
     19 CA          3.6975   44.6585   54.9770 C.3       2 GLC5        0.0000 
     20 CA          4.9230   44.1220   53.6690 C.3       6 GLL5        0.0000 
     21 CA          2.4720   45.1950   56.2850 C.3       4 GLP5        0.0000 
     22 CA          3.4505   42.9640   52.7735 C.3       2 GLC5        0.0000 
     23 CA          1.9780   41.8060   51.8780 C.3       4 GLP5        0.0000 
     24 CA          5.0125   45.7410   52.1685 C.3       2 GLC5        0.0000 
     25 CA          5.1020   47.3600   50.6680 C.3       4 GLP5        0.0000 
     26 CA          3.6855   42.3195   51.7215 C.3       2 GLC5        0.0000 
     27 CA          5.3930   42.8330   51.5650 C.3       6 GLL5        0.0000 
     28 CA          5.8340   41.4750   50.4270 C.3       2 GLC5        0.0000 
     29 CA          6.2750   40.1170   49.2890 C.3       4 GLP5        0.0000 
     30 CA          4.6435   41.9295   53.3495 C.3       2 GLC5        0.0000 
     31 CA          3.8940   41.0260   55.1340 C.3       4 GLP5        0.0000 
     32 CA          6.8003   42.8900   45.2403 C.3       2 GLC5        0.0000 
     33 CA          4.8510   43.0800   45.1150 C.3       4 GLP5        0.0000 
     34 CA          8.8580   46.3620   50.1940 C.3       2 GLC5        0.0000 
     35 CA          9.9960   44.7030   50.2850 C.3       6 GLL5        0.0000 
     36 CA          7.2880   47.6560   49.7070 C.3       4 GLP5        0.0000 
     37 CA          8.8890   45.8230   53.5117 C.3       2 GLC5        0.0000 
     38 CA         10.9310   45.1330   52.5230 C.3       6 GLL5        0.0000 
     39 CA          7.2610   47.0300   54.2140 C.3       4 GLP5        0.0000 
     40 CA         10.5135   46.3950   55.1268 C.3       2 GLC5        0.0000 
     41 CA         11.8400   45.8670   53.3400 C.3       6 GLL5        0.0000 
     42 CA          9.1300   47.0560   56.2270 C.3       4 GLP5        0.0000 
     43 CA         12.4195   45.0040   56.9663 C.3       2 GLC5        0.0000 
     44 CA         13.2810   44.9100   58.9320 C.3       4 GLP5        0.0000 
     45 CA          9.7848   45.0310   55.9940 C.3       2 GLC5        0.0000 
     46 CA         11.1620   44.5950   55.2880 C.3       6 GLL5        0.0000 
     47 CA          8.8650   45.8350   57.0950 C.3       4 GLP5        0.0000 
     48 CA          8.4670   41.5585   54.7767 C.3       2 GLC5        0.0000 
     49 CA          8.3170   42.2770   52.8790 C.3       6 GLL5        0.0000 
     50 CA          9.2930   40.6600   56.3280 C.3       4 GLP5        0.0000 
     51 CA          6.0332   45.0235   51.2590 C.3       2 GLC5        0.0000 
     52 CA          6.0320   43.5710   52.7610 C.3       6 GLL5        0.0000 
     53 CA          6.3540   46.8450   50.3550 C.3       4 GLP5        0.0000 
     54 CA          4.8024   42.3195   54.2759 C.3       2 GLC5        0.0000 
     55 CA          6.4859   45.3215   53.8159 C.3       2 GLC5        0.0000 
@<TRIPOS>BOND
@<TRIPOS>SUBSTRUCTURE
     1 SEC2       16 GROUP        1 X    SEC  0     ROOT SEC X 2
     2 GLC5        1 GROUP        1 X    GLC  0     **** GLC X 6
     3 SEP2       18 GROUP        1 Y    SEP  0     ROOT SEP Y 9
     4 GLP5        3 GROUP        1 Y    GLP  0     **** GLP Y 13
     5 SEL2       17 GROUP        1 Z    SEL  0     ROOT SEL Z 16
     6 GLL5        2 GROUP        1 Z    GLL  0     **** GLL Z 20
@<TRIPOS>SET

