#    Name: 2fvc_888_1_ligand
#    Modification time : Tue Mar 25 13:09:05 2014

@<TRIPOS>MOLECULE
2fvc_888_1_ligand
   50    53     1     0     0
SMALL
NO_CHARGES


@<TRIPOS>ATOM
      1 C1          9.4220   43.8660   46.6730 C.ar      1 888901      0.0000 
      2 C2          8.7810   42.7530   46.0700 C.ar      1 888901      0.0000 
      3 C3          8.7180   42.6470   44.6610 C.ar      1 888901      0.0000 
      4 C4          9.2970   43.6510   43.8480 C.ar      1 888901      0.0000 
      5 C5          9.9400   44.7690   44.4500 C.ar      1 888901      0.0000 
      6 C6          9.9920   44.8630   45.8540 C.ar      1 888901      0.0000 
      7 S11        10.7820   46.2330   46.6650 S.o2      1 888901      0.0000 
      8 N12        10.4200   46.1220   48.2460 N.2       1 888901      0.0000 
      9 C13         9.9560   44.9680   48.8020 C.2       1 888901      0.0000 
     10 N14         9.4990   43.9480   48.0190 N.pl3     1 888901      0.0000 
     11 C15         9.9960   44.7030   50.2850 C.2       1 888901      0.0000 
     12 C16        10.8600   45.4330   51.0770 C.2       1 888901      0.0000 
     13 C17        10.9310   45.1330   52.5230 C.ar      1 888901      0.0000 
     14 C18        10.1030   44.0990   53.0960 C.ar      1 888901      0.0000 
     15 N19         9.1890   43.3580   52.2830 N.am      1 888901      0.0000 
     16 C20         9.1170   43.6210   50.9090 C.2       1 888901      0.0000 
     17 C21        11.8400   45.8670   53.3400 C.ar      1 888901      0.0000 
     18 C22        11.9540   45.6010   54.7130 C.ar      1 888901      0.0000 
     19 C23        11.1620   44.5950   55.2880 C.ar      1 888901      0.0000 
     20 C24        10.2470   43.8590   54.4980 C.ar      1 888901      0.0000 
     21 O29        11.6860   46.4310   50.5940 O.3       1 888901      0.0000 
     22 O30         8.3730   43.0060   50.1480 O.2       1 888901      0.0000 
     23 C31         8.3170   42.2770   52.8790 C.3       1 888901      0.0000 
     24 C32         6.9650   42.6370   53.5720 C.3       1 888901      0.0000 
     25 C35         6.0320   43.5710   52.7610 C.3       1 888901      0.0000 
     26 C38         4.9230   44.1220   53.6690 C.3       1 888901      0.0000 
     27 O46        10.1890   47.4500   46.2130 O.2       1 888901      0.0000 
     28 O47        12.1910   46.0730   46.5170 O.2       1 888901      0.0000 
     29 C7          5.3930   42.8330   51.5650 C.3       1 888901      0.0000 
     30 H           8.3650   42.0283   46.6561 H         1 888901      0.0000 
     31 H           8.2550   41.8465   44.2296 H         1 888901      0.0000 
     32 H           9.2553   43.5765   42.8335 H         1 888901      0.0000 
     33 H          10.3555   45.4888   43.8663 H         1 888901      0.0000 
     34 H           9.1401   43.0605   48.5725 H         1 888901      0.0000 
     35 H          12.4160   46.5998   52.9077 H         1 888901      0.0000 
     36 H          12.6063   46.1337   55.2880 H         1 888901      0.0000 
     37 H          11.2433   44.3874   56.2897 H         1 888901      0.0000 
     38 H           9.6674   43.1307   54.9386 H         1 888901      0.0000 
     39 H           8.9258   41.6870   53.6286 H         1 888901      0.0000 
     40 H           8.0847   41.5111   52.0789 H         1 888901      0.0000 
     41 H           7.1881   43.1124   54.5416 H         1 888901      0.0000 
     42 H           6.4268   41.6996   53.7903 H         1 888901      0.0000 
     43 H           6.6106   44.3978   52.3874 H         1 888901      0.0000 
     44 H           5.2959   44.6495   54.4324 H         1 888901      0.0000 
     45 H           4.3013   44.7265   53.1709 H         1 888901      0.0000 
     46 H           4.3671   43.3898   54.0625 H         1 888901      0.0000 
     47 H           6.0838   42.4860   50.9306 H         1 888901      0.0000 
     48 H           4.8469   42.0493   51.8610 H         1 888901      0.0000 
     49 H           4.7872   43.4310   51.0403 H         1 888901      0.0000 
     50 H          11.2978   46.6814   49.7071 H         1 888901      0.0000 
@<TRIPOS>BOND
     1    2    1 ar   
     2    6    1 ar   
     3   10    1 1    
     4    3    2 ar   
     5   30    2 1    
     6    4    3 ar   
     7   31    3 1    
     8    5    4 ar   
     9   32    4 1    
    10    6    5 ar   
    11   33    5 1    
    12    7    6 1    
    13    8    7 1    
    14   27    7 2    
    15   28    7 2    
    16    9    8 2    
    17   10    9 1    
    18   11    9 1    
    19   34   10 1    
    20   12   11 2    
    21   16   11 1    
    22   13   12 1    
    23   21   12 1    
    24   14   13 ar   
    25   17   13 ar   
    26   15   14 1    
    27   20   14 ar   
    28   16   15 am   
    29   23   15 1    
    30   22   16 2    
    31   18   17 ar   
    32   35   17 1    
    33   19   18 ar   
    34   36   18 1    
    35   20   19 ar   
    36   37   19 1    
    37   38   20 1    
    38   50   21 1    
    39   24   23 1    
    40   39   23 1    
    41   40   23 1    
    42   25   24 1    
    43   41   24 1    
    44   42   24 1    
    45   26   25 1    
    46   29   25 1    
    47   43   25 1    
    48   44   26 1    
    49   45   26 1    
    50   46   26 1    
    51   47   29 1    
    52   48   29 1    
    53   49   29 1    
@<TRIPOS>SUBSTRUCTURE
     1 888901      1 GROUP   
@<TRIPOS>SET

