#    Name: 1m2k_APR_1_INTS_M
#    Modification time : Mon Apr  7 14:26:32 2014

@<TRIPOS>MOLECULE
1m2k_APR_1_INTS_M
   95     0    12     0     0
SMALL
NO_CHARGES


@<TRIPOS>ATOM
      1 N          -5.6840    7.1405   14.4205 N.am      2 SEC2        0.0000 
      2 N          -5.9530    5.8200   13.9340 N.am     10 SEL2        0.0000 
      3 N          -5.4150    8.4610   14.9070 N.am      6 SEP2        0.0000 
      4 CA         -4.7440    3.5280   13.4705 C.3       4 GLC5        0.0000 
      5 CA         -5.3550    4.9800   14.8820 C.3      12 GLL5        0.0000 
      6 CA         -4.1330    2.0760   12.0590 C.3       8 GLP5        0.0000 
      7 CA         -4.0850    3.5670   15.1620 C.3       4 GLC5        0.0000 
      8 CA         -2.8150    2.1540   15.4420 C.3       8 GLP5        0.0000 
      9 CA         -5.8970    4.4450   16.9795 C.3       4 GLC5        0.0000 
     10 CA         -6.4390    3.9100   19.0770 C.3       8 GLP5        0.0000 
     11 CA         -6.8625    4.5290   15.8450 C.3       4 GLC5        0.0000 
     12 CA         -8.3700    4.0780   16.8080 C.3       8 GLP5        0.0000 
     13 CA         -6.5850    6.8045   15.0510 C.3       4 GLC5        0.0000 
     14 CA         -7.8150    8.6290   15.2200 C.3       8 GLP5        0.0000 
     15 CA         -4.2275    6.3940   14.6555 C.3       4 GLC5        0.0000 
     16 CA         -3.1000    7.8080   14.4290 C.3       8 GLP5        0.0000 
     17 CA         -4.7540    2.6525   14.7610 C.3       4 GLC5        0.0000 
     18 CA         -6.6930    3.1510   14.0800 C.3      12 GLL5        0.0000 
     19 CA         -7.0015    3.8290   10.9730 C.3       4 GLC5        0.0000 
     20 CA         -7.2950    3.9760   13.1380 C.3      12 GLL5        0.0000 
     21 CA         -6.7080    3.6820    8.8080 C.3       8 GLP5        0.0000 
     22 CA         -8.1940    5.1225   14.6070 C.3       4 GLC5        0.0000 
     23 CA         -6.9280    5.3510   13.0460 C.3      12 GLL5        0.0000 
     24 CA         -9.4600    4.8940   16.1680 C.3       8 GLP5        0.0000 
     25 CA         -7.3715    6.9900   14.1330 C.3       4 GLC5        0.0000 
     26 O          -6.7405    7.5005   11.8200 O.2       1 ALC1        0.0000 
     27 O          -7.4850    6.1800   12.1420 O.2       9 ALL1        0.0000 
     28 O          -5.9960    8.8210   11.4980 O.2       5 ALP1        0.0000 
     29 CA         -5.4270    1.4275   13.4570 C.3       4 GLC5        0.0000 
     30 CA         -6.7210    0.7790   14.8550 C.3      12 GLL5        0.0000 
     31 CA         -4.7680    1.4665   15.1485 C.3       4 GLC5        0.0000 
     32 CA         -7.5455    2.4285   15.8315 C.3       4 GLC5        0.0000 
     33 O          -8.1425    0.6835   17.0850 O.2       1 ALC1        0.0000 
     34 O          -8.6360    0.0150   15.9510 O.2       9 ALL1        0.0000 
     35 O          -7.6490    1.3520   18.2190 O.2       5 ALP1        0.0000 
     36 CA         -6.0105   -3.2740   16.0905 C.3       4 GLC5        0.0000 
     37 CA         -6.8910   -1.4010   15.3070 C.3      12 GLL5        0.0000 
     38 CA         -5.1300   -5.1470   16.8740 C.3       8 GLP5        0.0000 
     39 N          -6.1525   -0.5760   17.4730 N.am      2 SEC2        0.0000 
     40 N          -6.7360   -1.6600   16.6160 N.am     10 SEL2        0.0000 
     41 N          -5.5690    0.5080   18.3300 N.am      6 SEP2        0.0000 
     42 CA         -4.2060    0.5290   15.0975 C.3       4 GLC5        0.0000 
     43 CA         -5.5970   -1.0960   14.7530 C.3      12 GLL5        0.0000 
     44 CA         -5.0305   -2.6190   16.2855 C.3       4 GLC5        0.0000 
     45 CA         -4.4640   -4.1420   17.8180 C.3       8 GLP5        0.0000 
     46 CA         -5.9235   -1.8625   11.6170 C.3       4 GLC5        0.0000 
     47 CA         -5.1330   -1.9560   13.6640 C.3      12 GLL5        0.0000 
     48 CA         -6.7140   -1.7690    9.5700 C.3       8 GLP5        0.0000 
     49 N          -5.6110   -4.3775   10.2895 N.am      2 SEC2        0.0000 
     50 N          -5.4120   -4.2540   11.6470 N.am     10 SEL2        0.0000 
     51 N          -5.8100   -4.5010    8.9320 N.am      6 SEP2        0.0000 
     52 N          -6.3690   -5.0215   11.2425 N.am      2 SEC2        0.0000 
     53 N          -7.3260   -5.7890   10.8380 N.am      6 SEP2        0.0000 
     54 NZ         -4.0610   -6.9670   13.2685 N.4       3 LYC4        0.0000 
     55 NZ         -4.5170   -5.7310   13.6000 N.4      11 LYL4        0.0000 
     56 NZ         -4.1000   -9.4160   13.1480 N.4       7 LYP4        0.0000 
     57 N          -4.0610   -6.9670   13.2685 N.am      2 SEC2        0.0000 
     58 N          -4.5170   -5.7310   13.6000 N.am     10 SEL2        0.0000 
     59 N          -3.6050   -8.2030   12.9370 N.am      6 SEP2        0.0000 
     60 N          -4.3355   -5.8080   14.8820 N.am      2 SEC2        0.0000 
     61 N          -4.1540   -5.8850   16.1640 N.am      6 SEP2        0.0000 
     62 N          -1.1195   -3.5985   15.8425 N.am      2 SEC2        0.0000 
     63 N          -1.7940   -4.0560   14.8550 N.am     10 SEL2        0.0000 
     64 N          -0.4450   -3.1410   16.8300 N.am      6 SEP2        0.0000 
     65 N          -2.6630   -3.6875   15.9555 N.am      2 SEC2        0.0000 
     66 N          -3.5320   -3.3190   17.0560 N.am      6 SEP2        0.0000 
     67 N          -0.7885   -2.0770   12.1305 N.am      2 SEC2        0.0000 
     68 N          -0.5240   -3.3500   12.6970 N.am     10 SEL2        0.0000 
     69 N          -1.0530   -0.8040   11.5640 N.am      6 SEP2        0.0000 
     70 N          -2.4875   -6.9860   12.8270 N.am      2 SEC2        0.0000 
     71 N          -1.3700   -5.7690   12.7170 N.am     10 SEL2        0.0000 
     72 N          -2.1920   -8.2350   12.3215 N.am      2 SEC2        0.0000 
     73 N          -0.7790   -8.2670   11.7060 N.am     10 SEL2        0.0000 
     74 N          -2.3165  -10.0395   11.5455 N.am      2 SEC2        0.0000 
     75 N          -1.2660   -9.5970   10.2320 N.am     10 SEL2        0.0000 
     76 N          -3.3670  -10.4820   12.8590 N.am      6 SEP2        0.0000 
     77 N          -2.6390   -9.9965    9.5640 N.am      2 SEC2        0.0000 
     78 N          -4.0120  -10.3960    8.8960 N.am      6 SEP2        0.0000 
     79 CA         -1.7540   -6.9005    9.7090 C.3       4 GLC5        0.0000 
     80 CA         -0.9700   -8.3690   10.5300 C.3      12 GLL5        0.0000 
     81 CA         -2.5380   -5.4320    8.8880 C.3       8 GLP5        0.0000 
     82 N           2.8960   -6.6600   10.9730 N.am      2 SEC2        0.0000 
     83 N           1.5390   -6.1700   10.5020 N.am     10 SEL2        0.0000 
     84 N           4.2530   -7.1500   11.4440 N.am      6 SEP2        0.0000 
     85 CA         -7.6820    3.8208   15.2085 C.3       4 GLC5        0.0000 
     86 CA         -5.5470    3.2666   12.6932 C.3       4 GLC5        0.0000 
     87 CA         -4.7490    0.2750   13.1337 C.3       4 GLC5        0.0000 
     88 CA         -3.7560   -1.4650   15.3782 C.3       4 GLC5        0.0000 
     89 CA         -2.1470   -1.4040   16.5480 C.3       8 GLP5        0.0000 
     90 CA         -0.3453   -8.3515   13.7470 C.3       4 GLC5        0.0000 
     91 CA         -0.2700   -6.5350   13.2250 C.3      12 GLL5        0.0000 
     92 CA         -0.6590   -9.8090   14.8460 C.3       8 GLP5        0.0000 
     93 CA         -0.5800   -6.2635    9.2135 C.3       4 GLC5        0.0000 
     94 CA          0.4000   -6.7990   10.7380 C.3      12 GLL5        0.0000 
     95 CA         -1.4240   -5.1740    8.0950 C.3       8 GLP5        0.0000 
@<TRIPOS>BOND
@<TRIPOS>SUBSTRUCTURE
     1 ALC1       26 GROUP        1 X    ALC  0     ROOT ALC X 1
     2 SEC2        1 GROUP        1 X    SEC  0     **** SEC X 2
     3 LYC4       54 GROUP        1 X    LYC  0     **** LYC X 4
     4 GLC5        4 GROUP        1 X    GLC  0     **** GLC X 6
     5 ALP1       28 GROUP        1 Y    ALP  0     ROOT ALP Y 8
     6 SEP2        3 GROUP        1 Y    SEP  0     **** SEP Y 9
     7 LYP4       56 GROUP        1 Y    LYP  0     **** LYP Y 11
     8 GLP5        6 GROUP        1 Y    GLP  0     **** GLP Y 13
     9 ALL1       27 GROUP        1 Z    ALL  0     ROOT ALL Z 15
    10 SEL2        2 GROUP        1 Z    SEL  0     **** SEL Z 16
    11 LYL4       55 GROUP        1 Z    LYL  0     **** LYL Z 18
    12 GLL5        5 GROUP        1 Z    GLL  0     **** GLL Z 20
@<TRIPOS>SET

