#    Name: 1m2k_APR_1_ligand
#    Modification time : Mon Apr  7 14:26:32 2014

@<TRIPOS>MOLECULE
1m2k_APR_1_ligand
   57    60     1     0     0
SMALL
NO_CHARGES


@<TRIPOS>ATOM
      1 N1         -5.9530    5.8200   13.9340 N.ar      1 APR1001     0.0000 
      2 C2         -5.3550    4.9800   14.8820 C.ar      1 APR1001     0.0000 
      3 N3         -5.7310    3.6410   14.9490 N.ar      1 APR1001     0.0000 
      4 C4         -6.6930    3.1510   14.0800 C.ar      1 APR1001     0.0000 
      5 C5         -7.2950    3.9760   13.1380 C.ar      1 APR1001     0.0000 
      6 C6         -6.9280    5.3510   13.0460 C.ar      1 APR1001     0.0000 
      7 N6         -7.4850    6.1800   12.1420 N.pl3     1 APR1001     0.0000 
      8 N7         -8.1680    3.2470   12.4510 N.2       1 APR1001     0.0000 
      9 C8         -8.1070    1.9870   12.9570 C.2       1 APR1001     0.0000 
     10 N9         -7.1660    1.8380   14.0230 N.pl3     1 APR1001     0.0000 
     11 C1'        -6.7210    0.7790   14.8550 C.3       1 APR1001     0.0000 
     12 C2'        -7.6970   -0.2540   15.0530 C.3       1 APR1001     0.0000 
     13 O2'        -8.6360    0.0150   15.9510 O.3       1 APR1001     0.0000 
     14 C3'        -6.8910   -1.4010   15.3070 C.3       1 APR1001     0.0000 
     15 O3'        -6.7360   -1.6600   16.6160 O.3       1 APR1001     0.0000 
     16 O4'        -5.7020    0.1540   14.2630 O.3       1 APR1001     0.0000 
     17 C4'        -5.5970   -1.0960   14.7530 C.3       1 APR1001     0.0000 
     18 C5'        -5.1330   -1.9560   13.6640 C.3       1 APR1001     0.0000 
     19 O5'        -5.0340   -3.2270   14.0650 O.3       1 APR1001     0.0000 
     20 PA         -4.5070   -4.2950   12.9450 P.3       1 APR1001     0.0000 
     21 O1A        -5.4120   -4.2540   11.6470 O.co2     1 APR1001     0.0000 
     22 O2A        -4.5170   -5.7310   13.6000 O.co2     1 APR1001     0.0000 
     23 O3A        -3.0210   -3.8680   12.4580 O.3       1 APR1001     0.0000 
     24 PB         -1.6700   -4.2520   13.2890 P.3       1 APR1001     0.0000 
     25 O1B        -1.7940   -4.0560   14.8550 O.co2     1 APR1001     0.0000 
     26 O2B        -0.5240   -3.3500   12.6970 O.co2     1 APR1001     0.0000 
     27 O5D        -1.3700   -5.7690   12.7170 O.3       1 APR1001     0.0000 
     28 C5D        -0.2700   -6.5350   13.2250 C.3       1 APR1001     0.0000 
     29 O4D        -0.7790   -8.2670   11.7060 O.3       1 APR1001     0.0000 
     30 O1D        -1.2660   -9.5970   10.2320 O.3       1 APR1001     0.0000 
     31 C1D        -0.9700   -8.3690   10.5300 C.3       1 APR1001     0.0000 
     32 O2D         0.9850   -8.6620    9.7270 O.3       1 APR1001     0.0000 
     33 C2D         0.1280   -7.9070    9.9260 C.3       1 APR1001     0.0000 
     34 O3D         1.5390   -6.1700   10.5020 O.3       1 APR1001     0.0000 
     35 C3D         0.4000   -6.7990   10.7380 C.3       1 APR1001     0.0000 
     36 C4D         0.2070   -7.2530   12.0710 C.3       1 APR1001     0.0000 
     37 H          -4.6463    5.3518   15.5200 H         1 APR1001     0.0000 
     38 H          -6.9268    6.9591   11.8568 H         1 APR1001     0.0000 
     39 H          -8.4071    5.9425   11.8366 H         1 APR1001     0.0000 
     40 H          -8.6450    1.2239   12.6440 H         1 APR1001     0.0000 
     41 H          -6.4209    1.1642   15.8312 H         1 APR1001     0.0000 
     42 H          -8.1467   -0.4282   14.0225 H         1 APR1001     0.0000 
     43 H          -7.2925   -2.2505   14.7551 H         1 APR1001     0.0000 
     44 H          -4.8502   -1.1146   15.5593 H         1 APR1001     0.0000 
     45 H          -4.1606   -1.5412   13.2948 H         1 APR1001     0.0000 
     46 H          -5.8394   -1.8265   12.8048 H         1 APR1001     0.0000 
     47 H          -0.6007   -7.2227   13.9904 H         1 APR1001     0.0000 
     48 H           0.5023   -5.8875   13.6156 H         1 APR1001     0.0000 
     49 H          -1.8328   -7.6952   10.2081 H         1 APR1001     0.0000 
     50 H          -0.2835   -7.4031    8.9519 H         1 APR1001     0.0000 
     51 H          -0.4861   -6.0756   10.5550 H         1 APR1001     0.0000 
     52 H           1.1027   -7.8881   12.3412 H         1 APR1001     0.0000 
     53 H          -8.1545    0.4687   16.7008 H         1 APR1001     0.0000 
     54 H          -7.5538   -2.1729   16.8768 H         1 APR1001     0.0000 
     55 H          -1.5602  -10.0088   11.0945 H         1 APR1001     0.0000 
     56 H           0.5418   -9.5584    9.7122 H         1 APR1001     0.0000 
     57 H           1.2912   -5.2037   10.4321 H         1 APR1001     0.0000 
@<TRIPOS>BOND
     1    2    1 ar   
     2    6    1 ar   
     3    3    2 ar   
     4   37    2 1    
     5    4    3 ar   
     6    5    4 ar   
     7   10    4 1    
     8    6    5 ar   
     9    8    5 1    
    10    7    6 1    
    11   38    7 1    
    12   39    7 1    
    13    9    8 2    
    14   10    9 1    
    15   40    9 1    
    16   11   10 1    
    17   12   11 1    
    18   16   11 1    
    19   41   11 1    
    20   13   12 1    
    21   14   12 1    
    22   42   12 1    
    23   53   13 1    
    24   15   14 1    
    25   17   14 1    
    26   43   14 1    
    27   54   15 1    
    28   17   16 1    
    29   18   17 1    
    30   44   17 1    
    31   19   18 1    
    32   45   18 1    
    33   46   18 1    
    34   20   19 1    
    35   21   20 ar   
    36   22   20 ar   
    37   23   20 1    
    38   24   23 1    
    39   25   24 ar   
    40   26   24 ar   
    41   27   24 1    
    42   28   27 1    
    43   36   28 1    
    44   47   28 1    
    45   48   28 1    
    46   31   29 1    
    47   36   29 1    
    48   31   30 1    
    49   55   30 1    
    50   33   31 1    
    51   49   31 1    
    52   33   32 1    
    53   56   32 1    
    54   35   33 1    
    55   50   33 1    
    56   35   34 1    
    57   57   34 1    
    58   36   35 1    
    59   51   35 1    
    60   52   36 1    
@<TRIPOS>SUBSTRUCTURE
     1 APR1001     1 GROUP   
@<TRIPOS>SET

