#    Name: 4HMN_1_CAVITY_N1_6.mol2
#    Modification time : Tue Mar 11 02:42:49 2014

@<TRIPOS>MOLECULE
4HMN_1_CAVITY_N1_6.mol2
   99     0     5     0     0
SMALL
NO_CHARGES


@<TRIPOS>ATOM
      1 CZ         -6.4093    7.9402   20.0600 C.ar      3 PHE5        0.0000 
      2 CZ         -6.6359    6.6347   19.3570 C.ar      3 PHE5        0.0000 
      3 CZ         -6.8625    5.3291   18.6540 C.ar      3 PHE5        0.0000 
      4 O          -7.4793    4.7621   16.7052 O.2       2 ALA2        0.0000 
      5 DU         -7.0891    4.0236   17.9511 H         5 CUB7        0.0000 
      6 CZ         -7.3157    2.7180   17.2481 C.ar      3 PHE5        0.0000 
      7 CZ         -7.5423    1.4125   16.5451 C.ar      3 PHE5        0.0000 
      8 CZ         -4.9788    7.9349   19.6088 C.ar      3 PHE5        0.0000 
      9 CA         -4.5885    7.1963   20.8546 C.3       4 GLY6        0.0000 
     10 CZ         -5.2054    6.6294   18.9058 C.ar      3 PHE5        0.0000 
     11 CZ         -4.8151    5.8908   20.1516 C.ar      3 PHE5        0.0000 
     12 CZ         -5.4320    5.3238   18.2028 C.ar      3 PHE5        0.0000 
     13 O          -6.0488    4.7568   16.2539 O.2       2 ALA2        0.0000 
     14 CZ         -5.6586    4.0183   17.4998 C.ar      3 PHE5        0.0000 
     15 CZ         -5.2683    3.2797   18.7457 C.ar      3 PHE5        0.0000 
     16 CZ         -5.8852    2.7127   16.7968 C.ar      3 PHE5        0.0000 
     17 CA         -5.4949    1.9741   18.0427 C.3       4 GLY6        0.0000 
     18 CZ         -3.9385    8.6682   17.9116 C.ar      3 PHE5        0.0000 
     19 OG         -3.5483    7.9296   19.1575 O.2       1 SER1        0.0000 
     20 CZ         -3.7749    6.6241   18.4545 C.ar      3 PHE5        0.0000 
     21 CZ         -4.3917    6.0571   16.5057 C.ar      3 PHE5        0.0000 
     22 CZ         -5.0086    5.4901   14.5568 C.ar      3 PHE5        0.0000 
     23 CZ         -4.6183    4.7515   15.8027 C.ar      3 PHE5        0.0000 
     24 CZ         -4.2281    4.0130   17.0485 C.ar      3 PHE5        0.0000 
     25 CZ         -4.8449    3.4460   15.0997 C.ar      3 PHE5        0.0000 
     26 CA         -4.4547    2.7074   16.3456 C.3       4 GLY6        0.0000 
     27 CZ         -3.4523   12.1842   14.4258 C.ar      3 PHE5        0.0000 
     28 CA         -3.0620   11.4456   15.6716 C.3       4 GLY6        0.0000 
     29 CZ         -3.6789   10.8786   13.7228 C.ar      3 PHE5        0.0000 
     30 CZ         -3.2886   10.1401   14.9686 C.ar      3 PHE5        0.0000 
     31 CA         -2.8983    9.4015   16.2145 C.3       4 GLY6        0.0000 
     32 OG         -2.5080    8.6629   17.4604 O.2       1 SER1        0.0000 
     33 CA         -3.9055    9.5731   13.0198 C.3       4 GLY6        0.0000 
     34 CZ         -3.5152    8.8345   14.2657 C.ar      3 PHE5        0.0000 
     35 CZ         -3.1249    8.0959   15.5115 C.ar      3 PHE5        0.0000 
     36 CZ         -2.7346    7.3573   16.7574 C.ar      3 PHE5        0.0000 
     37 CZ         -2.3444    6.6188   18.0032 C.ar      3 PHE5        0.0000 
     38 CZ         -3.7418    7.5290   13.5627 C.ar      3 PHE5        0.0000 
     39 CZ         -3.3515    6.7904   14.8085 C.ar      3 PHE5        0.0000 
     40 CZ         -2.9612    6.0518   16.0544 C.ar      3 PHE5        0.0000 
     41 CZ         -2.5710    5.3132   17.3003 C.ar      3 PHE5        0.0000 
     42 CZ         -3.9684    6.2234   12.8597 C.ar      3 PHE5        0.0000 
     43 CZ         -3.5781    5.4848   14.1055 C.ar      3 PHE5        0.0000 
     44 CA         -3.1878    4.7462   15.3514 C.3       4 GLY6        0.0000 
     45 CA         -2.7976    4.0077   16.5973 C.3       4 GLY6        0.0000 
     46 CZ         -3.8047    4.1793   13.4026 C.ar      3 PHE5        0.0000 
     47 CA         -3.4144    3.4407   14.6484 C.3       4 GLY6        0.0000 
     48 CZ         -4.4216    3.6123   11.4537 C.ar      3 PHE5        0.0000 
     49 CZ         -4.0313    2.8737   12.6996 C.ar      3 PHE5        0.0000 
     50 CA         -3.6410    2.1351   13.9454 C.3       4 GLY6        0.0000 
     51 CZ         -5.0385    3.0453    9.5049 C.ar      3 PHE5        0.0000 
     52 CZ         -3.8676    0.8296   13.2425 C.ar      3 PHE5        0.0000 
     53 CZ         -5.2651    1.7398    8.8019 C.ar      3 PHE5        0.0000 
     54 CZ         -2.0218   12.1789   13.9745 C.ar      3 PHE5        0.0000 
     55 N          -1.6315   11.4403   15.2204 N.2       2 ALA2        0.0000 
     56 CA         -1.2412   10.7017   16.4662 C.3       4 GLY6        0.0000 
     57 OG         -2.2484   10.8733   13.2715 O.2       1 SER1        0.0000 
     58 N          -1.8581   10.1348   14.5174 N.2       2 ALA2        0.0000 
     59 O          -1.4678    9.3962   15.7632 O.2       2 ALA2        0.0000 
     60 OG         -1.0775    8.6576   17.0091 O.2       1 SER1        0.0000 
     61 OG         -2.4750    9.5678   12.5685 O.2       1 SER1        0.0000 
     62 OG         -2.0847    8.8292   13.8144 O.2       1 SER1        0.0000 
     63 O          -1.6944    8.0906   15.0603 O.2       2 ALA2        0.0000 
     64 O          -1.3041    7.3520   16.3061 O.2       2 ALA2        0.0000 
     65 CA         -0.9139    6.6135   17.5520 C.3       4 GLY6        0.0000 
     66 CZ         -2.3113    7.5237   13.1114 C.ar      3 PHE5        0.0000 
     67 N          -1.9210    6.7851   14.3573 N.2       2 ALA2        0.0000 
     68 N          -1.5307    6.0465   15.6031 N.2       2 ALA2        0.0000 
     69 CZ         -1.1405    5.3079   16.8490 C.ar      3 PHE5        0.0000 
     70 CZ         -2.5379    6.2181   12.4084 C.ar      3 PHE5        0.0000 
     71 N          -2.1476    5.4795   13.6543 N.2       2 ALA2        0.0000 
     72 N          -1.7573    4.7409   14.9001 N.2       2 ALA2        0.0000 
     73 N          -1.3671    4.0024   16.1460 N.2       2 ALA2        0.0000 
     74 CZ         -2.3742    4.1740   12.9513 C.ar      3 PHE5        0.0000 
     75 CA         -1.9839    3.4354   14.1972 C.3       4 GLY6        0.0000 
     76 CZ         -2.9911    3.6070   11.0025 C.ar      3 PHE5        0.0000 
     77 DU         -2.6008    2.8684   12.2483 H         5 CUB7        0.0000 
     78 CA         -2.2105    2.1298   13.4942 C.3       4 GLY6        0.0000 
     79 CZ         -3.9983    3.7786    7.8077 C.ar      3 PHE5        0.0000 
     80 CZ         -3.6080    3.0400    9.0536 C.ar      3 PHE5        0.0000 
     81 CZ         -3.2177    2.3014   10.2995 C.ar      3 PHE5        0.0000 
     82 CZ         -2.8274    1.5629   11.5453 C.ar      3 PHE5        0.0000 
     83 CZ         -2.4371    0.8243   12.7912 C.ar      3 PHE5        0.0000 
     84 CA         -4.2249    2.4731    7.1048 C.3       4 GLY6        0.0000 
     85 CZ         -3.8346    1.7345    8.3506 C.ar      3 PHE5        0.0000 
     86 CZ         -3.4443    0.9959    9.5965 C.ar      3 PHE5        0.0000 
     87 CZ         -0.9437    4.1687   12.5000 C.ar      3 PHE5        0.0000 
     88 N          -0.5534    3.4301   13.7459 N.2       2 ALA2        0.0000 
     89 CZ         -1.5606    3.6017   10.5512 C.ar      3 PHE5        0.0000 
     90 CZ         -1.1703    2.8631   11.7971 C.ar      3 PHE5        0.0000 
     91 CZ         -0.7800    2.1245   13.0429 C.ar      3 PHE5        0.0000 
     92 CZ         -2.1775    3.0347    8.6023 C.ar      3 PHE5        0.0000 
     93 CZ         -1.7872    2.2961    9.8482 C.ar      3 PHE5        0.0000 
     94 CZ         -1.3969    1.5576   11.0941 C.ar      3 PHE5        0.0000 
     95 CZ         -1.0066    0.8190   12.3399 C.ar      3 PHE5        0.0000 
     96 O          -2.4041    1.7292    7.8994 O.2       2 ALA2        0.0000 
     97 CZ          0.2602    2.8578   11.3458 C.ar      3 PHE5        0.0000 
     98 CZ         -0.3567    2.2908    9.3969 C.ar      3 PHE5        0.0000 
     99 CA          0.0336    1.5523   10.6428 C.3       4 GLY6        0.0000 
@<TRIPOS>BOND
@<TRIPOS>SUBSTRUCTURE
     1 SER1       19 GROUP   
     2 ALA2        4 GROUP   
     3 PHE5        1 GROUP   
     4 GLY6        9 GROUP   
     5 CUB7        5 GROUP   
@<TRIPOS>SET

