#    Name: 4hmn_16J_1_INTS_M
#    Modification time : Tue Mar 25 01:23:40 2014

@<TRIPOS>MOLECULE
4hmn_16J_1_INTS_M
   58     0     6     0     0
SMALL
NO_CHARGES


@<TRIPOS>ATOM
      1 CA          0.1110    0.9470   12.5710 C.3       2 GLC5        0.0000 
      2 CA         -0.8480    1.6350   11.3930 C.3       6 GLL5        0.0000 
      3 CA          1.0700    0.2590   13.7490 C.3       4 GLP5        0.0000 
      4 CA         -2.2025    3.9875    9.6150 C.3       2 GLC5        0.0000 
      5 CA         -1.1290    2.1260    9.9490 C.3       6 GLL5        0.0000 
      6 CA         -3.2760    5.8490    9.2810 C.3       4 GLP5        0.0000 
      7 N           1.3080    2.4690   13.2900 N.am      1 SEC2        0.0000 
      8 N           0.0210    3.0420   13.5880 N.am      5 SEL2        0.0000 
      9 N           2.5950    1.8960   12.9920 N.am      3 SEP2        0.0000 
     10 N           0.8165    3.3345   14.8635 N.am      1 SEC2        0.0000 
     11 N           1.6120    3.6270   16.1390 N.am      3 SEP2        0.0000 
     12 CA         -2.9630    2.5645   15.3500 C.3       2 GLC5        0.0000 
     13 CA         -3.3600    4.0610   14.2420 C.3       6 GLL5        0.0000 
     14 CA         -2.5660    1.0680   16.4580 C.3       4 GLP5        0.0000 
     15 CA         -5.2440    3.2450   13.9825 C.3       2 GLC5        0.0000 
     16 CA         -7.1280    2.4290   13.7230 C.3       4 GLP5        0.0000 
     17 CA         -3.8690    5.7350   12.0460 C.3       2 GLC5        0.0000 
     18 CA         -3.4310    5.6050   13.9060 C.3       6 GLL5        0.0000 
     19 CA         -4.3070    5.8650   10.1860 C.3       4 GLP5        0.0000 
     20 CA         -4.8935    6.8305   14.4690 C.3       2 GLC5        0.0000 
     21 CA         -6.3560    8.0560   15.0320 C.3       4 GLP5        0.0000 
     22 CA         -1.8720    2.7605   15.8845 C.3       2 GLC5        0.0000 
     23 CA         -1.1780    4.4530   15.3110 C.3       6 GLL5        0.0000 
     24 CA         -0.1170   11.6870   15.7290 C.3       2 GLC5        0.0000 
     25 CA         -2.1460   12.3060   15.0810 C.3       6 GLL5        0.0000 
     26 CA          1.9120   11.0680   16.3770 C.3       4 GLP5        0.0000 
     27 CA         -1.5600   13.6115   15.8940 C.3       2 GLC5        0.0000 
     28 CA         -0.9740   14.9170   16.7070 C.3       4 GLP5        0.0000 
     29 CA         -2.4705   13.4285   13.7245 C.3       2 GLC5        0.0000 
     30 CA         -2.7950   14.5510   12.3680 C.3       4 GLP5        0.0000 
     31 CA         -1.0882    0.1602   10.4250 C.3       2 GLC5        0.0000 
     32 CA         -1.1880   -1.5600   10.1790 C.3       4 GLP5        0.0000 
     33 CA         -0.1602    3.4417   10.2565 C.3       2 GLC5        0.0000 
     34 CA          0.6680    5.0030    9.8420 C.3       4 GLP5        0.0000 
     35 CA         -3.4707    0.1845   10.6120 C.3       2 GLC5        0.0000 
     36 CA         -3.1760    2.2960   11.9970 C.3       6 GLL5        0.0000 
     37 CA         -3.6260   -1.5910    9.9180 C.3       4 GLP5        0.0000 
     38 CA         -4.9413    2.0165   11.3375 C.3       2 GLC5        0.0000 
     39 CA         -3.4550    1.6240   10.6150 C.3       6 GLL5        0.0000 
     40 CA         -6.5670    2.0730   11.3690 C.3       4 GLP5        0.0000 
     41 CA         -3.8113    3.9125   10.7460 C.3       2 GLC5        0.0000 
     42 CA         -1.5553    4.4650   17.4982 C.3       2 GLC5        0.0000 
     43 CA         -1.5390    3.8980   19.3700 C.3       4 GLP5        0.0000 
     44 CA          0.1918    4.8455   16.2907 C.3       2 GLC5        0.0000 
     45 CA         -1.9650    5.6110   15.9420 C.3       6 GLL5        0.0000 
     46 CA          1.9550    4.6590   16.9550 C.3       4 GLP5        0.0000 
     47 CA         -0.9775    8.8290   17.9808 C.3       2 GLC5        0.0000 
     48 CA         -2.1970    8.4630   16.1660 C.3       6 GLL5        0.0000 
     49 CA          0.1840    8.5050   19.7580 C.3       4 GLP5        0.0000 
     50 CA         -2.7560   10.2900   17.3897 C.3       2 GLC5        0.0000 
     51 CA         -3.3730   11.4270   18.5760 C.3       4 GLP5        0.0000 
     52 CA         -0.1340   10.6415   16.0217 C.3       2 GLC5        0.0000 
     53 CA         -2.0810    9.8430   16.2410 C.3       6 GLL5        0.0000 
     54 CA         -2.7927   11.4367   16.8312 C.3       2 GLC5        0.0000 
     55 CA         -2.2790   10.5870   15.0920 C.3       6 GLL5        0.0000 
     56 CA         -3.7850    9.4273   12.2450 C.3       2 GLC5        0.0000 
     57 CA         -2.5910    9.9480   13.9020 C.3       6 GLL5        0.0000 
     58 CA         -4.9090    9.5980   10.6130 C.3       4 GLP5        0.0000 
@<TRIPOS>BOND
@<TRIPOS>SUBSTRUCTURE
     1 SEC2        7 GROUP        1 X    SEC  0     ROOT SEC X 2
     2 GLC5        1 GROUP        1 X    GLC  0     **** GLC X 6
     3 SEP2        9 GROUP        1 Y    SEP  0     ROOT SEP Y 9
     4 GLP5        3 GROUP        1 Y    GLP  0     **** GLP Y 13
     5 SEL2        8 GROUP        1 Z    SEL  0     ROOT SEL Z 16
     6 GLL5        2 GROUP        1 Z    GLL  0     **** GLL Z 20
@<TRIPOS>SET

