#    Name: 4hmn_16J_1_ligand
#    Modification time : Tue Mar 25 01:23:40 2014

@<TRIPOS>MOLECULE
4hmn_16J_1_ligand
   41    43     1     0     0
SMALL
NO_CHARGES


@<TRIPOS>ATOM
      1 CAI        -0.8480    1.6350   11.3930 C.3       1 16J402      0.0000 
      2 CAG        -1.1290    2.1260    9.9490 C.3       1 16J402      0.0000 
      3 OAO        -2.4630    1.5910    9.5330 O.3       1 16J402      0.0000 
      4 CAH        -3.4550    1.6240   10.6150 C.3       1 16J402      0.0000 
      5 CAJ        -3.1760    2.2960   11.9970 C.3       1 16J402      0.0000 
      6 NAS        -1.7430    2.3440   12.3470 N.am      1 16J402      0.0000 
      7 CAP        -1.2150    3.0500   13.3850 C.2       1 16J402      0.0000 
      8 OAA         0.0210    3.0420   13.5880 O.2       1 16J402      0.0000 
      9 NAT        -1.9340    3.7300   14.2890 N.am      1 16J402      0.0000 
     10 CAL        -3.3600    4.0610   14.2420 C.3       1 16J402      0.0000 
     11 CAN        -3.4310    5.6050   13.9060 C.3       1 16J402      0.0000 
     12 CAK        -1.1780    4.4530   15.3110 C.3       1 16J402      0.0000 
     13 CAM        -1.9650    5.6110   15.9420 C.3       1 16J402      0.0000 
     14 NAU        -2.6570    6.3860   14.9270 N.3       1 16J402      0.0000 
     15 CAR        -2.5420    7.8040   14.9820 C.ar      1 16J402      0.0000 
     16 CAE        -2.1970    8.4630   16.1660 C.ar      1 16J402      0.0000 
     17 CAC        -2.0810    9.8430   16.2410 C.ar      1 16J402      0.0000 
     18 CAQ        -2.2790   10.5870   15.0920 C.ar      1 16J402      0.0000 
     19 CLA        -2.1460   12.3060   15.0810 Cl        1 16J402      0.0000 
     20 CAD        -2.5910    9.9480   13.9020 C.ar      1 16J402      0.0000 
     21 CAF        -2.7310    8.5650   13.8520 C.ar      1 16J402      0.0000 
     22 H           0.1944    1.8363   11.6225 H         1 16J402      0.0000 
     23 H          -1.0228    0.5635   11.4265 H         1 16J402      0.0000 
     24 H          -0.3511    1.7518    9.3038 H         1 16J402      0.0000 
     25 H          -1.1349    3.2037    9.9500 H         1 16J402      0.0000 
     26 H          -3.8010    0.5559   10.8485 H         1 16J402      0.0000 
     27 H          -4.4271    2.0929   10.2276 H         1 16J402      0.0000 
     28 H          -3.7448    1.7345   12.7563 H         1 16J402      0.0000 
     29 H          -3.6033    3.3116   11.9609 H         1 16J402      0.0000 
     30 H          -3.8379    3.9183   15.1887 H         1 16J402      0.0000 
     31 H          -3.8686    3.5402   13.4578 H         1 16J402      0.0000 
     32 H          -4.4743    5.8934   13.9097 H         1 16J402      0.0000 
     33 H          -3.0142    5.7444   12.9168 H         1 16J402      0.0000 
     34 H          -0.2469    4.8709   14.8849 H         1 16J402      0.0000 
     35 H          -0.8715    3.7704   16.1254 H         1 16J402      0.0000 
     36 H          -1.2553    6.2344   16.5013 H         1 16J402      0.0000 
     37 H          -2.6721    5.1827   16.6642 H         1 16J402      0.0000 
     38 H          -2.0213    7.8912   17.0221 H         1 16J402      0.0000 
     39 H          -1.8544   10.2980   17.1256 H         1 16J402      0.0000 
     40 H          -2.7217   10.5045   13.0398 H         1 16J402      0.0000 
     41 H          -2.9790    8.1126   12.9560 H         1 16J402      0.0000 
@<TRIPOS>BOND
     1    2    1 1    
     2    6    1 1    
     3   22    1 1    
     4   23    1 1    
     5    3    2 1    
     6   24    2 1    
     7   25    2 1    
     8    4    3 1    
     9    5    4 1    
    10   26    4 1    
    11   27    4 1    
    12    6    5 1    
    13   28    5 1    
    14   29    5 1    
    15    7    6 am   
    16    8    7 2    
    17    9    7 am   
    18   10    9 1    
    19   12    9 1    
    20   11   10 1    
    21   30   10 1    
    22   31   10 1    
    23   14   11 1    
    24   32   11 1    
    25   33   11 1    
    26   13   12 1    
    27   34   12 1    
    28   35   12 1    
    29   14   13 1    
    30   36   13 1    
    31   37   13 1    
    32   15   14 1    
    33   16   15 ar   
    34   21   15 ar   
    35   17   16 ar   
    36   38   16 1    
    37   18   17 ar   
    38   39   17 1    
    39   19   18 1    
    40   20   18 ar   
    41   21   20 ar   
    42   40   20 1    
    43   41   21 1    
@<TRIPOS>SUBSTRUCTURE
     1 16J402      1 GROUP   
@<TRIPOS>SET

