#    Name: 1svh_I08_1_INTS_M
#    Modification time : Tue Mar 25 02:49:20 2014

@<TRIPOS>MOLECULE
1svh_I08_1_INTS_M
  112     0    12     0     0
SMALL
NO_CHARGES


@<TRIPOS>ATOM
      1 CA         37.5935   16.8215    7.1100 C.3       4 GLC5        0.0000 
      2 CA         36.2690   16.2010    7.8140 C.3      12 GLL5        0.0000 
      3 CA         38.9180   17.4420    6.4060 C.3       8 GLP5        0.0000 
      4 CA         36.8580   14.9300    6.7695 C.3       4 GLC5        0.0000 
      5 CA         37.4470   13.6590    5.7250 C.3       8 GLP5        0.0000 
      6 CA         37.1375   13.2015    7.7915 C.3       4 GLC5        0.0000 
      7 CA         36.8280   12.7440    9.8580 C.3      12 GLL5        0.0000 
      8 CA         38.2735   11.8025    8.7425 C.3       4 GLC5        0.0000 
      9 CA         39.7190   10.8610    7.6270 C.3       8 GLP5        0.0000 
     10 CA         36.0250   10.9705    9.7500 C.3       4 GLC5        0.0000 
     11 CA         35.2220    9.1970    9.6420 C.3       8 GLP5        0.0000 
     12 CA         36.9605   13.5510   11.5495 C.3       4 GLC5        0.0000 
     13 CA         37.0930   14.3580   13.2410 C.3       8 GLP5        0.0000 
     14 CA         34.7365   11.3180    9.2465 C.3       4 GLC5        0.0000 
     15 CA         34.2510   13.4390    8.8510 C.3      12 GLL5        0.0000 
     16 CA         32.1275   14.4845    5.6240 C.3       4 GLC5        0.0000 
     17 CA         32.8590   14.9150    7.4870 C.3      12 GLL5        0.0000 
     18 CA         31.3960   14.0540    3.7610 C.3       8 GLP5        0.0000 
     19 N          30.5415   16.0610    7.5485 N.am      2 SEC2        0.0000 
     20 N          31.7240   15.1980    6.9160 N.am     10 SEL2        0.0000 
     21 N          29.3590   16.9240    8.1810 N.am      6 SEP2        0.0000 
     22 O          30.8870   14.2660    7.2855 O.2       1 ALC1        0.0000 
     23 O          31.7240   15.1980    6.9160 O.2       9 ALL1        0.0000 
     24 O          30.0500   13.3340    7.6550 O.2       5 ALP1        0.0000 
     25 CA         33.1025   16.0740    5.3695 C.3       4 GLC5        0.0000 
     26 CA         33.9910   15.7570    7.3450 C.3      12 GLL5        0.0000 
     27 CA         32.2140   16.3910    3.3940 C.3       8 GLP5        0.0000 
     28 N          35.7530   17.3495    4.7560 N.am      2 SEC2        0.0000 
     29 N          34.5150   16.9800    5.4770 N.am     10 SEL2        0.0000 
     30 N          36.9910   17.7190    4.0350 N.am      6 SEP2        0.0000 
     31 CA         31.7620   21.1770    4.5680 C.3       4 GLC5        0.0000 
     32 CA         32.0510   20.1800    6.2420 C.3      12 GLL5        0.0000 
     33 CA         31.4730   22.1740    2.8940 C.3       8 GLP5        0.0000 
     34 CA         31.4740   24.0125   14.4335 C.3       4 GLC5        0.0000 
     35 CA         30.9480   23.6260   12.3880 C.3      12 GLL5        0.0000 
     36 CA         32.0000   24.3990   16.4790 C.3       8 GLP5        0.0000 
     37 OD1        29.4320   24.6640   12.2755 O.co2     3 ASC3        0.0000 
     38 OD1        29.7770   22.7130   12.5480 O.co2    11 ASL3        0.0000 
     39 OD1        29.0870   26.6150   12.0030 O.co2     7 ASP3        0.0000 
     40 OD1        30.1730   21.0790   12.0705 O.co2     3 ASC3        0.0000 
     41 OD1        30.5690   19.4450   11.5930 O.co2     7 ASP3        0.0000 
     42 OD1        29.2135   21.3610   12.4455 O.co2     3 ASC3        0.0000 
     43 OD1        28.6500   20.0090   12.3430 O.co2     7 ASP3        0.0000 
     44 CA         28.0075   25.1260   12.8475 C.3       4 GLC5        0.0000 
     45 CA         28.5170   23.2130   11.9460 C.3      12 GLL5        0.0000 
     46 CA         27.4980   27.0390   13.7490 C.3       8 GLP5        0.0000 
     47 CA         26.7500   23.6745   12.9795 C.3       4 GLC5        0.0000 
     48 CA         24.9830   24.1360   14.0130 C.3       8 GLP5        0.0000 
     49 O          27.2055   24.8285   10.0705 O.2       1 ALC1        0.0000 
     50 O          27.0710   23.2800   10.0710 O.2       9 ALL1        0.0000 
     51 O          27.3400   26.3770   10.0700 O.2       5 ALP1        0.0000 
     52 N          27.1390   20.0875    9.7440 N.am      2 SEC2        0.0000 
     53 N          26.1490   21.3000    9.6080 N.am     10 SEL2        0.0000 
     54 N          28.1290   18.8750    9.8800 N.am      6 SEP2        0.0000 
     55 CA         24.1645   23.7990   11.4740 C.3       4 GLC5        0.0000 
     56 CA         24.6550   23.0800    9.4930 C.3      12 GLL5        0.0000 
     57 CA         23.6740   24.5180   13.4550 C.3       8 GLP5        0.0000 
     58 CA         23.5405   20.1350    8.7290 C.3       4 GLC5        0.0000 
     59 CA         23.5840   22.1760    9.3710 C.3      12 GLL5        0.0000 
     60 CA         23.4970   18.0940    8.0870 C.3       8 GLP5        0.0000 
     61 CA         21.2175   20.8610   10.0070 C.3       4 GLC5        0.0000 
     62 CA         22.2970   22.6250    9.2180 C.3      12 GLL5        0.0000 
     63 CA         20.1380   19.0970   10.7960 C.3       8 GLP5        0.0000 
     64 CA         20.4440   23.3945    8.3415 C.3       4 GLC5        0.0000 
     65 CA         18.5910   24.1640    7.4650 C.3       8 GLP5        0.0000 
     66 CA         20.8380   22.9110   10.5300 C.3       4 GLC5        0.0000 
     67 CA         19.3790   23.1970   11.8420 C.3       8 GLP5        0.0000 
     68 N          20.6230   24.5025    9.4070 N.am      2 SEC2        0.0000 
     69 N          22.0460   23.9910    9.1270 N.am     10 SEL2        0.0000 
     70 N          19.2000   25.0140    9.6870 N.am      6 SEP2        0.0000 
     71 CA         22.5545   23.7700    7.5500 C.3       4 GLC5        0.0000 
     72 CA         23.0790   24.9140    9.2220 C.3      12 GLL5        0.0000 
     73 CA         22.0300   22.6260    5.8780 C.3       8 GLP5        0.0000 
     74 CA         21.3635   24.7910   10.6540 C.3       4 GLC5        0.0000 
     75 CA         19.6480   24.6680   12.0860 C.3       8 GLP5        0.0000 
     76 CA         33.7703   12.2118    6.9260 C.3       4 GLC5        0.0000 
     77 CA         33.0460   13.7300    8.2610 C.3      12 GLL5        0.0000 
     78 CA         33.8920   10.8390    5.2960 C.3       8 GLP5        0.0000 
     79 CA         32.6842   13.1597    9.9410 C.3       4 GLC5        0.0000 
     80 CA         31.7200   12.7350   11.3260 C.3       8 GLP5        0.0000 
     81 CA         34.2263   19.5437    7.2515 C.3       4 GLC5        0.0000 
     82 CA         32.6400   18.2520    8.2050 C.3      12 GLL5        0.0000 
     83 CA         35.5790   20.9090    6.9670 C.3       8 GLP5        0.0000 
     84 CA         30.9193   17.9558    7.2575 C.3       4 GLC5        0.0000 
     85 CA         33.1070   18.1050    6.8670 C.3      12 GLL5        0.0000 
     86 CA         28.9650   17.7330    6.9790 C.3       8 GLP5        0.0000 
     87 CA         32.5862   17.4865    4.8838 C.3       4 GLC5        0.0000 
     88 CA         33.6580   20.3865    7.5275 C.3       4 GLC5        0.0000 
     89 CA         31.5830   20.3500    7.5990 C.3      12 GLL5        0.0000 
     90 CA         34.0048   20.2643    6.5140 C.3       4 GLC5        0.0000 
     91 CA         30.6978   18.6762    6.5200 C.3       4 GLC5        0.0000 
     92 CA         32.8100   19.0590    5.8800 C.3      12 GLL5        0.0000 
     93 CA         29.8410   20.7670    6.4823 C.3       4 GLC5        0.0000 
     94 CA         27.8650   21.2690    6.0440 C.3       8 GLP5        0.0000 
     95 CA         32.4510   22.4447    6.7009 C.3       4 GLC5        0.0000 
     96 CA         30.8150   21.5280    7.9710 C.3      12 GLL5        0.0000 
     97 CA         33.5860   23.9930    5.9560 C.3       8 GLP5        0.0000 
     98 CA         30.1205   19.2145    7.5042 C.3       4 GLC5        0.0000 
     99 CA         30.3175   24.7963    8.3458 C.3       4 GLC5        0.0000 
    100 CA         29.4440   22.8840    9.5330 C.3      12 GLL5        0.0000 
    101 CA         30.6520   26.1740    6.9610 C.3       8 GLP5        0.0000 
    102 CA         28.9180   21.7507    7.5470 C.3       4 GLC5        0.0000 
    103 CA         24.1857   21.6020   11.0800 C.3       4 GLC5        0.0000 
    104 CA         24.2520   20.5760   12.7280 C.3       8 GLP5        0.0000 
    105 CA         22.6191   22.6263    7.6015 C.3       4 GLC5        0.0000 
    106 CA         23.7873   25.7112    7.4972 C.3       4 GLC5        0.0000 
    107 CA         23.8420   26.7310    5.6780 C.3       8 GLP5        0.0000 
    108 CA         23.7763   25.2933   11.0587 C.3       4 GLC5        0.0000 
    109 CA         23.8200   25.8950   12.8010 C.3       8 GLP5        0.0000 
    110 CA         25.0899   23.2108    7.5367 C.3       4 GLC5        0.0000 
    111 CA         24.3860   24.4690    9.4110 C.3      12 GLL5        0.0000 
    112 CA         25.9270   22.8730    5.6520 C.3       8 GLP5        0.0000 
@<TRIPOS>BOND
@<TRIPOS>SUBSTRUCTURE
     1 ALC1       22 GROUP        1 X    ALC  0     ROOT ALC X 1
     2 SEC2       19 GROUP        1 X    SEC  0     **** SEC X 2
     3 ASC3       37 GROUP        1 X    ASC  0     **** ASC X 3
     4 GLC5        1 GROUP        1 X    GLC  0     **** GLC X 6
     5 ALP1       24 GROUP        1 Y    ALP  0     ROOT ALP Y 8
     6 SEP2       21 GROUP        1 Y    SEP  0     **** SEP Y 9
     7 ASP3       39 GROUP        1 Y    ASP  0     **** ASP Y 10
     8 GLP5        3 GROUP        1 Y    GLP  0     **** GLP Y 13
     9 ALL1       23 GROUP        1 Z    ALL  0     ROOT ALL Z 15
    10 SEL2       20 GROUP        1 Z    SEL  0     **** SEL Z 16
    11 ASL3       38 GROUP        1 Z    ASL  0     **** ASL Z 17
    12 GLL5        2 GROUP        1 Z    GLL  0     **** GLL Z 20
@<TRIPOS>SET

