#    Name: 1svh_I08_1_ligand
#    Modification time : Tue Mar 25 02:49:21 2014

@<TRIPOS>MOLECULE
1svh_I08_1_ligand
   63    66     1     0     0
SMALL
NO_CHARGES


@<TRIPOS>ATOM
      1 F96        36.2690   16.2010    7.8140 F         1 I08351      0.0000 
      2 C76        35.2130   15.3860    7.9370 C.ar      1 I08351      0.0000 
      3 C75        35.3840   14.2780    8.6890 C.ar      1 I08351      0.0000 
      4 O95        36.6400   14.0420    9.2690 O.3       1 I08351      0.0000 
      5 C98        36.8280   12.7440    9.8580 C.3       1 I08351      0.0000 
      6 C74        34.2510   13.4390    8.8510 C.ar      1 I08351      0.0000 
      7 C73        33.0460   13.7300    8.2610 C.ar      1 I08351      0.0000 
      8 C72        32.8590   14.9150    7.4870 C.ar      1 I08351      0.0000 
      9 O92        31.7240   15.1980    6.9160 O.3       1 I08351      0.0000 
     10 C71        33.9910   15.7570    7.3450 C.ar      1 I08351      0.0000 
     11 C61        33.9010   16.9490    6.5340 C.2       1 I08351      0.0000 
     12 O62        34.5150   16.9800    5.4770 O.2       1 I08351      0.0000 
     13 C54        33.1070   18.1050    6.8670 C.ar      1 I08351      0.0000 
     14 C55        32.6400   18.2520    8.2050 C.ar      1 I08351      0.0000 
     15 C56        31.8910   19.3780    8.5770 C.ar      1 I08351      0.0000 
     16 C53        32.8100   19.0590    5.8800 C.ar      1 I08351      0.0000 
     17 C52        32.0510   20.1800    6.2420 C.ar      1 I08351      0.0000 
     18 C51        31.5830   20.3500    7.5990 C.ar      1 I08351      0.0000 
     19 C42        30.8150   21.5280    7.9710 C.2       1 I08351      0.0000 
     20 C41        30.1810   21.6340    9.1630 C.2       1 I08351      0.0000 
     21 C37        29.4440   22.8840    9.5330 C.3       1 I08351      0.0000 
     22 C36        30.5220   23.9530    9.9280 C.3       1 I08351      0.0000 
     23 C35        31.5550   23.4730   10.9920 C.3       1 I08351      0.0000 
     24 C34        30.9480   23.6260   12.3880 C.3       1 I08351      0.0000 
     25 N33        29.7770   22.7130   12.5480 N.4       1 I08351      0.0000 
     26 C32        28.5170   23.2130   11.9460 C.3       1 I08351      0.0000 
     27 C31        28.3080   22.6650   10.5580 C.3       1 I08351      0.0000 
     28 N23        27.0710   23.2800   10.0710 N.am      1 I08351      0.0000 
     29 C21        25.9750   22.5110    9.6990 C.2       1 I08351      0.0000 
     30 O22        26.1490   21.3000    9.6080 O.2       1 I08351      0.0000 
     31 C14        24.6550   23.0800    9.4930 C.ar      1 I08351      0.0000 
     32 C13        23.5840   22.1760    9.3710 C.ar      1 I08351      0.0000 
     33 C12        22.2970   22.6250    9.2180 C.ar      1 I08351      0.0000 
     34 N11        22.0460   23.9910    9.1270 N.ar      1 I08351      0.0000 
     35 C16        23.0790   24.9140    9.2220 C.ar      1 I08351      0.0000 
     36 C15        24.3860   24.4690    9.4110 C.ar      1 I08351      0.0000 
     37 H          34.3564   12.5863    9.4355 H         1 I08351      0.0000 
     38 H          32.2382   13.0889    8.3661 H         1 I08351      0.0000 
     39 H          32.8578   17.5252    8.8926 H         1 I08351      0.0000 
     40 H          31.5726   19.4972    9.5340 H         1 I08351      0.0000 
     41 H          33.1375   18.9383    4.9288 H         1 I08351      0.0000 
     42 H          31.8151   20.8974    5.5516 H         1 I08351      0.0000 
     43 H          30.7768   22.2944    7.2666 H         1 I08351      0.0000 
     44 H          30.1690   20.8851    9.8625 H         1 I08351      0.0000 
     45 H          28.9797   23.2724    8.5907 H         1 I08351      0.0000 
     46 H          30.0042   24.8410   10.3136 H         1 I08351      0.0000 
     47 H          31.0625   24.2516    9.0203 H         1 I08351      0.0000 
     48 H          32.4428   24.0796   10.9102 H         1 I08351      0.0000 
     49 H          31.7874   22.4366   10.8053 H         1 I08351      0.0000 
     50 H          30.6377   24.6626   12.5228 H         1 I08351      0.0000 
     51 H          31.7122   23.3908   13.1294 H         1 I08351      0.0000 
     52 H          28.5356   24.3113   11.8973 H         1 I08351      0.0000 
     53 H          27.6621   22.9267   12.5755 H         1 I08351      0.0000 
     54 H          28.1276   21.5836   10.6409 H         1 I08351      0.0000 
     55 H          27.0450   24.3057   10.0149 H         1 I08351      0.0000 
     56 H          23.7859   21.1611    9.3989 H         1 I08351      0.0000 
     57 H          21.5117   21.9600    9.1696 H         1 I08351      0.0000 
     58 H          22.8835   25.9186    9.1537 H         1 I08351      0.0000 
     59 H          25.1575   25.1357    9.4917 H         1 I08351      0.0000 
     60 H          37.7415   12.6439   10.2523 H         1 I08351      0.0000 
     61 H          36.1713   12.5706   10.5920 H         1 I08351      0.0000 
     62 H          36.7168   12.0117    9.1862 H         1 I08351      0.0000 
     63 H          31.2993   14.3117    6.7314 H         1 I08351      0.0000 
@<TRIPOS>BOND
     1    2    1 1    
     2    3    2 ar   
     3   10    2 ar   
     4    4    3 1    
     5    6    3 ar   
     6    5    4 1    
     7   60    5 1    
     8   61    5 1    
     9   62    5 1    
    10    7    6 ar   
    11   37    6 1    
    12    8    7 ar   
    13   38    7 1    
    14    9    8 1    
    15   10    8 ar   
    16   63    9 1    
    17   11   10 1    
    18   12   11 2    
    19   13   11 1    
    20   14   13 ar   
    21   16   13 ar   
    22   15   14 ar   
    23   39   14 1    
    24   18   15 ar   
    25   40   15 1    
    26   17   16 ar   
    27   41   16 1    
    28   18   17 ar   
    29   42   17 1    
    30   19   18 1    
    31   20   19 2    
    32   43   19 1    
    33   21   20 1    
    34   44   20 1    
    35   22   21 1    
    36   27   21 1    
    37   45   21 1    
    38   23   22 1    
    39   46   22 1    
    40   47   22 1    
    41   24   23 1    
    42   48   23 1    
    43   49   23 1    
    44   25   24 1    
    45   50   24 1    
    46   51   24 1    
    47   26   25 1    
    48   27   26 1    
    49   52   26 1    
    50   53   26 1    
    51   28   27 1    
    52   54   27 1    
    53   29   28 am   
    54   55   28 1    
    55   30   29 2    
    56   31   29 1    
    57   32   31 ar   
    58   36   31 ar   
    59   33   32 ar   
    60   56   32 1    
    61   34   33 ar   
    62   57   33 1    
    63   35   34 ar   
    64   36   35 ar   
    65   58   35 1    
    66   59   36 1    
@<TRIPOS>SUBSTRUCTURE
     1 I08351      1 GROUP   
@<TRIPOS>SET

