#    Name: 3kpz_ZNE_1_INTS_M
#    Modification time : Mon Mar 24 20:06:46 2014

@<TRIPOS>MOLECULE
3kpz_ZNE_1_INTS_M
  119     0     9     0     0
SMALL
NO_CHARGES


@<TRIPOS>ATOM
      1 CA         14.4170   17.2775   37.4230 C.3       3 GLC5        0.0000 
      2 CA         14.2050   17.4630   35.4920 C.3       9 GLL5        0.0000 
      3 CA         14.6290   17.0920   39.3540 C.3       6 GLP5        0.0000 
      4 CA         15.6685   18.6810   36.2985 C.3       3 GLC5        0.0000 
      5 CA         17.1320   19.8990   37.1050 C.3       6 GLP5        0.0000 
      6 N          13.2385   15.6990   37.0255 N.am      2 SEC2        0.0000 
      7 N          13.1600   16.9470   36.3920 N.am      8 SEL2        0.0000 
      8 N          13.3170   14.4510   37.6590 N.am      5 SEP2        0.0000 
      9 O          11.9215   16.6380   35.8200 O.2       1 ALC1        0.0000 
     10 O          13.1600   16.9470   36.3920 O.2       7 ALL1        0.0000 
     11 O          10.6830   16.3290   35.2480 O.2       4 ALP1        0.0000 
     12 CA         16.1580   15.4975   35.7905 C.3       3 GLC5        0.0000 
     13 CA         14.8380   16.3070   34.6130 C.3       9 GLL5        0.0000 
     14 CA         17.4780   14.6880   36.9680 C.3       6 GLP5        0.0000 
     15 N          18.0090   16.5860   34.8740 N.am      2 SEC2        0.0000 
     16 N          17.1090   17.5140   34.4130 N.am      8 SEL2        0.0000 
     17 N          18.9090   15.6580   35.3350 N.am      5 SEP2        0.0000 
     18 O          17.9410   18.4430   33.8055 O.2       1 ALC1        0.0000 
     19 O          17.1090   17.5140   34.4130 O.2       7 ALL1        0.0000 
     20 O          18.7730   19.3720   33.1980 O.2       4 ALP1        0.0000 
     21 CA         17.2515   15.7510   34.8355 C.3       3 GLC5        0.0000 
     22 CA         15.9900   16.9410   33.6170 C.3       9 GLL5        0.0000 
     23 CA         18.5130   14.5610   36.0540 C.3       6 GLP5        0.0000 
     24 CA         17.1445   15.7410   32.8945 C.3       3 GLC5        0.0000 
     25 CA         18.2990   14.5410   32.1720 C.3       6 GLP5        0.0000 
     26 N           5.5415   27.9120   34.1030 N.am      2 SEC2        0.0000 
     27 N           4.9860   26.7920   34.6170 N.am      8 SEL2        0.0000 
     28 N           6.0970   29.0320   33.5890 N.am      5 SEP2        0.0000 
     29 O           5.1815   26.7715   35.9615 O.2       1 ALC1        0.0000 
     30 O           4.9860   26.7920   34.6170 O.2       7 ALL1        0.0000 
     31 O           5.3770   26.7510   37.3060 O.2       4 ALP1        0.0000 
     32 CA         14.7700   16.5045   31.6365 C.3       3 GLC5        0.0000 
     33 CA         15.4160   18.1130   32.7260 C.3       9 GLL5        0.0000 
     34 CA         14.1240   14.8960   30.5470 C.3       6 GLP5        0.0000 
     35 CA         13.4230   17.5570   32.0680 C.3       3 GLC5        0.0000 
     36 CA         11.4300   17.0010   31.4100 C.3       6 GLP5        0.0000 
     37 CA         15.6865   23.8100   33.7965 C.3       3 GLC5        0.0000 
     38 CA         14.0480   22.9050   33.4880 C.3       9 GLL5        0.0000 
     39 CA         17.3250   24.7150   34.1050 C.3       6 GLP5        0.0000 
     40 CA         15.9185   23.9250   32.3360 C.3       3 GLC5        0.0000 
     41 CA         14.3880   23.3230   31.9630 C.3       9 GLL5        0.0000 
     42 CA         17.4490   24.5270   32.7090 C.3       6 GLP5        0.0000 
     43 CA         12.5120   17.7945   32.9995 C.3       3 GLC5        0.0000 
     44 CA         13.5940   18.5880   34.5890 C.3       9 GLL5        0.0000 
     45 CA         14.8880   19.7960   35.6110 C.3       3 GLC5        0.0000 
     46 CA         16.1820   21.0040   36.6330 C.3       6 GLP5        0.0000 
     47 CA         11.6930   23.3495   29.8340 C.3       3 GLC5        0.0000 
     48 CA         13.0510   23.8250   31.1070 C.3       9 GLL5        0.0000 
     49 CA         10.3350   22.8740   28.5610 C.3       6 GLP5        0.0000 
     50 CA         15.0855   24.7065   31.4795 C.3       3 GLC5        0.0000 
     51 CA         17.1200   25.5880   31.8520 C.3       6 GLP5        0.0000 
     52 CA         10.6980   24.9805   30.3685 C.3       3 GLC5        0.0000 
     53 CA         12.0860   24.8150   31.9660 C.3       9 GLL5        0.0000 
     54 CA          9.3100   25.1460   28.7710 C.3       6 GLP5        0.0000 
     55 CA         12.3785   26.6780   31.3045 C.3       3 GLC5        0.0000 
     56 CA         12.6710   28.5410   30.6430 C.3       6 GLP5        0.0000 
     57 CA         15.1565   24.9860   34.4625 C.3       3 GLC5        0.0000 
     58 CA         13.4280   24.0560   34.2610 C.3       9 GLL5        0.0000 
     59 CA         16.8850   25.9160   34.6640 C.3       6 GLP5        0.0000 
     60 CA         14.5780   22.4155   36.2615 C.3       3 GLC5        0.0000 
     61 CA         12.9740   23.8270   35.8900 C.3       9 GLL5        0.0000 
     62 CA          9.2795   22.2695   33.8190 C.3       3 GLC5        0.0000 
     63 CA         10.8860   23.1730   33.5030 C.3       9 GLL5        0.0000 
     64 CA          7.6730   21.3660   34.1350 C.3       6 GLP5        0.0000 
     65 CA         11.5270   18.6940   33.0230 C.3       3 GLC5        0.0000 
     66 CA         12.2300   18.9920   34.6970 C.3       9 GLL5        0.0000 
     67 CA         10.8240   18.3960   31.3490 C.3       6 GLP5        0.0000 
     68 CA         11.0720   17.6455   35.5690 C.3       3 GLC5        0.0000 
     69 CA          9.9140   16.2990   36.4410 C.3       6 GLP5        0.0000 
     70 CA         11.7195   19.9300   36.2370 C.3       3 GLC5        0.0000 
     71 CA         11.2090   20.8680   37.7770 C.3       6 GLP5        0.0000 
     72 CA         10.7810   27.3435   37.4545 C.3       3 GLC5        0.0000 
     73 CA         10.5160   27.4280   35.2280 C.3       9 GLL5        0.0000 
     74 CA         11.0460   27.2590   39.6810 C.3       6 GLP5        0.0000 
     75 CA          9.7355   29.1095   35.8920 C.3       3 GLC5        0.0000 
     76 CA          8.9550   30.7910   36.5560 C.3       6 GLP5        0.0000 
     77 CA         12.2675   27.8910   35.5845 C.3       3 GLC5        0.0000 
     78 CA         14.0190   28.3540   35.9410 C.3       6 GLP5        0.0000 
     79 CA          5.8980   26.6650   35.7700 C.3       3 GLC5        0.0000 
     80 CA          5.4570   25.6830   33.8360 C.3       9 GLL5        0.0000 
     81 CA          6.3390   27.6470   37.7040 C.3       6 GLP5        0.0000 
     82 CA          3.7750   21.7560   32.0630 C.3       3 GLC5        0.0000 
     83 CA          3.2880   22.7060   33.4400 C.3       9 GLL5        0.0000 
     84 CA          4.2620   20.8060   30.6860 C.3       6 GLP5        0.0000 
     85 CA          4.9745   21.5050   33.9800 C.3       3 GLC5        0.0000 
     86 CA          6.6610   20.3040   34.5200 C.3       6 GLP5        0.0000 
     87 CA         14.7690   15.7600   32.3310 C.3       3 GLC5        0.0000 
     88 CA         17.7325   17.9995   32.9567 C.3       3 GLC5        0.0000 
     89 CA         19.7620   18.4720   32.7420 C.3       6 GLP5        0.0000 
     90 CA         16.6155   17.7120   31.5287 C.3       3 GLC5        0.0000 
     91 CA         17.5280   17.8970   29.8860 C.3       6 GLP5        0.0000 
     92 CA         13.2690   19.6320   32.0740 C.3       3 GLC5        0.0000 
     93 CA         14.6500   19.2180   33.5360 C.3       9 GLL5        0.0000 
     94 CA         11.7850   19.3750   30.6960 C.3       6 GLP5        0.0000 
     95 CA         15.4675   20.4465   35.0425 C.3       3 GLC5        0.0000 
     96 CA         16.3113   21.8968   33.7163 C.3       3 GLC5        0.0000 
     97 CA         14.8560   20.5600   33.3680 C.3       9 GLL5        0.0000 
     98 CA         18.0620   22.6380   33.7460 C.3       6 GLP5        0.0000 
     99 CA         15.1692   21.6660   35.1898 C.3       3 GLC5        0.0000 
    100 CA         14.2650   21.7510   34.0050 C.3       9 GLL5        0.0000 
    101 CA         14.5723   23.6100   29.8525 C.3       3 GLC5        0.0000 
    102 CA         15.4250   23.6460   28.1700 C.3       6 GLP5        0.0000 
    103 CA         11.8127   22.6242   36.8762 C.3       3 GLC5        0.0000 
    104 CA         12.5397   24.7078   38.0263 C.3       3 GLC5        0.0000 
    105 CA         12.6630   25.0350   40.0770 C.3       6 GLP5        0.0000 
    106 CA         12.9157   26.8402   35.6435 C.3       3 GLC5        0.0000 
    107 CA         11.8590   24.9340   36.0610 C.3       9 GLL5        0.0000 
    108 CA         10.5762   28.3300   33.1255 C.3       3 GLC5        0.0000 
    109 CA         10.7410   29.7720   31.6280 C.3       6 GLP5        0.0000 
    110 CA          7.3570   26.9265   35.9252 C.3       3 GLC5        0.0000 
    111 CA          8.9300   25.8440   34.5090 C.3       9 GLL5        0.0000 
    112 CA          6.6501   27.7709   33.1565 C.3       3 GLC5        0.0000 
    113 CA          7.8200   26.5680   33.7840 C.3       9 GLL5        0.0000 
    114 CA          6.9010   29.6290   32.6500 C.3       6 GLP5        0.0000 
    115 CA          1.4976   23.5190   32.6135 C.3       3 GLC5        0.0000 
    116 CA          0.0520   23.5890   31.3730 C.3       6 GLP5        0.0000 
    117 CA          1.4752   22.2330   34.3367 C.3       3 GLC5        0.0000 
    118 CA          2.2770   23.4180   34.0790 C.3       9 GLL5        0.0000 
    119 CA          0.1680   21.4040   34.9140 C.3       6 GLP5        0.0000 
@<TRIPOS>BOND
@<TRIPOS>SUBSTRUCTURE
     1 ALC1        9 GROUP        1 X    ALC  0     ROOT ALC X 1
     2 SEC2        6 GROUP        1 X    SEC  0     **** SEC X 2
     3 GLC5        1 GROUP        1 X    GLC  0     **** GLC X 6
     4 ALP1       11 GROUP        1 Y    ALP  0     ROOT ALP Y 8
     5 SEP2        8 GROUP        1 Y    SEP  0     **** SEP Y 9
     6 GLP5        3 GROUP        1 Y    GLP  0     **** GLP Y 13
     7 ALL1       10 GROUP        1 Z    ALL  0     ROOT ALL Z 15
     8 SEL2        7 GROUP        1 Z    SEL  0     **** SEL Z 16
     9 GLL5        2 GROUP        1 Z    GLL  0     **** GLL Z 20
@<TRIPOS>SET

