#    Name: 3kpz_ZNE_1_ligand
#    Modification time : Mon Mar 24 20:06:46 2014

@<TRIPOS>MOLECULE
3kpz_ZNE_1_ligand
   72    75     1     0     0
SMALL
NO_CHARGES


@<TRIPOS>ATOM
      1 C1         14.2050   17.4630   35.4920 C.3       1 ZNE525      0.0000 
      2 N1          4.4730   23.3630   33.2760 N.2       1 ZNE525      0.0000 
      3 O1         13.1600   16.9470   36.3920 O.3       1 ZNE525      0.0000 
      4 S1          2.9200   24.9660   34.4570 S.3       1 ZNE525      0.0000 
      5 C2         14.8380   16.3070   34.6130 C.3       1 ZNE525      0.0000 
      6 O2         17.1090   17.5140   34.4130 O.3       1 ZNE525      0.0000 
      7 C3         15.9900   16.9410   33.6170 C.3       1 ZNE525      0.0000 
      8 O3          4.9860   26.7920   34.6170 O.3       1 ZNE525      0.0000 
      9 C4         15.4160   18.1130   32.7260 C.3       1 ZNE525      0.0000 
     10 C5         14.6500   19.2180   33.5360 C.2       1 ZNE525      0.0000 
     11 C6         14.8560   20.5600   33.3680 C.2       1 ZNE525      0.0000 
     12 C7         14.2650   21.7510   34.0050 C.2       1 ZNE525      0.0000 
     13 C8         14.0480   22.9050   33.4880 C.2       1 ZNE525      0.0000 
     14 C9         14.3880   23.3230   31.9630 C.3       1 ZNE525      0.0000 
     15 C10        13.5940   18.5880   34.5890 C.2       1 ZNE525      0.0000 
     16 C11        13.0510   23.8250   31.1070 C.3       1 ZNE525      0.0000 
     17 C12        12.0860   24.8150   31.9660 C.3       1 ZNE525      0.0000 
     18 C13        12.0170   24.5300   33.6170 C.3       1 ZNE525      0.0000 
     19 C14        13.4280   24.0560   34.2610 C.3       1 ZNE525      0.0000 
     20 C15        12.9740   23.8270   35.8900 C.3       1 ZNE525      0.0000 
     21 C16        11.8590   24.9340   36.0610 C.3       1 ZNE525      0.0000 
     22 C17        11.7660   25.7190   34.6310 C.3       1 ZNE525      0.0000 
     23 C18        10.8860   23.1730   33.5030 C.3       1 ZNE525      0.0000 
     24 C19        12.2300   18.9920   34.6970 C.2       1 ZNE525      0.0000 
     25 C20        10.3070   26.3480   34.0180 C.3       1 ZNE525      0.0000 
     26 C21        10.5160   27.4280   35.2280 C.3       1 ZNE525      0.0000 
     27 C22         8.9300   25.8440   34.5090 C.3       1 ZNE525      0.0000 
     28 C23         7.8200   26.5680   33.7840 C.3       1 ZNE525      0.0000 
     29 C24         6.8630   25.7170   33.1960 C.3       1 ZNE525      0.0000 
     30 C25         5.4570   25.6830   33.8360 C.3       1 ZNE525      0.0000 
     31 C26         4.4620   24.6170   33.7720 C.2       1 ZNE525      0.0000 
     32 C27         3.2880   22.7060   33.4400 C.2       1 ZNE525      0.0000 
     33 C31         2.2770   23.4180   34.0790 C.2       1 ZNE525      0.0000 
     34 H          15.0076   17.9108   36.0653 H         1 ZNE525      0.0000 
     35 H          14.0900   15.8704   33.9947 H         1 ZNE525      0.0000 
     36 H          15.3191   15.5956   35.2413 H         1 ZNE525      0.0000 
     37 H          16.3277   16.1641   32.9819 H         1 ZNE525      0.0000 
     38 H          14.7348   17.6823   31.9877 H         1 ZNE525      0.0000 
     39 H          16.2484   18.5804   32.1940 H         1 ZNE525      0.0000 
     40 H          15.6153   20.8443   32.6054 H         1 ZNE525      0.0000 
     41 H          14.0018   21.5557   35.0492 H         1 ZNE525      0.0000 
     42 H          14.7950   22.4719   31.4474 H         1 ZNE525      0.0000 
     43 H          15.0869   24.1399   31.9697 H         1 ZNE525      0.0000 
     44 H          12.4958   22.9486   30.8359 H         1 ZNE525      0.0000 
     45 H          13.4030   24.3494   30.2405 H         1 ZNE525      0.0000 
     46 H          11.0710   24.7279   31.5885 H         1 ZNE525      0.0000 
     47 H          12.4302   25.8373   31.8368 H         1 ZNE525      0.0000 
     48 H          14.0339   24.9473   34.2761 H         1 ZNE525      0.0000 
     49 H          13.8056   24.0490   36.4504 H         1 ZNE525      0.0000 
     50 H          12.5709   22.8838   35.9425 H         1 ZNE525      0.0000 
     51 H          12.1541   25.6315   36.7928 H         1 ZNE525      0.0000 
     52 H          10.9259   24.4798   36.2404 H         1 ZNE525      0.0000 
     53 H          12.5207   26.3914   34.4998 H         1 ZNE525      0.0000 
     54 H          10.4436   26.8202   33.2355 H         1 ZNE525      0.0000 
     55 H           8.8560   26.0243   35.5775 H         1 ZNE525      0.0000 
     56 H           8.8640   24.7766   34.3193 H         1 ZNE525      0.0000 
     57 H           8.2979   27.2326   33.0210 H         1 ZNE525      0.0000 
     58 H           7.3463   27.2701   34.5154 H         1 ZNE525      0.0000 
     59 H           7.2226   24.6465   33.1709 H         1 ZNE525      0.0000 
     60 H           6.7056   25.9643   32.1051 H         1 ZNE525      0.0000 
     61 H           4.8851   26.2957   32.6595 H         1 ZNE525      0.0000 
     62 H           3.1407   21.7634   33.1227 H         1 ZNE525      0.0000 
     63 H           1.4358   23.2759   34.3227 H         1 ZNE525      0.0000 
     64 H          11.3170   22.3627   33.1060 H         1 ZNE525      0.0000 
     65 H          10.5329   22.9074   34.4001 H         1 ZNE525      0.0000 
     66 H          10.0962   23.3948   32.9311 H         1 ZNE525      0.0000 
     67 H          11.4319   27.8292   35.2136 H         1 ZNE525      0.0000 
     68 H           9.8639   28.1838   35.1680 H         1 ZNE525      0.0000 
     69 H          10.3946   27.0068   36.1268 H         1 ZNE525      0.0000 
     70 H          12.3752   16.7650   35.7996 H         1 ZNE525      0.0000 
     71 H          17.5757   18.1410   33.7892 H         1 ZNE525      0.0000 
     72 H           5.1293   26.5181   35.5680 H         1 ZNE525      0.0000 
@<TRIPOS>BOND
     1    3    1 1    
     2    5    1 1    
     3   15    1 1    
     4   34    1 1    
     5   31    2 2    
     6   32    2 1    
     7   70    3 1    
     8   31    4 1    
     9   33    4 1    
    10    7    5 1    
    11   35    5 1    
    12   36    5 1    
    13    7    6 1    
    14   71    6 1    
    15    9    7 1    
    16   37    7 1    
    17   30    8 1    
    18   72    8 1    
    19   10    9 1    
    20   38    9 1    
    21   39    9 1    
    22   11   10 2    
    23   15   10 1    
    24   12   11 1    
    25   40   11 1    
    26   13   12 2    
    27   41   12 1    
    28   14   13 1    
    29   19   13 1    
    30   16   14 1    
    31   42   14 1    
    32   43   14 1    
    33   24   15 2    
    34   17   16 1    
    35   44   16 1    
    36   45   16 1    
    37   18   17 1    
    38   46   17 1    
    39   47   17 1    
    40   19   18 1    
    41   22   18 1    
    42   23   18 1    
    43   20   19 1    
    44   48   19 1    
    45   21   20 1    
    46   49   20 1    
    47   50   20 1    
    48   22   21 1    
    49   51   21 1    
    50   52   21 1    
    51   25   22 1    
    52   53   22 1    
    53   64   23 1    
    54   65   23 1    
    55   66   23 1    
    56   26   25 1    
    57   27   25 1    
    58   54   25 1    
    59   67   26 1    
    60   68   26 1    
    61   69   26 1    
    62   28   27 1    
    63   55   27 1    
    64   56   27 1    
    65   29   28 1    
    66   57   28 1    
    67   58   28 1    
    68   30   29 1    
    69   59   29 1    
    70   60   29 1    
    71   31   30 1    
    72   61   30 1    
    73   33   32 2    
    74   62   32 1    
    75   63   33 1    
@<TRIPOS>SUBSTRUCTURE
     1 ZNE525      1 GROUP   
@<TRIPOS>SET

