#    Name: 4hld_16T_1_INTS_M
#    Modification time : Tue Mar 25 01:10:05 2014

@<TRIPOS>MOLECULE
4hld_16T_1_INTS_M
   73     0    12     0     0
SMALL
NO_CHARGES


@<TRIPOS>ATOM
      1 CA         11.1320   -4.6350    1.7145 C.3       4 GLC5        0.0000 
      2 CA         12.3470   -3.3710    0.9020 C.3      12 GLL5        0.0000 
      3 CA          9.9170   -5.8990    2.5270 C.3       8 GLP5        0.0000 
      4 CA         12.9930   -0.3650    1.3450 C.3       4 GLC5        0.0000 
      5 CA         11.4020   -1.2570    1.7220 C.3      12 GLL5        0.0000 
      6 CA         14.5840    0.5270    0.9680 C.3       8 GLP5        0.0000 
      7 N          10.7980    2.5955   -0.8235 N.am      2 SEC2        0.0000 
      8 N          10.3940    1.7850    0.2330 N.am     10 SEL2        0.0000 
      9 N          11.2020    3.4060   -1.8800 N.am      6 SEP2        0.0000 
     10 O          11.0495    0.6485   -1.7940 O.2       1 ALC1        0.0000 
     11 O          11.1950   -0.1280   -0.7020 O.2       9 ALL1        0.0000 
     12 O          10.9040    1.4250   -2.8860 O.2       5 ALP1        0.0000 
     13 N          12.5190   -3.3280   -1.8615 N.am      2 SEC2        0.0000 
     14 N          12.0260   -2.0420   -1.6690 N.am     10 SEL2        0.0000 
     15 N          13.0120   -4.6140   -2.0540 N.am      6 SEP2        0.0000 
     16 N          11.9970   -1.9260   -2.9460 N.am      2 SEC2        0.0000 
     17 N          11.9680   -1.8100   -4.2230 N.am      6 SEP2        0.0000 
     18 CA          8.5980    1.5815    2.0705 C.3       4 GLC5        0.0000 
     19 CA         10.4230    0.7370    2.7410 C.3      12 GLL5        0.0000 
     20 CA          6.7730    2.4260    1.4000 C.3       8 GLP5        0.0000 
     21 CA          9.2720   -1.9350    3.6375 C.3       4 GLC5        0.0000 
     22 CA          9.4230   -0.0370    3.5930 C.3      12 GLL5        0.0000 
     23 CA          9.1210   -3.8330    3.6820 C.3       8 GLP5        0.0000 
     24 CA          7.5750    0.3165    3.1340 C.3       4 GLC5        0.0000 
     25 CA          5.7270    0.6700    2.6750 C.3       8 GLP5        0.0000 
     26 CA          7.5845    1.3635    3.6925 C.3       4 GLC5        0.0000 
     27 CA          8.9300    0.7710    4.7820 C.3      12 GLL5        0.0000 
     28 CA          6.2390    1.9560    2.6030 C.3       8 GLP5        0.0000 
     29 CA         17.7080   -1.0480    5.2060 C.3       4 GLC5        0.0000 
     30 CA         15.8180   -1.1100    4.2390 C.3      12 GLL5        0.0000 
     31 CA         19.5980   -0.9860    6.1730 C.3       8 GLP5        0.0000 
     32 CA         18.3910   -2.5650    0.7245 C.3       4 GLC5        0.0000 
     33 CA         16.8910   -1.8860    2.2330 C.3      12 GLL5        0.0000 
     34 CA         19.8910   -3.2440   -0.7840 C.3       8 GLP5        0.0000 
     35 CA         19.3110   -0.5225    3.1695 C.3       4 GLC5        0.0000 
     36 CA         17.6210   -0.7180    2.1830 C.3      12 GLL5        0.0000 
     37 CA         21.0010   -0.3270    4.1560 C.3       8 GLP5        0.0000 
     38 CA         17.4980    2.3310    2.4530 C.3       4 GLC5        0.0000 
     39 CA         17.4530    0.2450    3.1530 C.3      12 GLL5        0.0000 
     40 CA         17.5430    4.4170    1.7530 C.3       8 GLP5        0.0000 
     41 CA         20.4695   -0.1035   -0.2530 C.3       4 GLC5        0.0000 
     42 CA         18.7460   -0.3830    0.9210 C.3      12 GLL5        0.0000 
     43 CA         22.1930    0.1760   -1.4270 C.3       8 GLP5        0.0000 
     44 CA         20.0730    0.2140    2.0565 C.3       4 GLC5        0.0000 
     45 CA         21.4000    0.8110    3.1920 C.3       8 GLP5        0.0000 
     46 CA         19.0595    1.5560    0.6085 C.3       4 GLC5        0.0000 
     47 CA         19.3730    3.4950    0.2960 C.3       8 GLP5        0.0000 
     48 CA         16.8365   -0.2825    0.3675 C.3       4 GLC5        0.0000 
     49 CA         14.9270   -0.1820   -0.1860 C.3       8 GLP5        0.0000 
     50 CA         19.3185   -1.8135    0.0685 C.3       4 GLC5        0.0000 
     51 NZ         17.2565    0.1290    8.5515 N.4       3 LYC4        0.0000 
     52 NZ         16.1120    0.0490    7.6740 N.4      11 LYL4        0.0000 
     53 NZ         19.2250   -0.2130    8.4820 N.4       7 LYP4        0.0000 
     54 N          17.4360   -0.2350    7.4750 N.am      2 SEC2        0.0000 
     55 N          16.1120    0.0490    7.6740 N.am     10 SEL2        0.0000 
     56 N          18.7600   -0.5190    7.2760 N.am      6 SEP2        0.0000 
     57 N          17.2565    0.1290    8.5515 N.am      2 SEC2        0.0000 
     58 N          18.4010    0.2090    9.4290 N.am      6 SEP2        0.0000 
     59 CA         13.5035   -1.4358    0.3070 C.3       4 GLC5        0.0000 
     60 CA         10.3643   -2.7328    2.4460 C.3       4 GLC5        0.0000 
     61 CA         11.8130   -2.0080    0.6980 C.3      12 GLL5        0.0000 
     62 CA         10.1330   -2.7656    0.4385 C.3       4 GLC5        0.0000 
     63 CA          8.5250   -3.5580   -0.3840 C.3       8 GLP5        0.0000 
     64 CA         12.5770    1.4255    2.0095 C.3       4 GLC5        0.0000 
     65 CA         14.1620    1.8310    0.8760 C.3       8 GLP5        0.0000 
     66 CA         16.1249    2.8754    6.2804 C.3       4 GLC5        0.0000 
     67 CA         15.3290    1.3350    5.8110 C.3      12 GLL5        0.0000 
     68 CA         17.4470    4.1360    6.7110 C.3       8 GLP5        0.0000 
     69 CA         18.5700    0.1505    4.4995 C.3       4 GLC5        0.0000 
     70 CA         16.5550    0.0590    4.1810 C.3      12 GLL5        0.0000 
     71 CA         20.1360    0.1490    5.3320 C.3       8 GLP5        0.0000 
     72 CA         17.8235   -3.1500    3.7912 C.3       4 GLC5        0.0000 
     73 CA         19.2060   -4.3200    4.8350 C.3       8 GLP5        0.0000 
@<TRIPOS>BOND
@<TRIPOS>SUBSTRUCTURE
     1 ALC1       10 GROUP        1 X    ALC  0     ROOT ALC X 1
     2 SEC2        7 GROUP        1 X    SEC  0     **** SEC X 2
     3 LYC4       51 GROUP        1 X    LYC  0     **** LYC X 4
     4 GLC5        1 GROUP        1 X    GLC  0     **** GLC X 6
     5 ALP1       12 GROUP        1 Y    ALP  0     ROOT ALP Y 8
     6 SEP2        9 GROUP        1 Y    SEP  0     **** SEP Y 9
     7 LYP4       53 GROUP        1 Y    LYP  0     **** LYP Y 11
     8 GLP5        3 GROUP        1 Y    GLP  0     **** GLP Y 13
     9 ALL1       11 GROUP        1 Z    ALL  0     ROOT ALL Z 15
    10 SEL2        8 GROUP        1 Z    SEL  0     **** SEL Z 16
    11 LYL4       52 GROUP        1 Z    LYL  0     **** LYL Z 18
    12 GLL5        2 GROUP        1 Z    GLL  0     **** GLL Z 20
@<TRIPOS>SET

