#    Name: 4hld_16T_1_ligand
#    Modification time : Tue Mar 25 01:10:05 2014

@<TRIPOS>MOLECULE
4hld_16T_1_ligand
   54    57     1     0     0
SMALL
NO_CHARGES


@<TRIPOS>ATOM
      1 C1         12.3470   -3.3710    0.9020 C.3       1 16T301      0.0000 
      2 C2         11.8130   -2.0080    0.6980 C.2       1 16T301      0.0000 
      3 C3         11.4020   -1.2570    1.7220 C.2       1 16T301      0.0000 
      4 N4         10.8930    0.0130    1.5930 N.am      1 16T301      0.0000 
      5 C5         10.7990    0.6400    0.3680 C.2       1 16T301      0.0000 
      6 O6         10.3940    1.7850    0.2330 O.2       1 16T301      0.0000 
      7 N7         11.1950   -0.1280   -0.7020 N.am      1 16T301      0.0000 
      8 C8         11.6940   -1.4200   -0.6630 C.2       1 16T301      0.0000 
      9 O9         12.0260   -2.0420   -1.6690 O.2       1 16T301      0.0000 
     10 C10        10.4230    0.7370    2.7410 C.3       1 16T301      0.0000 
     11 C11         9.4230   -0.0370    3.5930 C.3       1 16T301      0.0000 
     12 C12         8.9300    0.7710    4.7820 C.3       1 16T301      0.0000 
     13 C13        10.0970    1.3670    5.5480 C.3       1 16T301      0.0000 
     14 N14        10.9310    2.1550    4.5890 N.pl3     1 16T301      0.0000 
     15 C15        11.5610    1.3030    3.5450 C.3       1 16T301      0.0000 
     16 S16        11.9330    3.3830    5.2320 S.o2      1 16T301      0.0000 
     17 O17        11.1750    4.0580    6.2740 O.2       1 16T301      0.0000 
     18 O18        12.5560    4.0590    4.1090 O.2       1 16T301      0.0000 
     19 C19        13.2160    2.4030    5.9740 C.ar      1 16T301      0.0000 
     20 C20        13.0310    1.9180    7.2510 C.ar      1 16T301      0.0000 
     21 C21        14.0170    1.1330    7.8140 C.ar      1 16T301      0.0000 
     22 C22        15.1540    0.8420    7.0920 C.ar      1 16T301      0.0000 
     23 C23        15.3290    1.3350    5.8110 C.ar      1 16T301      0.0000 
     24 C24        14.3640    2.1410    5.2480 C.ar      1 16T301      0.0000 
     25 O25        16.4990    1.0890    5.1120 O.3       1 16T301      0.0000 
     26 C26        16.5550    0.0590    4.1810 C.ar      1 16T301      0.0000 
     27 C27        15.8180   -1.1100    4.2390 C.ar      1 16T301      0.0000 
     28 C28        15.9910   -2.0740    3.2620 C.ar      1 16T301      0.0000 
     29 C29        16.8910   -1.8860    2.2330 C.ar      1 16T301      0.0000 
     30 C30        17.6210   -0.7180    2.1830 C.ar      1 16T301      0.0000 
     31 C31        17.4530    0.2450    3.1530 C.ar      1 16T301      0.0000 
     32 CL1        18.7460   -0.3830    0.9210 Cl        1 16T301      0.0000 
     33 O33        16.1120    0.0490    7.6740 O.co2     1 16T301      0.0000 
     34 H          11.4663   -1.6545    2.7127 H         1 16T301      0.0000 
     35 H          11.1091    0.3219   -1.6818 H         1 16T301      0.0000 
     36 H           9.8476    1.6452    2.3575 H         1 16T301      0.0000 
     37 H           9.8970   -0.9577    3.9533 H         1 16T301      0.0000 
     38 H           8.5671   -0.3220    2.9698 H         1 16T301      0.0000 
     39 H           8.3553    0.1233    5.4446 H         1 16T301      0.0000 
     40 H           8.2816    1.5733    4.4287 H         1 16T301      0.0000 
     41 H          10.6836    0.5678    5.9828 H         1 16T301      0.0000 
     42 H           9.7179    2.0125    6.3300 H         1 16T301      0.0000 
     43 H          12.1927    1.8967    2.9095 H         1 16T301      0.0000 
     44 H          12.1153    0.5026    4.0005 H         1 16T301      0.0000 
     45 H          12.1778    2.1356    7.7733 H         1 16T301      0.0000 
     46 H          13.9023    0.7668    8.7700 H         1 16T301      0.0000 
     47 H          14.4909    2.5377    4.3153 H         1 16T301      0.0000 
     48 H          15.1469   -1.2614    5.0020 H         1 16T301      0.0000 
     49 H          15.4360   -2.9494    3.3048 H         1 16T301      0.0000 
     50 H          17.0148   -2.6079    1.5137 H         1 16T301      0.0000 
     51 H          18.0087    1.1202    3.1093 H         1 16T301      0.0000 
     52 H          12.6106   -3.7998    0.0379 H         1 16T301      0.0000 
     53 H          13.1578   -3.3685    1.4873 H         1 16T301      0.0000 
     54 H          11.6751   -3.9722    1.3346 H         1 16T301      0.0000 
@<TRIPOS>BOND
     1    2    1 1    
     2   52    1 1    
     3   53    1 1    
     4   54    1 1    
     5    3    2 2    
     6    8    2 1    
     7    4    3 1    
     8   34    3 1    
     9    5    4 am   
    10   10    4 1    
    11    6    5 2    
    12    7    5 am   
    13    8    7 am   
    14   35    7 1    
    15    9    8 2    
    16   11   10 1    
    17   15   10 1    
    18   36   10 1    
    19   12   11 1    
    20   37   11 1    
    21   38   11 1    
    22   13   12 1    
    23   39   12 1    
    24   40   12 1    
    25   14   13 1    
    26   41   13 1    
    27   42   13 1    
    28   15   14 1    
    29   16   14 1    
    30   43   15 1    
    31   44   15 1    
    32   17   16 2    
    33   18   16 2    
    34   19   16 1    
    35   20   19 ar   
    36   24   19 ar   
    37   21   20 ar   
    38   45   20 1    
    39   22   21 ar   
    40   46   21 1    
    41   23   22 ar   
    42   33   22 1    
    43   24   23 ar   
    44   25   23 1    
    45   47   24 1    
    46   26   25 1    
    47   27   26 ar   
    48   31   26 ar   
    49   28   27 ar   
    50   48   27 1    
    51   29   28 ar   
    52   49   28 1    
    53   30   29 ar   
    54   50   29 1    
    55   31   30 ar   
    56   32   30 1    
    57   51   31 1    
@<TRIPOS>SUBSTRUCTURE
     1 16T301      1 GROUP   
@<TRIPOS>SET

