#    Name: 1rt7_UC4_1_INTS_M
#    Modification time : Tue Mar 25 01:13:32 2014

@<TRIPOS>MOLECULE
1rt7_UC4_1_INTS_M
   62     0     9     0     0
SMALL
NO_CHARGES


@<TRIPOS>ATOM
      1 CA         -4.3495  -34.9525   26.0115 C.3       3 GLC5        0.0000 
      2 CA         -4.4230  -32.9080   25.7810 C.3       9 GLL5        0.0000 
      3 CA         -4.2760  -36.9970   26.2420 C.3       6 GLP5        0.0000 
      4 CA         -5.0790  -33.0500   27.1620 C.3       3 GLC5        0.0000 
      5 CA         -5.7350  -33.1920   28.5430 C.3       6 GLP5        0.0000 
      6 CA         -3.1445  -35.5105   25.5415 C.3       3 GLC5        0.0000 
      7 CA         -2.0130  -34.0240   24.8410 C.3       9 GLL5        0.0000 
      8 CA         -5.6665  -33.6285   22.4160 C.3       3 GLC5        0.0000 
      9 CA         -3.7250  -33.3850   23.2310 C.3       9 GLL5        0.0000 
     10 CA         -7.6080  -33.8720   21.6010 C.3       6 GLP5        0.0000 
     11 CA         -0.6905  -33.8755   28.6170 C.3       3 GLC5        0.0000 
     12 CA         -0.0810  -32.5380   27.2190 C.3       9 GLL5        0.0000 
     13 CA         -1.3000  -35.2130   30.0150 C.3       6 GLP5        0.0000 
     14 CA          0.3195  -29.5285   27.4195 C.3       3 GLC5        0.0000 
     15 CA         -0.1270  -31.1850   26.6040 C.3       9 GLL5        0.0000 
     16 CA          0.7660  -27.8720   28.2350 C.3       6 GLP5        0.0000 
     17 CA         -1.7860  -29.9630   25.8995 C.3       3 GLC5        0.0000 
     18 CA         -3.4450  -28.7410   25.1950 C.3       6 GLP5        0.0000 
     19 CA          1.8190  -33.7485   28.8110 C.3       3 GLC5        0.0000 
     20 CA          0.0610  -32.5450   28.7000 C.3       9 GLL5        0.0000 
     21 CA          3.5770  -34.9520   28.9220 C.3       6 GLP5        0.0000 
     22 CA         -0.6850  -33.4150   29.8660 C.3       3 GLC5        0.0000 
     23 CA         -1.4310  -34.2850   31.0320 C.3       6 GLP5        0.0000 
     24 CA          0.6360  -30.7980   29.6130 C.3       3 GLC5        0.0000 
     25 CA          1.2110  -29.0510   30.5260 C.3       6 GLP5        0.0000 
     26 CA         -0.4005  -40.0400   25.8425 C.3       3 GLC5        0.0000 
     27 CA          0.5810  -38.7200   24.6340 C.3       9 GLL5        0.0000 
     28 CA         -1.3820  -41.3600   27.0510 C.3       6 GLP5        0.0000 
     29 CA         -1.2760  -39.7145   24.1870 C.3       3 GLC5        0.0000 
     30 CA         -3.1330  -40.7090   23.7400 C.3       6 GLP5        0.0000 
     31 N           0.7875  -34.7350   19.3865 N.am      2 SEC2        0.0000 
     32 N           0.9980  -35.7200   20.4590 N.am      8 SEL2        0.0000 
     33 N           0.5770  -33.7500   18.3140 N.am      5 SEP2        0.0000 
     34 O          -1.3840  -34.8130   20.1695 O.2       1 ALC1        0.0000 
     35 O          -0.9090  -34.8940   21.3830 O.2       7 ALL1        0.0000 
     36 O          -1.8590  -34.7320   18.9560 O.2       4 ALP1        0.0000 
     37 CA         -4.3297  -31.3087   25.1838 C.3       3 GLC5        0.0000 
     38 CA         -3.2920  -33.4770   24.5560 C.3       9 GLL5        0.0000 
     39 CA         -4.8020  -29.4250   25.1990 C.3       6 GLP5        0.0000 
     40 CA         -1.2448  -32.5012   23.8848 C.3       3 GLC5        0.0000 
     41 CA          0.1630  -31.2520   23.0710 C.3       6 GLP5        0.0000 
     42 CA         -4.2527  -35.2190   23.8633 C.3       3 GLC5        0.0000 
     43 CA         -4.9970  -37.0070   23.8330 C.3       6 GLP5        0.0000 
     44 CA         -1.5857  -32.4288   22.8950 C.3       3 GLC5        0.0000 
     45 CA         -3.6555  -35.5547   23.0835 C.3       3 GLC5        0.0000 
     46 CA         -1.6840  -34.3790   22.4610 C.3       9 GLL5        0.0000 
     47 CA         -0.6465  -32.8355   23.0953 C.3       3 GLC5        0.0000 
     48 CA          0.0295  -31.5567   24.9913 C.3       3 GLC5        0.0000 
     49 CA         -3.1960  -37.2005   23.3705 C.3       3 GLC5        0.0000 
     50 CA         -2.0830  -37.4260   22.6760 C.3       9 GLL5        0.0000 
     51 CA         -2.2640  -39.0515   23.3240 C.3       3 GLC5        0.0000 
     52 CA          2.1382  -38.4492   22.5570 C.3       3 GLC5        0.0000 
     53 CA          0.3340  -36.7460   22.5490 C.3       9 GLL5        0.0000 
     54 CA          3.1060  -40.0070   22.3120 C.3       6 GLP5        0.0000 
     55 CA          2.1367  -39.1435   23.4757 C.3       3 GLC5        0.0000 
     56 CA          1.7540  -37.8400   24.6450 C.3       9 GLL5        0.0000 
     57 CA          2.0473  -39.9730   25.5763 C.3       3 GLC5        0.0000 
     58 CA          2.9270  -41.6660   26.5130 C.3       6 GLP5        0.0000 
     59 CA          2.3028  -37.6355   26.0427 C.3       3 GLC5        0.0000 
     60 CA          3.4380  -36.9910   27.4460 C.3       6 GLP5        0.0000 
     61 CA         -2.1559  -37.5945   21.4371 C.3       3 GLC5        0.0000 
     62 CA         -3.1770  -37.9490   20.1140 C.3       6 GLP5        0.0000 
@<TRIPOS>BOND
@<TRIPOS>SUBSTRUCTURE
     1 ALC1       34 GROUP        1 X    ALC  0     ROOT ALC X 1
     2 SEC2       31 GROUP        1 X    SEC  0     **** SEC X 2
     3 GLC5        1 GROUP        1 X    GLC  0     **** GLC X 6
     4 ALP1       36 GROUP        1 Y    ALP  0     ROOT ALP Y 8
     5 SEP2       33 GROUP        1 Y    SEP  0     **** SEP Y 9
     6 GLP5        3 GROUP        1 Y    GLP  0     **** GLP Y 13
     7 ALL1       35 GROUP        1 Z    ALL  0     ROOT ALL Z 15
     8 SEL2       32 GROUP        1 Z    SEL  0     **** SEL Z 16
     9 GLL5        2 GROUP        1 Z    GLL  0     **** GLL Z 20
@<TRIPOS>SET

