#    Name: 1rt7_UC4_1_ligand
#    Modification time : Tue Mar 25 01:13:33 2014

@<TRIPOS>MOLECULE
1rt7_UC4_1_ligand
   41    42     1     0     0
SMALL
NO_CHARGES


@<TRIPOS>ATOM
      1 CL         -4.4230  -32.9080   25.7810 Cl        1 UC4999      0.0000 
      2 C1         -2.0130  -34.0240   24.8410 C.ar      1 UC4999      0.0000 
      3 C2         -3.2920  -33.4770   24.5560 C.ar      1 UC4999      0.0000 
      4 C3         -3.7250  -33.3850   23.2310 C.ar      1 UC4999      0.0000 
      5 C4         -2.9440  -33.8260   22.2070 C.ar      1 UC4999      0.0000 
      6 C5         -1.6840  -34.3790   22.4610 C.ar      1 UC4999      0.0000 
      7 C6         -1.2280  -34.4590   23.7780 C.ar      1 UC4999      0.0000 
      8 O7         -0.9390  -35.2910   26.5580 O.2       1 UC4999      0.0000 
      9 C7         -1.3830  -34.2340   26.2040 C.2       1 UC4999      0.0000 
     10 O8         -1.3720  -33.1530   26.9370 O.3       1 UC4999      0.0000 
     11 C8         -0.0810  -32.5380   27.2190 C.3       1 UC4999      0.0000 
     12 C9         -0.1270  -31.1850   26.6040 C.3       1 UC4999      0.0000 
     13 C10         0.0610  -32.5450   28.7000 C.3       1 UC4999      0.0000 
     14 OA         -0.6150  -38.0540   24.3130 O.3       1 UC4999      0.0000 
     15 CB         -0.7070  -37.3620   23.1400 C.2       1 UC4999      0.0000 
     16 CC          0.3340  -36.7460   22.5490 C.2       1 UC4999      0.0000 
     17 S           2.0070  -37.0370   23.0550 S.3       1 UC4999      0.0000 
     18 CD          1.7540  -37.8400   24.6450 C.3       1 UC4999      0.0000 
     19 CE          0.5810  -38.7200   24.6340 C.3       1 UC4999      0.0000 
     20 CF         -2.0830  -37.4260   22.6760 C.3       1 UC4999      0.0000 
     21 OG          0.9980  -35.7200   20.4590 O.2       1 UC4999      0.0000 
     22 CG          0.1890  -35.7570   21.3720 C.2       1 UC4999      0.0000 
     23 N          -0.9090  -34.8940   21.3830 N.am      1 UC4999      0.0000 
     24 H          -4.6589  -32.9717   23.0407 H         1 UC4999      0.0000 
     25 H          -3.2698  -33.7591   21.2263 H         1 UC4999      0.0000 
     26 H          -0.2870  -34.8500   23.9651 H         1 UC4999      0.0000 
     27 H           0.6894  -33.1258   26.7690 H         1 UC4999      0.0000 
     28 H           1.6779  -36.9924   25.3095 H         1 UC4999      0.0000 
     29 H           2.6975  -38.3449   24.7887 H         1 UC4999      0.0000 
     30 H           0.7746  -39.5589   23.9168 H         1 UC4999      0.0000 
     31 H           0.5031  -39.2185   25.6345 H         1 UC4999      0.0000 
     32 H          -1.2399  -34.5463   20.3903 H         1 UC4999      0.0000 
     33 H           0.7265  -30.6835   26.7456 H         1 UC4999      0.0000 
     34 H          -0.2797  -31.2308   25.6168 H         1 UC4999      0.0000 
     35 H          -0.8622  -30.6269   26.9888 H         1 UC4999      0.0000 
     36 H           0.9249  -32.1348   28.9922 H         1 UC4999      0.0000 
     37 H          -0.6726  -32.0321   29.1459 H         1 UC4999      0.0000 
     38 H           0.0370  -33.4733   29.0710 H         1 UC4999      0.0000 
     39 H          -2.2078  -36.9333   21.8148 H         1 UC4999      0.0000 
     40 H          -2.3789  -38.3684   22.5200 H         1 UC4999      0.0000 
     41 H          -2.7170  -37.0254   23.3375 H         1 UC4999      0.0000 
@<TRIPOS>BOND
     1    3    1 1    
     2    3    2 ar   
     3    7    2 ar   
     4    9    2 1    
     5    4    3 ar   
     6    5    4 ar   
     7   24    4 1    
     8    6    5 ar   
     9   25    5 1    
    10    7    6 ar   
    11   23    6 1    
    12   26    7 1    
    13    9    8 2    
    14   10    9 1    
    15   11   10 1    
    16   12   11 1    
    17   13   11 1    
    18   27   11 1    
    19   33   12 1    
    20   34   12 1    
    21   35   12 1    
    22   36   13 1    
    23   37   13 1    
    24   38   13 1    
    25   15   14 1    
    26   19   14 1    
    27   16   15 2    
    28   20   15 1    
    29   17   16 1    
    30   22   16 1    
    31   18   17 1    
    32   19   18 1    
    33   28   18 1    
    34   29   18 1    
    35   30   19 1    
    36   31   19 1    
    37   39   20 1    
    38   40   20 1    
    39   41   20 1    
    40   22   21 2    
    41   23   22 am   
    42   32   23 1    
@<TRIPOS>SUBSTRUCTURE
     1 UC4999      1 GROUP   
@<TRIPOS>SET

