#    Name: 4gu5_FAD_2_INTS_M
#    Modification time : Mon Mar 24 23:43:25 2014

@<TRIPOS>MOLECULE
4gu5_FAD_2_INTS_M
   96     0    12     0     0
SMALL
NO_CHARGES


@<TRIPOS>ATOM
      1 N          -2.4925   42.7410   12.7070 N.am      2 SEC2        0.0000 
      2 N          -3.1970   43.8940   13.4100 N.am     10 SEL2        0.0000 
      3 N          -1.7880   41.5880   12.0040 N.am      6 SEP2        0.0000 
      4 CA          2.6135   46.4285   13.8115 C.3       4 GLC5        0.0000 
      5 CA          0.8680   46.7080   12.8360 C.3      12 GLL5        0.0000 
      6 CA          4.3590   46.1490   14.7870 C.3       8 GLP5        0.0000 
      7 CA         -0.4575   49.2955   10.9450 C.3       4 GLC5        0.0000 
      8 CA          0.3020   47.4350   11.7210 C.3      12 GLL5        0.0000 
      9 CA         -1.2170   51.1560   10.1690 C.3       8 GLP5        0.0000 
     10 CA          1.3800   44.2845   12.2725 C.3       4 GLC5        0.0000 
     11 CA          1.7820   45.9080   10.9470 C.3      12 GLL5        0.0000 
     12 CA          0.9780   42.6610   13.5980 C.3       8 GLP5        0.0000 
     13 CA          3.7570   45.9140   10.1160 C.3       4 GLC5        0.0000 
     14 CA          5.7320   45.9200    9.2850 C.3       8 GLP5        0.0000 
     15 O          -0.4270   42.7625    4.6875 O.2       1 ALC1        0.0000 
     16 O          -0.4160   42.6530    6.2550 O.2       9 ALL1        0.0000 
     17 O          -0.4380   42.8720    3.1200 O.2       5 ALP1        0.0000 
     18 N           1.3490   44.1855    4.6270 N.am      2 SEC2        0.0000 
     19 N           1.6310   43.8500    6.1510 N.am     10 SEL2        0.0000 
     20 N           1.0670   44.5210    3.1030 N.am      6 SEP2        0.0000 
     21 CA          2.9020   42.9490    7.5685 C.3       4 GLC5        0.0000 
     22 CA          2.5530   44.6420    6.7080 C.3      12 GLL5        0.0000 
     23 CA          3.2510   41.2560    8.4290 C.3       8 GLP5        0.0000 
     24 CA          4.2180   44.7655    7.4355 C.3       4 GLC5        0.0000 
     25 CA          5.8830   44.8890    8.1630 C.3       8 GLP5        0.0000 
     26 CA          2.7095   45.9210    5.6210 C.3       4 GLC5        0.0000 
     27 CA          2.8660   47.2000    4.5340 C.3       8 GLP5        0.0000 
     28 O           2.1435   50.9555    5.4715 O.2       1 ALC1        0.0000 
     29 O           0.7690   50.2400    5.1570 O.2       9 ALL1        0.0000 
     30 O           3.5180   51.6710    5.7860 O.2       5 ALP1        0.0000 
     31 N           1.6585   51.7945    3.0240 N.am      2 SEC2        0.0000 
     32 N           0.4330   50.9150    2.9800 N.am     10 SEL2        0.0000 
     33 N           2.8840   52.6740    3.0680 N.am      6 SEP2        0.0000 
     34 N          -2.2795   49.2180    3.6225 N.am      2 SEC2        0.0000 
     35 N          -1.0990   48.5970    2.5230 N.am     10 SEL2        0.0000 
     36 N          -3.4600   49.8390    4.7220 N.am      6 SEP2        0.0000 
     37 CA         -0.1435   47.9885    1.2855 C.3       4 GLC5        0.0000 
     38 CA         -1.8400   47.4640    2.3590 C.3      12 GLL5        0.0000 
     39 CA          1.5530   48.5130    0.2120 C.3       8 GLP5        0.0000 
     40 CA         -1.4780   48.6610    0.2325 C.3       4 GLC5        0.0000 
     41 CA         -2.4300   47.1700    1.1320 C.3      12 GLL5        0.0000 
     42 CA         -0.5260   50.1520   -0.6670 C.3       8 GLP5        0.0000 
     43 CA         -5.2415   44.8625   -1.6525 C.3       4 GLC5        0.0000 
     44 CA         -3.8330   45.7150   -0.4500 C.3      12 GLL5        0.0000 
     45 CA         -6.6500   44.0100   -2.8550 C.3       8 GLP5        0.0000 
     46 CA         -4.6790   47.3775   -0.4705 C.3       4 GLC5        0.0000 
     47 CA         -5.5250   49.0400   -0.4910 C.3       8 GLP5        0.0000 
     48 CA         -3.7205   46.5770   -2.1635 C.3       4 GLC5        0.0000 
     49 CA         -3.6080   47.4390   -3.8770 C.3       8 GLP5        0.0000 
     50 CA         -6.2345   43.0865    1.4675 C.3       4 GLC5        0.0000 
     51 CA         -4.1710   43.8230    1.8680 C.3      12 GLL5        0.0000 
     52 CA         -8.2980   42.3500    1.0670 C.3       8 GLP5        0.0000 
     53 CA         -3.9440   42.1230    0.6445 C.3       4 GLC5        0.0000 
     54 CA         -3.7170   40.4230   -0.5790 C.3       8 GLP5        0.0000 
     55 CA         -3.6705   41.7085    2.4385 C.3       4 GLC5        0.0000 
     56 CA         -3.1700   39.5940    3.0090 C.3       8 GLP5        0.0000 
     57 CA         -4.0145   44.4395    6.8800 C.3       4 GLC5        0.0000 
     58 CA         -2.5520   45.9800    6.8750 C.3      12 GLL5        0.0000 
     59 CA         -5.4770   42.8990    6.8850 C.3       8 GLP5        0.0000 
     60 O          -4.1215   44.5555    6.2945 O.2       1 ALC1        0.0000 
     61 O          -3.9630   45.8880    6.3050 O.2       9 ALL1        0.0000 
     62 O          -4.2800   43.2230    6.2840 O.2       5 ALP1        0.0000 
     63 CA         -4.8580   45.4290    8.2940 C.3       4 GLC5        0.0000 
     64 CA         -3.4140   46.9630    8.9520 C.3      12 GLL5        0.0000 
     65 CA         -6.3020   43.8950    7.6360 C.3       8 GLP5        0.0000 
     66 CA         -2.2320   49.5860   10.1020 C.3       4 GLC5        0.0000 
     67 CA         -3.2470   48.0160   10.0350 C.3      12 GLL5        0.0000 
     68 CA         -5.0185   48.9750   10.3165 C.3       4 GLC5        0.0000 
     69 CA         -6.7900   49.9340   10.5980 C.3       8 GLP5        0.0000 
     70 Zn         -2.5220   48.8060   14.1910 Zn        3 ZIC7        0.0000 
     71 Zn         -2.7610   48.5360   13.0580 Zn       11 ZIL7        0.0000 
     72 Zn         -2.2830   49.0760   15.3240 Zn        7 ZIP7        0.0000 
     73 N          -3.3550   49.8000   12.7740 N.am      2 SEC2        0.0000 
     74 N          -2.7610   48.5360   13.0580 N.am     10 SEL2        0.0000 
     75 N          -3.9490   51.0640   12.4900 N.am      6 SEP2        0.0000 
     76 CA          0.6590   44.5760   13.4533 C.3       4 GLC5        0.0000 
     77 CA         -0.1880   46.2740   13.7810 C.3      12 GLL5        0.0000 
     78 CA          1.9283   48.6224   12.4899 C.3       4 GLC5        0.0000 
     79 CA          2.9230   50.0670   13.4770 C.3       8 GLP5        0.0000 
     80 CA          2.0987   42.7460    8.2745 C.3       4 GLC5        0.0000 
     81 CA          0.4150   43.9370    8.1760 C.3      12 GLL5        0.0000 
     82 CA         -3.8305   47.7270    2.7757 C.3       4 GLC5        0.0000 
     83 CA         -5.5260   48.1370    3.8060 C.3       8 GLP5        0.0000 
     84 CA         -1.1845   45.7180    1.4427 C.3       4 GLC5        0.0000 
     85 CA         -0.2340   44.1190    1.1400 C.3       8 GLP5        0.0000 
     86 CA         -5.1860   46.1080    1.4455 C.3       4 GLC5        0.0000 
     87 CA         -3.1910   46.0130    0.9480 C.3      12 GLL5        0.0000 
     88 CA         -6.8600   46.3520    2.6420 C.3       8 GLP5        0.0000 
     89 CA         -1.8730   44.9915    0.6945 C.3       4 GLC5        0.0000 
     90 CA         -5.3130   45.4128    2.2930 C.3       4 GLC5        0.0000 
     91 CA         -3.3610   45.1240    2.0200 C.3      12 GLL5        0.0000 
     92 CA         -2.0000   44.2963    1.5420 C.3       4 GLC5        0.0000 
     93 CA         -3.9520   47.0705    3.5660 C.3       4 GLC5        0.0000 
     94 CA         -2.7490   45.4210    3.2480 C.3      12 GLL5        0.0000 
     95 CA         -1.3060   45.0615    2.2330 C.3       4 GLC5        0.0000 
     96 CA         -2.0070   46.5870    3.4040 C.3      12 GLL5        0.0000 
@<TRIPOS>BOND
@<TRIPOS>SUBSTRUCTURE
     1 ALC1       15 GROUP        1 X    ALC  0     ROOT ALC X 1
     2 SEC2        1 GROUP        1 X    SEC  0     **** SEC X 2
     3 ZIC7       70 GROUP        1 X    ZIC  0     **** ZIC X 5
     4 GLC5        4 GROUP        1 X    GLC  0     **** GLC X 6
     5 ALP1       17 GROUP        1 Y    ALP  0     ROOT ALP Y 8
     6 SEP2        3 GROUP        1 Y    SEP  0     **** SEP Y 9
     7 ZIP7       72 GROUP        1 Y    ZIP  0     **** ZIP Y 12
     8 GLP5        6 GROUP        1 Y    GLP  0     **** GLP Y 13
     9 ALL1       16 GROUP        1 Z    ALL  0     ROOT ALL Z 15
    10 SEL2        2 GROUP        1 Z    SEL  0     **** SEL Z 16
    11 ZIL7       71 GROUP        1 Z    ZIL  0     **** ZIL Z 19
    12 GLL5        5 GROUP        1 Z    GLL  0     **** GLL Z 20
@<TRIPOS>SET

