#    Name: 3i6z_G6X_1_INTS_M
#    Modification time : Tue Mar 25 15:58:20 2014

@<TRIPOS>MOLECULE
3i6z_G6X_1_INTS_M
   73     0     9     0     0
SMALL
NO_CHARGES


@<TRIPOS>ATOM
      1 CA          6.8735   69.4650   61.9490 C.3       3 GLC5        0.0000 
      2 CA          5.1150   68.4910   62.2850 C.3       9 GLL5        0.0000 
      3 CA          8.6320   70.4390   61.6130 C.3       6 GLP5        0.0000 
      4 CA          0.6295   64.3250   66.5175 C.3       3 GLC5        0.0000 
      5 CA          1.8310   66.0100   66.3560 C.3       9 GLL5        0.0000 
      6 CA         -0.5720   62.6400   66.6790 C.3       6 GLP5        0.0000 
      7 CA          4.1135   69.2065   67.3695 C.3       3 GLC5        0.0000 
      8 CA          2.5860   68.4070   66.2960 C.3       9 GLL5        0.0000 
      9 CA          5.6410   70.0060   68.4430 C.3       6 GLP5        0.0000 
     10 CA          5.1770   69.0640   66.3805 C.3       3 GLC5        0.0000 
     11 CA          3.8440   68.3840   65.3740 C.3       9 GLL5        0.0000 
     12 CA          6.5100   69.7440   67.3870 C.3       6 GLP5        0.0000 
     13 CA          3.6120   61.5030   62.4175 C.3       3 GLC5        0.0000 
     14 CA          5.3650   61.7930   62.8200 C.3       9 GLL5        0.0000 
     15 CA          1.8590   61.2130   62.0150 C.3       6 GLP5        0.0000 
     16 CA          5.8415   60.7555   61.0640 C.3       3 GLC5        0.0000 
     17 CA          6.3180   59.7180   59.3080 C.3       6 GLP5        0.0000 
     18 CA          6.7525   60.7575   63.4200 C.3       3 GLC5        0.0000 
     19 CA          8.1400   59.7220   64.0200 C.3       6 GLP5        0.0000 
     20 CA          4.7870   60.3080   63.4725 C.3       3 GLC5        0.0000 
     21 CA          4.2090   58.8230   64.1250 C.3       6 GLP5        0.0000 
     22 CA          6.3900   62.5420   64.4165 C.3       3 GLC5        0.0000 
     23 CA          7.4150   63.2910   66.0130 C.3       6 GLP5        0.0000 
     24 N           6.1260   63.3875   61.7435 N.am      2 SEC2        0.0000 
     25 N           5.6510   63.1650   63.0930 N.am      8 SEL2        0.0000 
     26 N           6.6010   63.6100   60.3940 N.am      5 SEP2        0.0000 
     27 N           7.0825   63.8790   62.5450 N.am      2 SEC2        0.0000 
     28 N           8.5140   64.5930   61.9970 N.am      5 SEP2        0.0000 
     29 O           5.1905   67.4560   59.7125 O.2       1 ALC1        0.0000 
     30 O           4.1500   67.0410   60.5370 O.2       7 ALL1        0.0000 
     31 O           6.2310   67.8710   58.8880 O.2       4 ALP1        0.0000 
     32 CA          4.7310   68.0555   68.7340 C.3       3 GLC5        0.0000 
     33 CA          3.7330   66.8650   67.8520 C.3       9 GLL5        0.0000 
     34 CA          5.7290   69.2460   69.6160 C.3       6 GLP5        0.0000 
     35 CA          5.1125   67.0655   69.3825 C.3       3 GLC5        0.0000 
     36 CA          3.5370   65.9070   69.0410 C.3       9 GLL5        0.0000 
     37 CA          6.6880   68.2240   69.7240 C.3       6 GLP5        0.0000 
     38 CA          2.9185   66.4495   70.9425 C.3       3 GLC5        0.0000 
     39 CA          2.3000   66.9920   72.8440 C.3       6 GLP5        0.0000 
     40 CA          5.2370   63.4865   67.7275 C.3       3 GLC5        0.0000 
     41 CA          3.8700   64.4840   68.6240 C.3       9 GLL5        0.0000 
     42 CA          6.6040   62.4890   66.8310 C.3       6 GLP5        0.0000 
     43 CA          5.7090   62.7970   68.9195 C.3       3 GLC5        0.0000 
     44 CA          4.3160   63.6070   69.8040 C.3       9 GLL5        0.0000 
     45 CA          7.1020   61.9870   68.0350 C.3       6 GLP5        0.0000 
     46 CA          0.7910   62.4720   68.3630 C.3       3 GLC5        0.0000 
     47 CA          2.1540   62.3040   70.0470 C.3       9 GLL5        0.0000 
     48 CA          0.7810   60.8705   69.4000 C.3       3 GLC5        0.0000 
     49 CA         -0.5920   59.4370   68.7530 C.3       6 GLP5        0.0000 
     50 CA          6.7640   66.4430   63.2540 C.3       3 GLC5        0.0000 
     51 CA          5.1070   67.4230   63.4460 C.3       9 GLL5        0.0000 
     52 CA          8.4210   65.4630   63.0620 C.3       6 GLP5        0.0000 
     53 CA          2.5893   69.7930   62.6322 C.3       3 GLC5        0.0000 
     54 CA          2.5230   67.7400   63.3090 C.3       9 GLL5        0.0000 
     55 CA          2.6070   71.6330   62.6020 C.3       6 GLP5        0.0000 
     56 CA          1.7147   66.4050   62.0263 C.3       3 GLC5        0.0000 
     57 CA          2.6200   68.1660   62.0160 C.3       9 GLL5        0.0000 
     58 CA          0.8580   64.8570   61.3900 C.3       6 GLP5        0.0000 
     59 CA          4.1043   70.1235   61.7480 C.3       3 GLC5        0.0000 
     60 CA          3.9640   68.2530   61.2790 C.3       9 GLL5        0.0000 
     61 CA          3.6690   71.8750   61.7140 C.3       6 GLP5        0.0000 
     62 CA          3.0447   62.3558   63.1358 C.3       3 GLC5        0.0000 
     63 CA          4.6560   63.8350   63.7980 C.3       9 GLL5        0.0000 
     64 CA          6.5150   64.9998   63.3950 C.3       3 GLC5        0.0000 
     65 CA          2.6115   70.0312   65.4890 C.3       3 GLC5        0.0000 
     66 CA          2.0080   71.6670   65.1430 C.3       6 GLP5        0.0000 
     67 CA          2.1546   65.1516   63.0531 C.3       3 GLC5        0.0000 
     68 CA          3.6490   65.9490   64.4410 C.3       9 GLL5        0.0000 
     69 CA          4.2860   63.8235   71.9957 C.3       3 GLC5        0.0000 
     70 CA          4.8230   64.2500   73.7160 C.3       6 GLP5        0.0000 
     71 CA         -2.7378   57.7843   72.7945 C.3       3 GLC5        0.0000 
     72 CA         -1.1600   58.5260   73.6190 C.3       9 GLL5        0.0000 
     73 CA         -3.8270   56.5380   71.9260 C.3       6 GLP5        0.0000 
@<TRIPOS>BOND
@<TRIPOS>SUBSTRUCTURE
     1 ALC1       29 GROUP        1 X    ALC  0     ROOT ALC X 1
     2 SEC2       24 GROUP        1 X    SEC  0     **** SEC X 2
     3 GLC5        1 GROUP        1 X    GLC  0     **** GLC X 6
     4 ALP1       31 GROUP        1 Y    ALP  0     ROOT ALP Y 8
     5 SEP2       26 GROUP        1 Y    SEP  0     **** SEP Y 9
     6 GLP5        3 GROUP        1 Y    GLP  0     **** GLP Y 13
     7 ALL1       30 GROUP        1 Z    ALL  0     ROOT ALL Z 15
     8 SEL2       25 GROUP        1 Z    SEL  0     **** SEL Z 16
     9 GLL5        2 GROUP        1 Z    GLL  0     **** GLL Z 20
@<TRIPOS>SET

