#    Name: 3i6z_G6X_1_ligand
#    Modification time : Tue Mar 25 15:58:20 2014

@<TRIPOS>MOLECULE
3i6z_G6X_1_ligand
   73    78     1     0     0
SMALL
NO_CHARGES


@<TRIPOS>ATOM
      1 C1          2.5230   67.7400   63.3090 C.2       1 G6X1        0.0000 
      2 C2          2.6200   68.1660   62.0160 C.2       1 G6X1        0.0000 
      3 C3          3.9640   68.2530   61.2790 C.3       1 G6X1        0.0000 
      4 C4          5.1150   68.4910   62.2850 C.3       1 G6X1        0.0000 
      5 O5          5.2730   66.0890   62.8530 O.3       1 G6X1        0.0000 
      6 C6          4.6560   63.8350   63.7980 C.ar      1 G6X1        0.0000 
      7 C7          3.8050   63.1620   64.7150 C.ar      1 G6X1        0.0000 
      8 C8          2.8860   63.8900   65.4950 C.ar      1 G6X1        0.0000 
      9 C9          1.8310   66.0100   66.3560 C.3       1 G6X1        0.0000 
     10 N10         2.4810   67.1560   67.0720 N.4       1 G6X1        0.0000 
     11 C11         2.5860   68.4070   66.2960 C.3       1 G6X1        0.0000 
     12 C12         3.8440   68.3840   65.3740 C.3       1 G6X1        0.0000 
     13 C13         4.5620   65.2380   63.6580 C.ar      1 G6X1        0.0000 
     14 C14         3.6490   65.9490   64.4410 C.ar      1 G6X1        0.0000 
     15 C15         2.7970   65.2990   65.3830 C.ar      1 G6X1        0.0000 
     16 C16         5.3650   61.7930   62.8200 C.3       1 G6X1        0.0000 
     17 O17         5.6510   63.1650   63.0930 O.3       1 G6X1        0.0000 
     18 O18         4.1500   67.0410   60.5370 O.3       1 G6X1        0.0000 
     19 C19         3.7330   66.8650   67.8520 C.3       1 G6X1        0.0000 
     20 C20         3.5370   65.9070   69.0410 C.3       1 G6X1        0.0000 
     21 C21         3.8700   64.4840   68.6240 C.3       1 G6X1        0.0000 
     22 C22         4.3160   63.6070   69.8040 C.3       1 G6X1        0.0000 
     23 C23         3.1820   63.1870   70.7470 C.3       1 G6X1        0.0000 
     24 C24         2.1540   62.3040   70.0470 C.3       1 G6X1        0.0000 
     25 N25         1.2460   61.7050   71.0480 N.am      1 G6X1        0.0000 
     26 C26         1.3910   60.4150   71.4670 C.2       1 G6X1        0.0000 
     27 C27         0.2910   60.0140   72.3070 C.ar      1 G6X1        0.0000 
     28 C28         0.0440   58.7670   72.9240 C.ar      1 G6X1        0.0000 
     29 C29        -1.1600   58.5260   73.6190 C.ar      1 G6X1        0.0000 
     30 C30        -2.1370   59.5350   73.7070 C.ar      1 G6X1        0.0000 
     31 C31        -1.9000   60.7820   73.1010 C.ar      1 G6X1        0.0000 
     32 C32        -0.6960   61.0160   72.4140 C.ar      1 G6X1        0.0000 
     33 S33        -0.0280   62.4600   71.6350 S.o2      1 G6X1        0.0000 
     34 O34         2.3270   59.6800   71.1400 O.2       1 G6X1        0.0000 
     35 O35        -0.8090   63.1790   70.5690 O.2       1 G6X1        0.0000 
     36 O36         0.4370   63.4670   72.6510 O.2       1 G6X1        0.0000 
     37 C41         5.1070   67.4230   63.4460 C.3       1 G6X1        0.0000 
     38 C42         3.7270   67.3420   64.2330 C.3       1 G6X1        0.0000 
     39 H           1.6000   67.6442   63.7974 H         1 G6X1        0.0000 
     40 H           1.8074   68.4540   61.4556 H         1 G6X1        0.0000 
     41 H           3.9163   69.1098   60.6177 H         1 G6X1        0.0000 
     42 H           5.0113   69.4764   62.7278 H         1 G6X1        0.0000 
     43 H           6.0672   68.4255   61.7684 H         1 G6X1        0.0000 
     44 H           3.8641   62.1456   64.8049 H         1 G6X1        0.0000 
     45 H           2.2719   63.3970   66.1535 H         1 G6X1        0.0000 
     46 H           0.9668   66.3670   65.7822 H         1 G6X1        0.0000 
     47 H           1.4684   65.2709   67.0811 H         1 G6X1        0.0000 
     48 H           1.6972   67.4351   67.9252 H         1 G6X1        0.0000 
     49 H           2.6756   69.2712   66.9568 H         1 G6X1        0.0000 
     50 H           1.7110   68.5470   65.6587 H         1 G6X1        0.0000 
     51 H           4.7184   68.1499   65.9822 H         1 G6X1        0.0000 
     52 H           3.9764   69.3753   64.9392 H         1 G6X1        0.0000 
     53 H           4.1586   67.8108   68.2372 H         1 G6X1        0.0000 
     54 H           4.4962   66.4295   67.1798 H         1 G6X1        0.0000 
     55 H           2.5041   65.9601   69.3693 H         1 G6X1        0.0000 
     56 H           4.1904   66.2134   69.8514 H         1 G6X1        0.0000 
     57 H           4.6722   64.5021   67.8757 H         1 G6X1        0.0000 
     58 H           2.9890   64.0256   68.1578 H         1 G6X1        0.0000 
     59 H           5.0782   64.1540   70.3842 H         1 G6X1        0.0000 
     60 H           4.8043   62.7009   69.4077 H         1 G6X1        0.0000 
     61 H           2.6872   64.0840   71.1293 H         1 G6X1        0.0000 
     62 H           3.6078   62.6432   71.5948 H         1 G6X1        0.0000 
     63 H           2.6814   61.5257   69.4952 H         1 G6X1        0.0000 
     64 H           1.5933   62.9156   69.3399 H         1 G6X1        0.0000 
     65 H           0.7530   58.0246   72.8651 H         1 G6X1        0.0000 
     66 H          -1.3212   57.6170   74.0585 H         1 G6X1        0.0000 
     67 H          -3.0089   59.3634   74.2057 H         1 G6X1        0.0000 
     68 H          -2.6065   61.5211   73.1606 H         1 G6X1        0.0000 
     69 H           5.8747   67.6282   64.1336 H         1 G6X1        0.0000 
     70 H           6.1054   61.3533   62.3116 H         1 G6X1        0.0000 
     71 H           5.2335   61.2667   63.6601 H         1 G6X1        0.0000 
     72 H           4.5329   61.6883   62.2753 H         1 G6X1        0.0000 
     73 H           4.8707   67.2503   59.8761 H         1 G6X1        0.0000 
@<TRIPOS>BOND
     1    2    1 2    
     2   38    1 1    
     3   39    1 1    
     4    3    2 1    
     5   40    2 1    
     6    4    3 1    
     7   18    3 1    
     8   41    3 1    
     9   37    4 1    
    10   42    4 1    
    11   43    4 1    
    12   13    5 1    
    13   37    5 1    
    14    7    6 ar   
    15   13    6 ar   
    16   17    6 1    
    17    8    7 ar   
    18   44    7 1    
    19   15    8 ar   
    20   45    8 1    
    21   10    9 1    
    22   15    9 1    
    23   46    9 1    
    24   47    9 1    
    25   11   10 1    
    26   19   10 1    
    27   48   10 1    
    28   12   11 1    
    29   49   11 1    
    30   50   11 1    
    31   38   12 1    
    32   51   12 1    
    33   52   12 1    
    34   14   13 ar   
    35   15   14 ar   
    36   38   14 1    
    37   17   16 1    
    38   70   16 1    
    39   71   16 1    
    40   72   16 1    
    41   73   18 1    
    42   20   19 1    
    43   53   19 1    
    44   54   19 1    
    45   21   20 1    
    46   55   20 1    
    47   56   20 1    
    48   22   21 1    
    49   57   21 1    
    50   58   21 1    
    51   23   22 1    
    52   59   22 1    
    53   60   22 1    
    54   24   23 1    
    55   61   23 1    
    56   62   23 1    
    57   25   24 1    
    58   63   24 1    
    59   64   24 1    
    60   26   25 am   
    61   33   25 1    
    62   27   26 1    
    63   34   26 2    
    64   28   27 ar   
    65   32   27 ar   
    66   29   28 ar   
    67   65   28 1    
    68   30   29 ar   
    69   66   29 1    
    70   31   30 ar   
    71   67   30 1    
    72   32   31 ar   
    73   68   31 1    
    74   33   32 1    
    75   35   33 2    
    76   36   33 2    
    77   38   37 1    
    78   69   37 1    
@<TRIPOS>SUBSTRUCTURE
     1 G6X1        1 GROUP   
@<TRIPOS>SET

