#    Name: 1zeo_C01_1_INTS_M
#    Modification time : Tue Mar 25 11:43:40 2014

@<TRIPOS>MOLECULE
1zeo_C01_1_INTS_M
   86     0     6     0     0
SMALL
NO_CHARGES


@<TRIPOS>ATOM
      1 CA         23.1865   10.6660   10.5680 C.3       2 GLC5        0.0000 
      2 CA         24.4030   10.6080   12.0960 C.3       6 GLL5        0.0000 
      3 CA         21.9700   10.7240    9.0400 C.3       4 GLP5        0.0000 
      4 CA         23.3730   11.8420   12.6100 C.3       2 GLC5        0.0000 
      5 CA         22.3430   13.0760   13.1240 C.3       4 GLP5        0.0000 
      6 CA         25.9620   11.2415   12.8405 C.3       2 GLC5        0.0000 
      7 CA         27.5210   11.8750   13.5850 C.3       4 GLP5        0.0000 
      8 CA         25.2255    9.1625   13.2920 C.3       2 GLC5        0.0000 
      9 CA         26.0480    7.7170   14.4880 C.3       4 GLP5        0.0000 
     10 CA         23.9860    8.8365   16.9900 C.3       2 GLC5        0.0000 
     11 CA         21.9780    9.3750   17.1350 C.3       6 GLL5        0.0000 
     12 CA         25.9940    8.2980   16.8450 C.3       4 GLP5        0.0000 
     13 CA         23.2180    9.3500   18.8295 C.3       2 GLC5        0.0000 
     14 CA         24.4580    9.3250   20.5240 C.3       4 GLP5        0.0000 
     15 CA         19.8770    9.9065   15.4335 C.3       2 GLC5        0.0000 
     16 CA         20.7540   10.2820   17.3190 C.3       6 GLL5        0.0000 
     17 CA         19.0000    9.5310   13.5480 C.3       4 GLP5        0.0000 
     18 CA         18.9390   11.2105   16.9940 C.3       2 GLC5        0.0000 
     19 CA         17.1240   12.1390   16.6690 C.3       4 GLP5        0.0000 
     20 CA         22.4300   12.1585   18.2630 C.3       2 GLC5        0.0000 
     21 CA         20.9100   11.1900   18.5310 C.3       6 GLL5        0.0000 
     22 CA         23.9500   13.1270   17.9950 C.3       4 GLP5        0.0000 
     23 CA         19.4130   12.2570   17.8525 C.3       2 GLC5        0.0000 
     24 CA         17.9160   13.3240   17.1740 C.3       4 GLP5        0.0000 
     25 CA         22.6840   10.2575   19.5275 C.3       2 GLC5        0.0000 
     26 CA         21.1330   11.9300   20.4580 C.3       2 GLC5        0.0000 
     27 CA         21.3560   12.6700   22.3850 C.3       4 GLP5        0.0000 
     28 CA         19.2115   10.9755   19.7005 C.3       2 GLC5        0.0000 
     29 CA         17.5130   10.7610   20.8700 C.3       4 GLP5        0.0000 
     30 CA         21.6150    2.9180   15.4770 C.3       2 GLC5        0.0000 
     31 CA         20.7370    4.8170   14.8990 C.3       6 GLL5        0.0000 
     32 CA         22.4930    1.0190   16.0550 C.3       4 GLP5        0.0000 
     33 CA         19.0865    2.3620   15.7150 C.3       2 GLC5        0.0000 
     34 CA         19.0930    3.2910   13.7840 C.3       6 GLL5        0.0000 
     35 CA         19.0800    1.4330   17.6460 C.3       4 GLP5        0.0000 
     36 CA         18.2020    2.1050   13.2620 C.3       2 GLC5        0.0000 
     37 CA         17.3110    0.9190   12.7400 C.3       4 GLP5        0.0000 
     38 CA         20.1540    1.5150   14.0590 C.3       2 GLC5        0.0000 
     39 CA         21.2150   -0.2610   14.3340 C.3       4 GLP5        0.0000 
     40 CA         14.9800    7.0945   16.3350 C.3       2 GLC5        0.0000 
     41 CA         16.0550    5.7120   15.1910 C.3       6 GLL5        0.0000 
     42 CA         13.9050    8.4770   17.4790 C.3       4 GLP5        0.0000 
     43 CA         15.3715    3.0905   12.1485 C.3       2 GLC5        0.0000 
     44 CA         15.3640    4.6130   13.0080 C.3       6 GLL5        0.0000 
     45 CA         15.3790    1.5680   11.2890 C.3       4 GLP5        0.0000 
     46 CA         12.2960    5.0330   16.1680 C.3       2 GLC5        0.0000 
     47 CA         13.8470    4.4720   15.0330 C.3       6 GLL5        0.0000 
     48 CA         10.7450    5.5940   17.3030 C.3       4 GLP5        0.0000 
     49 N          16.8625    7.4025   19.3815 N.am      1 SEC2        0.0000 
     50 N          18.0930    7.0170   19.7520 N.am      5 SEL2        0.0000 
     51 N          15.6320    7.7880   19.0110 N.am      3 SEP2        0.0000 
     52 N          17.6930    6.0790   20.7485 N.am      1 SEC2        0.0000 
     53 N          17.2930    5.1410   21.7450 N.am      3 SEP2        0.0000 
     54 N          19.0625    6.2790   20.9545 N.am      1 SEC2        0.0000 
     55 N          20.0320    5.5410   22.1570 N.am      3 SEP2        0.0000 
     56 N          20.1550    6.0995   21.0170 N.am      1 SEC2        0.0000 
     57 N          20.2780    6.6580   19.8770 N.am      5 SEL2        0.0000 
     58 N          21.3965    5.9790   19.6705 N.am      1 SEC2        0.0000 
     59 N          22.5150    5.3000   19.4640 N.am      3 SEP2        0.0000 
     60 CA         20.1625    8.0765   14.5090 C.3       2 GLC5        0.0000 
     61 CA         21.3070    7.0550   16.0460 C.3       6 GLL5        0.0000 
     62 CA         21.5723    5.0995   12.7955 C.3       2 GLC5        0.0000 
     63 CA         21.9860    6.5990   13.6840 C.3       6 GLL5        0.0000 
     64 CA         21.4800    3.8050   11.3020 C.3       4 GLP5        0.0000 
     65 CA         20.6273    9.0455   14.4363 C.3       2 GLC5        0.0000 
     66 CA         22.5680    8.7370   14.6910 C.3       6 GLL5        0.0000 
     67 CA         20.9558    8.0622   12.8180 C.3       2 GLC5        0.0000 
     68 CA         22.5670    7.8480   13.6040 C.3       6 GLL5        0.0000 
     69 CA         19.6350    8.9010   11.9920 C.3       4 GLP5        0.0000 
     70 CA         23.7784    6.2700   13.8108 C.3       2 GLC5        0.0000 
     71 CA         25.4410    5.4190   13.6750 C.3       4 GLP5        0.0000 
     72 CA         22.9820   11.0473   17.1665 C.3       2 GLC5        0.0000 
     73 CA         24.5980   12.2660   17.1060 C.3       4 GLP5        0.0000 
     74 CA         20.5654    3.9135   12.6854 C.3       2 GLC5        0.0000 
     75 CA         16.1663    8.0040   16.8028 C.3       2 GLC5        0.0000 
     76 CA         17.5740    7.4790   15.9720 C.3       6 GLL5        0.0000 
     77 CA         15.2900    8.7450   18.0390 C.3       4 GLP5        0.0000 
     78 CA         18.1047    8.2869   14.6664 C.3       2 GLC5        0.0000 
     79 CA         16.8004    7.3979   17.5606 C.3       2 GLC5        0.0000 
     80 CA         17.8040    5.2270   16.9060 C.3       6 GLL5        0.0000 
     81 CA         16.0590    3.8019   16.9125 C.3       2 GLC5        0.0000 
     82 CA         15.0220    2.3640   17.5550 C.3       4 GLP5        0.0000 
     83 CA         14.6945    3.6303   16.1050 C.3       2 GLC5        0.0000 
     84 CA         14.8870    5.3210   14.2770 C.3       6 GLL5        0.0000 
     85 CA         13.5491    6.3877   13.5964 C.3       2 GLC5        0.0000 
     86 CA         12.6120    8.0560   12.8550 C.3       4 GLP5        0.0000 
@<TRIPOS>BOND
@<TRIPOS>SUBSTRUCTURE
     1 SEC2       49 GROUP        1 X    SEC  0     ROOT SEC X 2
     2 GLC5        1 GROUP        1 X    GLC  0     **** GLC X 6
     3 SEP2       51 GROUP        1 Y    SEP  0     ROOT SEP Y 9
     4 GLP5        3 GROUP        1 Y    GLP  0     **** GLP Y 13
     5 SEL2       50 GROUP        1 Z    SEL  0     ROOT SEL Z 16
     6 GLL5        2 GROUP        1 Z    GLL  0     **** GLL Z 20
@<TRIPOS>SET

