#    Name: 1zeo_C01_1_ligand
#    Modification time : Tue Mar 25 11:43:40 2014

@<TRIPOS>MOLECULE
1zeo_C01_1_ligand
   61    63     1     0     0
SMALL
NO_CHARGES


@<TRIPOS>ATOM
      1 C1         21.3430    6.1890   14.8940 C.ar      1 C01478      0.0000 
      2 C2         21.3070    7.0550   16.0460 C.ar      1 C01478      0.0000 
      3 C3         21.9410    8.3830   15.9580 C.ar      1 C01478      0.0000 
      4 C4         22.5680    8.7370   14.6910 C.ar      1 C01478      0.0000 
      5 C5         22.5670    7.8480   13.6040 C.ar      1 C01478      0.0000 
      6 C6         21.9860    6.5990   13.6840 C.ar      1 C01478      0.0000 
      7 O8         23.2480    9.9190   14.3110 O.3       1 C01478      0.0000 
      8 N9         23.6510    9.6700   12.9390 N.am      1 C01478      0.0000 
      9 C10        23.2820    8.4460   12.4820 C.2       1 C01478      0.0000 
     10 C11        24.4030   10.6080   12.0960 C.3       1 C01478      0.0000 
     11 O15        23.4970    7.9900   11.3540 O.2       1 C01478      0.0000 
     12 C16        21.9780    9.3750   17.1350 C.3       1 C01478      0.0000 
     13 C17        20.7540   10.2820   17.3190 C.3       1 C01478      0.0000 
     14 C20        20.9100   11.1900   18.5310 C.3       1 C01478      0.0000 
     15 C26        20.7370    4.8170   14.8990 C.3       1 C01478      0.0000 
     16 C27        19.6800    4.6890   13.8080 C.3       1 C01478      0.0000 
     17 C30        19.0930    3.2910   13.7840 C.3       1 C01478      0.0000 
     18 O36        20.6650    6.5880   17.2540 O.3       1 C01478      0.0000 
     19 C37        19.3930    7.1510   17.6720 C.3       1 C01478      0.0000 
     20 C38        18.2420    6.5980   16.8450 C.ar      1 C01478      0.0000 
     21 C39        19.1490    6.9320   19.2070 C.2       1 C01478      0.0000 
     22 C40        17.5740    7.4790   15.9720 C.ar      1 C01478      0.0000 
     23 C41        16.5110    7.0470   15.1610 C.ar      1 C01478      0.0000 
     24 C42        16.0550    5.7120   15.1910 C.ar      1 C01478      0.0000 
     25 C43        16.7210    4.7930   16.0770 C.ar      1 C01478      0.0000 
     26 C44        17.8040    5.2270   16.9060 C.ar      1 C01478      0.0000 
     27 C49        14.8870    5.3210   14.2770 C.3       1 C01478      0.0000 
     28 C50        15.3640    4.6130   13.0080 C.3       1 C01478      0.0000 
     29 C54        13.8470    4.4720   15.0330 C.3       1 C01478      0.0000 
     30 O60        18.0930    7.0170   19.7520 O.co2     1 C01478      0.0000 
     31 O61        20.2780    6.6580   19.8770 O.co2     1 C01478      0.0000 
     32 H          22.0031    5.9516   12.8925 H         1 C01478      0.0000 
     33 H          22.8819   10.0167   17.0251 H         1 C01478      0.0000 
     34 H          22.1372    8.7988   18.0750 H         1 C01478      0.0000 
     35 H          19.8667    9.6589   17.4440 H         1 C01478      0.0000 
     36 H          20.6266   10.8916   16.4227 H         1 C01478      0.0000 
     37 H          20.2718    4.6200   15.8671 H         1 C01478      0.0000 
     38 H          21.5129    4.0676   14.7294 H         1 C01478      0.0000 
     39 H          20.1350    4.9089   12.8413 H         1 C01478      0.0000 
     40 H          18.8858    5.4137   13.9924 H         1 C01478      0.0000 
     41 H          19.4093    8.2456   17.5218 H         1 C01478      0.0000 
     42 H          17.8745    8.4677   15.9281 H         1 C01478      0.0000 
     43 H          16.0507    7.7208   14.5269 H         1 C01478      0.0000 
     44 H          16.4144    3.8213   16.1116 H         1 C01478      0.0000 
     45 H          18.2613    4.5788   17.5317 H         1 C01478      0.0000 
     46 H          14.3819    6.2521   13.9692 H         1 C01478      0.0000 
     47 H          25.2927   10.8330   12.4932 H         1 C01478      0.0000 
     48 H          24.5750   10.2328   11.1851 H         1 C01478      0.0000 
     49 H          23.9119   11.4699   11.9700 H         1 C01478      0.0000 
     50 H          21.0219   10.6662   19.3755 H         1 C01478      0.0000 
     51 H          21.7084   11.7863   18.4480 H         1 C01478      0.0000 
     52 H          20.1139   11.7820   18.6565 H         1 C01478      0.0000 
     53 H          19.7914    2.5980   13.6051 H         1 C01478      0.0000 
     54 H          18.6615    3.0544   14.6545 H         1 C01478      0.0000 
     55 H          18.3949    3.1935   13.0747 H         1 C01478      0.0000 
     56 H          15.9779    5.1899   12.4693 H         1 C01478      0.0000 
     57 H          15.8613    3.7710   13.2171 H         1 C01478      0.0000 
     58 H          14.6002    4.3623   12.4132 H         1 C01478      0.0000 
     59 H          14.2442    3.6241   15.3842 H         1 C01478      0.0000 
     60 H          13.4651    4.9630   15.8159 H         1 C01478      0.0000 
     61 H          13.0797    4.2149   14.4456 H         1 C01478      0.0000 
@<TRIPOS>BOND
     1    2    1 ar   
     2    6    1 ar   
     3   15    1 1    
     4    3    2 ar   
     5   18    2 1    
     6    4    3 ar   
     7   12    3 1    
     8    5    4 ar   
     9    7    4 1    
    10    6    5 ar   
    11    9    5 1    
    12   32    6 1    
    13    8    7 1    
    14    9    8 am   
    15   10    8 1    
    16   11    9 2    
    17   47   10 1    
    18   48   10 1    
    19   49   10 1    
    20   13   12 1    
    21   33   12 1    
    22   34   12 1    
    23   14   13 1    
    24   35   13 1    
    25   36   13 1    
    26   50   14 1    
    27   51   14 1    
    28   52   14 1    
    29   16   15 1    
    30   37   15 1    
    31   38   15 1    
    32   17   16 1    
    33   39   16 1    
    34   40   16 1    
    35   53   17 1    
    36   54   17 1    
    37   55   17 1    
    38   19   18 1    
    39   20   19 1    
    40   21   19 1    
    41   41   19 1    
    42   22   20 ar   
    43   26   20 ar   
    44   30   21 ar   
    45   31   21 ar   
    46   23   22 ar   
    47   42   22 1    
    48   24   23 ar   
    49   43   23 1    
    50   25   24 ar   
    51   27   24 1    
    52   26   25 ar   
    53   44   25 1    
    54   45   26 1    
    55   28   27 1    
    56   29   27 1    
    57   46   27 1    
    58   56   28 1    
    59   57   28 1    
    60   58   28 1    
    61   59   29 1    
    62   60   29 1    
    63   61   29 1    
@<TRIPOS>SUBSTRUCTURE
     1 C01478      1 GROUP   
@<TRIPOS>SET

