#    Name: 4iwf_15Q_2_INTS_M
#    Modification time : Tue Mar 25 04:47:24 2014

@<TRIPOS>MOLECULE
4iwf_15Q_2_INTS_M
   49     0     9     0     0
SMALL
NO_CHARGES


@<TRIPOS>ATOM
      1 CA          3.4880    4.9555   -9.0915 C.3       3 GLC5        0.0000 
      2 CA          5.1580    4.1550   -7.9890 C.3       9 GLL5        0.0000 
      3 CA          1.8180    5.7560  -10.1940 C.3       6 GLP5        0.0000 
      4 CA          7.3080    3.8920  -11.3305 C.3       3 GLC5        0.0000 
      5 CA          6.9100    3.6410   -9.6640 C.3       9 GLL5        0.0000 
      6 CA          7.7060    4.1430  -12.9970 C.3       6 GLP5        0.0000 
      7 CA          6.4120    1.9430  -10.2785 C.3       3 GLC5        0.0000 
      8 CA          5.9140    0.2450  -10.8930 C.3       6 GLP5        0.0000 
      9 CA          6.6595    5.8185   -9.2235 C.3       3 GLC5        0.0000 
     10 CA          6.4090    7.9960   -8.7830 C.3       6 GLP5        0.0000 
     11 N           9.9640    4.7415   -8.6800 N.am      2 SEC2        0.0000 
     12 N           8.6110    3.7440   -8.2750 N.am      8 SEL2        0.0000 
     13 N          11.3170    5.7390   -9.0850 N.am      5 SEP2        0.0000 
     14 O           8.8475    3.0430   -9.2315 O.2       1 ALC1        0.0000 
     15 O           8.6110    3.7440   -8.2750 O.2       7 ALL1        0.0000 
     16 O           9.0840    2.3420  -10.1880 O.2       4 ALP1        0.0000 
     17 CA          8.4935    4.0345   -4.3740 C.3       3 GLC5        0.0000 
     18 CA          7.4230    4.2580   -6.3050 C.3       9 GLL5        0.0000 
     19 CA          9.5640    3.8110   -2.4430 C.3       6 GLP5        0.0000 
     20 CA          6.6340    4.0745   -3.7825 C.3       3 GLC5        0.0000 
     21 CA          6.1640    4.4590   -5.8040 C.3       9 GLL5        0.0000 
     22 CA          7.1040    3.6900   -1.7610 C.3       6 GLP5        0.0000 
     23 CA          3.8095    1.4595   -8.4210 C.3       3 GLC5        0.0000 
     24 CA          2.7440    2.5490   -7.0550 C.3       9 GLL5        0.0000 
     25 CA          4.8750    0.3700   -9.7870 C.3       6 GLP5        0.0000 
     26 CA          1.3535    7.4175   -4.3470 C.3       3 GLC5        0.0000 
     27 CA          2.9250    6.0180   -4.3160 C.3       9 GLL5        0.0000 
     28 CA         -0.2180    8.8170   -4.3780 C.3       6 GLP5        0.0000 
     29 CA          5.3305    2.2025   -9.0003 C.3       3 GLC5        0.0000 
     30 CA          8.1335    2.4068   -6.2402 C.3       3 GLC5        0.0000 
     31 CA          7.4670    3.9790   -7.6180 C.3       9 GLL5        0.0000 
     32 CA          8.8220    0.6950   -5.5190 C.3       6 GLP5        0.0000 
     33 CA          7.3963    6.1002   -5.5747 C.3       3 GLC5        0.0000 
     34 CA          7.9990    7.8420   -5.0950 C.3       6 GLP5        0.0000 
     35 CA          2.8975    6.3608   -6.9623 C.3       3 GLC5        0.0000 
     36 CA          3.9870    5.7140   -5.0800 C.3       9 GLL5        0.0000 
     37 CA          1.8560    7.5410   -8.4170 C.3       6 GLP5        0.0000 
     38 CA          3.7515    1.9538   -5.1025 C.3       3 GLC5        0.0000 
     39 CA          2.7540    3.8740   -5.9650 C.3       9 GLL5        0.0000 
     40 CA          4.7540    0.6960   -3.6950 C.3       6 GLP5        0.0000 
     41 CA          4.5695    7.2385   -3.4915 C.3       3 GLC5        0.0000 
     42 CA          5.6830    8.6110   -2.2850 C.3       6 GLP5        0.0000 
     43 CA          2.2467    6.6280   -2.4672 C.3       3 GLC5        0.0000 
     44 CA          2.1340    7.6140   -0.5770 C.3       6 GLP5        0.0000 
     45 CA          3.5465    4.8660   -2.8258 C.3       3 GLC5        0.0000 
     46 CA          1.7940    5.2660   -4.3990 C.3       9 GLL5        0.0000 
     47 CA          4.4680    4.1660   -1.1030 C.3       6 GLP5        0.0000 
     48 CA          0.3645    6.2067   -5.1710 C.3       3 GLC5        0.0000 
     49 CA         -0.9980    7.6800   -5.5290 C.3       6 GLP5        0.0000 
@<TRIPOS>BOND
@<TRIPOS>SUBSTRUCTURE
     1 ALC1       14 GROUP        1 X    ALC  0     ROOT ALC X 1
     2 SEC2       11 GROUP        1 X    SEC  0     **** SEC X 2
     3 GLC5        1 GROUP        1 X    GLC  0     **** GLC X 6
     4 ALP1       16 GROUP        1 Y    ALP  0     ROOT ALP Y 8
     5 SEP2       13 GROUP        1 Y    SEP  0     **** SEP Y 9
     6 GLP5        3 GROUP        1 Y    GLP  0     **** GLP Y 13
     7 ALL1       15 GROUP        1 Z    ALL  0     ROOT ALL Z 15
     8 SEL2       12 GROUP        1 Z    SEL  0     **** SEL Z 16
     9 GLL5        2 GROUP        1 Z    GLL  0     **** GLL Z 20
@<TRIPOS>SET

