#    Name: 4iwf_15Q_2_ligand
#    Modification time : Tue Mar 25 04:47:24 2014

@<TRIPOS>MOLECULE
4iwf_15Q_2_ligand
   28    29     1     0     0
SMALL
NO_CHARGES


@<TRIPOS>ATOM
      1 CAK         5.1580    4.1550   -7.9890 C.ar      1 15Q601      0.0000 
      2 CAO         6.4140    3.9150   -8.4380 C.ar      1 15Q601      0.0000 
      3 FAD         6.9100    3.6410   -9.6640 F         1 15Q601      0.0000 
      4 CAM         7.4670    3.9790   -7.6180 C.ar      1 15Q601      0.0000 
      5 OAB         8.6110    3.7440   -8.2750 O.3       1 15Q601      0.0000 
      6 CAG         7.4230    4.2580   -6.3050 C.ar      1 15Q601      0.0000 
      7 CAI         6.1640    4.4590   -5.8040 C.ar      1 15Q601      0.0000 
      8 CAR         5.0490    4.4220   -6.6260 C.ar      1 15Q601      0.0000 
      9 CAS         3.8910    4.6470   -5.9350 C.ar      1 15Q601      0.0000 
     10 CAP         2.7540    3.8740   -5.9650 C.ar      1 15Q601      0.0000 
     11 CL          2.7440    2.5490   -7.0550 Cl        1 15Q601      0.0000 
     12 CAJ         3.9870    5.7140   -5.0800 C.ar      1 15Q601      0.0000 
     13 CAH         2.9250    6.0180   -4.3160 C.ar      1 15Q601      0.0000 
     14 CAN         1.7940    5.2660   -4.3990 C.ar      1 15Q601      0.0000 
     15 OAC         0.7530    5.6010   -3.6110 O.3       1 15Q601      0.0000 
     16 CAQ         1.6600    4.2010   -5.2270 C.ar      1 15Q601      0.0000 
     17 CAF         0.3360    3.4950   -5.1150 C.2       1 15Q601      0.0000 
     18 NAL        -0.7200    4.1320   -5.4860 N.2       1 15Q601      0.0000 
     19 OAA        -1.9010    3.7640   -4.9500 O.3       1 15Q601      0.0000 
     20 H           4.3494    4.1454   -8.5826 H         1 15Q601      0.0000 
     21 H           8.2403    4.3176   -5.7248 H         1 15Q601      0.0000 
     22 H           6.0351    4.6436   -4.7874 H         1 15Q601      0.0000 
     23 H           4.8572    6.2607   -5.0341 H         1 15Q601      0.0000 
     24 H           2.9590    6.8245   -3.6602 H         1 15Q601      0.0000 
     25 H           0.3808    2.5487   -4.7466 H         1 15Q601      0.0000 
     26 H           8.3710    3.0796   -8.9828 H         1 15Q601      0.0000 
     27 H           0.5174    6.5357   -3.8771 H         1 15Q601      0.0000 
     28 H          -2.5377    4.4928   -5.2018 H         1 15Q601      0.0000 
@<TRIPOS>BOND
     1    2    1 ar   
     2    8    1 ar   
     3   20    1 1    
     4    3    2 1    
     5    4    2 ar   
     6    5    4 1    
     7    6    4 ar   
     8   26    5 1    
     9    7    6 ar   
    10   21    6 1    
    11    8    7 ar   
    12   22    7 1    
    13    9    8 1    
    14   10    9 ar   
    15   12    9 ar   
    16   11   10 1    
    17   16   10 ar   
    18   13   12 ar   
    19   23   12 1    
    20   14   13 ar   
    21   24   13 1    
    22   15   14 1    
    23   16   14 ar   
    24   27   15 1    
    25   17   16 1    
    26   18   17 2    
    27   25   17 1    
    28   19   18 1    
    29   28   19 1    
@<TRIPOS>SUBSTRUCTURE
     1 15Q601      1 GROUP   
@<TRIPOS>SET

