#    Name: 3ehe_NAD_2_INTS_M
#    Modification time : Tue Mar 25 01:51:48 2014

@<TRIPOS>MOLECULE
3ehe_NAD_2_INTS_M
  118     0     9     0     0
SMALL
NO_CHARGES


@<TRIPOS>ATOM
      1 N          76.5885   -1.6470   28.4680 N.am      2 SEC2        0.0000 
      2 N          75.4330   -1.5670   29.5130 N.am      8 SEL2        0.0000 
      3 N          77.7440   -1.7270   27.4230 N.am      5 SEP2        0.0000 
      4 N          73.7245    0.1975   31.6295 N.am      2 SEC2        0.0000 
      5 N          73.3930   -0.7250   30.7420 N.am      8 SEL2        0.0000 
      6 N          74.0560    1.1200   32.5170 N.am      5 SEP2        0.0000 
      7 CA         74.2955    3.7185   27.2440 C.3       3 GLC5        0.0000 
      8 CA         73.9860    2.6430   28.6950 C.3       9 GLL5        0.0000 
      9 CA         74.6050    4.7940   25.7930 C.3       6 GLP5        0.0000 
     10 N          71.3325    3.4515   28.4115 N.am      2 SEC2        0.0000 
     11 N          73.0020    3.6800   28.8470 N.am      8 SEL2        0.0000 
     12 N          69.6630    3.2230   27.9760 N.am      5 SEP2        0.0000 
     13 CA         74.7945    1.7510   31.8150 C.3       3 GLC5        0.0000 
     14 CA         74.9600    2.8130   29.8920 C.3       9 GLL5        0.0000 
     15 CA         74.6290    0.6890   33.7380 C.3       6 GLP5        0.0000 
     16 O          76.5265    4.7240   29.6325 O.2       1 ALC1        0.0000 
     17 O          76.2880    3.0570   29.3940 O.2       7 ALL1        0.0000 
     18 O          76.7650    6.3910   29.8710 O.2       4 ALP1        0.0000 
     19 O          76.3970    4.3050   28.6255 O.2       1 ALC1        0.0000 
     20 O          76.5060    5.5530   27.8570 O.2       4 ALP1        0.0000 
     21 CA         74.0765    4.6365   32.7915 C.3       3 GLC5        0.0000 
     22 CA         74.3640    3.9840   30.6730 C.3       9 GLL5        0.0000 
     23 CA         73.7890    5.2890   34.9100 C.3       6 GLP5        0.0000 
     24 CA         75.0720    2.7950   32.4185 C.3       3 GLC5        0.0000 
     25 CA         75.7800    1.6060   34.1640 C.3       6 GLP5        0.0000 
     26 N          75.6760    5.3735   32.6580 N.am      2 SEC2        0.0000 
     27 N          75.3650    4.8060   31.3070 N.am      8 SEL2        0.0000 
     28 N          75.9870    5.9410   34.0090 N.am      5 SEP2        0.0000 
     29 N          74.3930    4.8340   32.4590 N.am      2 SEC2        0.0000 
     30 N          73.4210    4.8620   33.6110 N.am      5 SEP2        0.0000 
     31 N          76.3155    3.6745   31.8965 N.am      2 SEC2        0.0000 
     32 N          77.2660    2.5430   32.4860 N.am      5 SEP2        0.0000 
     33 O          76.0650    5.5985   30.5890 O.2       1 ALC1        0.0000 
     34 O          75.3650    4.8060   31.3070 O.2       7 ALL1        0.0000 
     35 CA         74.0675    4.7615   27.7015 C.3       3 GLC5        0.0000 
     36 CA         73.5300    4.7290   29.6100 C.3       9 GLL5        0.0000 
     37 CA         72.3100    5.2395   28.0215 C.3       3 GLC5        0.0000 
     38 CA         71.0900    5.7500   26.4330 C.3       6 GLP5        0.0000 
     39 CA         72.2670    9.1245   31.5305 C.3       3 GLC5        0.0000 
     40 CA         70.4690    8.4440   30.5950 C.3       9 GLL5        0.0000 
     41 CA         74.0650    9.8050   32.4660 C.3       6 GLP5        0.0000 
     42 CA         70.9005   10.5315   30.8760 C.3       3 GLC5        0.0000 
     43 CA         71.3320   12.6190   31.1570 C.3       6 GLP5        0.0000 
     44 CA         69.6005    9.6420   29.0210 C.3       3 GLC5        0.0000 
     45 CA         68.7320   10.8400   27.4470 C.3       6 GLP5        0.0000 
     46 O          69.2075   10.1175   31.7450 O.2       1 ALC1        0.0000 
     47 O          69.3620    8.8260   31.2050 O.2       7 ALL1        0.0000 
     48 O          69.0530   11.4090   32.2850 O.2       4 ALP1        0.0000 
     49 O          68.5345    8.0265   32.2415 O.2       1 ALC1        0.0000 
     50 O          67.7070    7.2270   33.2780 O.2       4 ALP1        0.0000 
     51 N          70.5950   10.6500   29.5600 N.am      2 SEC2        0.0000 
     52 N          71.2230    9.3290   29.8730 N.am      8 SEL2        0.0000 
     53 N          69.9670   11.9710   29.2470 N.am      5 SEP2        0.0000 
     54 CA         74.2475    8.9120   28.7245 C.3       3 GLC5        0.0000 
     55 CA         72.3800    8.9130   29.2450 C.3       9 GLL5        0.0000 
     56 CA         76.1150    8.9110   28.2040 C.3       6 GLP5        0.0000 
     57 CA         73.2225    9.3590   30.8555 C.3       3 GLC5        0.0000 
     58 CA         71.8560   10.7660   30.2010 C.3       3 GLC5        0.0000 
     59 CA         71.0980    9.6235   27.8725 C.3       3 GLC5        0.0000 
     60 CA         69.8160   10.3340   26.5000 C.3       6 GLP5        0.0000 
     61 CA         71.7350    7.3315   27.8390 C.3       3 GLC5        0.0000 
     62 N          74.1670    8.3930   29.8940 N.am      2 SEC2        0.0000 
     63 N          72.8950    7.6780   29.2470 N.am      8 SEL2        0.0000 
     64 N          75.4390    9.1080   30.5410 N.am      5 SEP2        0.0000 
     65 CA         73.0965    8.3120   31.2160 C.3       3 GLC5        0.0000 
     66 CA         72.1280    6.8190   29.9660 C.3       9 GLL5        0.0000 
     67 N          75.5385   -2.6850   25.7235 N.am      2 SEC2        0.0000 
     68 N          74.4430   -2.3690   26.6720 N.am      8 SEL2        0.0000 
     69 N          76.6340   -3.0010   24.7750 N.am      5 SEP2        0.0000 
     70 N          67.0630    0.0600   25.1450 N.am      2 SEC2        0.0000 
     71 N          68.3870   -0.1630   25.2070 N.am      8 SEL2        0.0000 
     72 N          65.7390    0.2830   25.0830 N.am      5 SEP2        0.0000 
     73 O          68.7995   -0.2765   23.7215 O.2       1 ALC1        0.0000 
     74 O          68.3870   -0.1630   25.2070 O.2       7 ALL1        0.0000 
     75 O          69.2120   -0.3900   22.2360 O.2       4 ALP1        0.0000 
     76 CA         66.7550   -1.5405   25.9870 C.3       3 GLC5        0.0000 
     77 CA         68.7080   -2.3810   26.2760 C.3       9 GLL5        0.0000 
     78 CA         64.8020   -0.7000   25.6980 C.3       6 GLP5        0.0000 
     79 O          66.9375   -1.9985   27.9555 O.2       1 ALC1        0.0000 
     80 O          67.3440   -2.2230   26.7400 O.2       7 ALL1        0.0000 
     81 O          66.5310   -1.7740   29.1710 O.2       4 ALP1        0.0000 
     82 CA         68.9040   -2.3780   23.2120 C.3       3 GLC5        0.0000 
     83 CA         68.8650   -3.2390   25.0310 C.3       9 GLL5        0.0000 
     84 CA         68.9430   -1.5170   21.3930 C.3       6 GLP5        0.0000 
     85 CA         69.2695   -4.8005   23.5900 C.3       3 GLC5        0.0000 
     86 CA         69.6740   -6.3620   22.1490 C.3       6 GLP5        0.0000 
     87 CA         71.0500   -7.8515   24.4210 C.3       3 GLC5        0.0000 
     88 CA         69.9770   -6.7280   25.9860 C.3       9 GLL5        0.0000 
     89 CA         72.1230   -8.9750   22.8560 C.3       6 GLP5        0.0000 
     90 N          71.6420   -9.8465   25.8295 N.am      2 SEC2        0.0000 
     91 N          71.0790   -8.7100   26.6800 N.am      8 SEL2        0.0000 
     92 N          72.2050  -10.9830   24.9790 N.am      5 SEP2        0.0000 
     93 CA         72.2800    3.1115   27.4402 C.3       3 GLC5        0.0000 
     94 CA         73.1880    1.3410   28.6760 C.3       9 GLL5        0.0000 
     95 CA         70.9730    4.2310   26.1950 C.3       6 GLP5        0.0000 
     96 CA         76.1615    1.6820   28.6123 C.3       3 GLC5        0.0000 
     97 CA         77.8500    0.6360   27.9310 C.3       6 GLP5        0.0000 
     98 CA         76.5115    2.9677   30.9078 C.3       3 GLC5        0.0000 
     99 CA         78.3610    2.5370   31.5330 C.3       6 GLP5        0.0000 
    100 CA         71.3133    6.3533   28.3702 C.3       3 GLC5        0.0000 
    101 CA         72.0312   -3.1490   24.3190 C.3       3 GLC5        0.0000 
    102 CA         71.8560   -1.5390   25.5250 C.3       9 GLL5        0.0000 
    103 CA         72.9180   -4.7760   23.4230 C.3       6 GLP5        0.0000 
    104 CA         72.1457   -0.4375   24.1290 C.3       3 GLC5        0.0000 
    105 CA         73.1470    0.6470   23.0430 C.3       6 GLP5        0.0000 
    106 CA         69.4087   -1.3960   23.3835 C.3       3 GLC5        0.0000 
    107 CA         70.4330   -1.5050   24.9050 C.3       9 GLL5        0.0000 
    108 CA         68.4275   -0.0495   26.9462 C.3       3 GLC5        0.0000 
    109 CA         69.3160   -1.0450   25.8430 C.3       9 GLL5        0.0000 
    110 CA         67.8430    1.6140   27.8330 C.3       6 GLP5        0.0000 
    111 CA         71.4580   -5.4035   24.6515 C.3       3 GLC5        0.0000 
    112 CA         70.0190   -5.3340   25.7740 C.3       9 GLL5        0.0000 
    113 CA         67.8725   -8.9855   24.7770 C.3       3 GLC5        0.0000 
    114 CA         68.7770   -7.5110   25.7110 C.3       9 GLL5        0.0000 
    115 CA         67.5190  -10.8290   24.0890 C.3       6 GLP5        0.0000 
    116 CA         65.6480   -5.8420   24.9705 C.3       3 GLC5        0.0000 
    117 CA         67.6750   -6.7730   25.2190 C.3       9 GLL5        0.0000 
    118 CA         63.6370   -5.5910   24.8400 C.3       6 GLP5        0.0000 
@<TRIPOS>BOND
@<TRIPOS>SUBSTRUCTURE
     1 ALC1       16 GROUP        1 X    ALC  0     ROOT ALC X 1
     2 SEC2        1 GROUP        1 X    SEC  0     **** SEC X 2
     3 GLC5        7 GROUP        1 X    GLC  0     **** GLC X 6
     4 ALP1       18 GROUP        1 Y    ALP  0     ROOT ALP Y 8
     5 SEP2        3 GROUP        1 Y    SEP  0     **** SEP Y 9
     6 GLP5        9 GROUP        1 Y    GLP  0     **** GLP Y 13
     7 ALL1       17 GROUP        1 Z    ALL  0     ROOT ALL Z 15
     8 SEL2        2 GROUP        1 Z    SEL  0     **** SEL Z 16
     9 GLL5        8 GROUP        1 Z    GLL  0     **** GLL Z 20
@<TRIPOS>SET

