#    Name: 3ehe_NAD_2_ligand
#    Modification time : Tue Mar 25 01:51:48 2014

@<TRIPOS>MOLECULE
3ehe_NAD_2_ligand
   70    74     1     0     0
SMALL
NO_CHARGES


@<TRIPOS>ATOM
      1 PA         74.0310   -1.0230   29.4770 P.3       1 NAD901      0.0000 
      2 O1A        75.4330   -1.5670   29.5130 O.co2     1 NAD901      0.0000 
      3 O2A        73.3930   -0.7250   30.7420 O.co2     1 NAD901      0.0000 
      4 O5B        74.1070    0.2270   28.5080 O.3       1 NAD901      0.0000 
      5 C5B        73.1880    1.3410   28.6760 C.3       1 NAD901      0.0000 
      6 C4B        73.9860    2.6430   28.6950 C.3       1 NAD901      0.0000 
      7 O4B        73.0020    3.6800   28.8470 O.3       1 NAD901      0.0000 
      8 C3B        74.9600    2.8130   29.8920 C.3       1 NAD901      0.0000 
      9 O3B        76.2880    3.0570   29.3940 O.3       1 NAD901      0.0000 
     10 C2B        74.3640    3.9840   30.6730 C.3       1 NAD901      0.0000 
     11 O2B        75.3650    4.8060   31.3070 O.3       1 NAD901      0.0000 
     12 C1B        73.5300    4.7290   29.6100 C.3       1 NAD901      0.0000 
     13 N9A        72.3700    5.4770   30.1650 N.pl3     1 NAD901      0.0000 
     14 C8A        71.3520    5.0410   30.9350 C.2       1 NAD901      0.0000 
     15 N7A        70.4490    5.9790   31.2660 N.2       1 NAD901      0.0000 
     16 C5A        70.9450    7.0940   30.6490 C.ar      1 NAD901      0.0000 
     17 C6A        70.4690    8.4440   30.5950 C.ar      1 NAD901      0.0000 
     18 N6A        69.3620    8.8260   31.2050 N.pl3     1 NAD901      0.0000 
     19 N1A        71.2230    9.3290   29.8730 N.ar      1 NAD901      0.0000 
     20 C2A        72.3800    8.9130   29.2450 C.ar      1 NAD901      0.0000 
     21 N3A        72.8950    7.6780   29.2470 N.ar      1 NAD901      0.0000 
     22 C4A        72.1280    6.8190   29.9660 C.ar      1 NAD901      0.0000 
     23 O3         73.1190   -2.0770   28.7560 O.3       1 NAD901      0.0000 
     24 PN         73.2460   -2.8260   27.3540 P.3       1 NAD901      0.0000 
     25 O1N        73.2570   -4.2700   27.6740 O.co2     1 NAD901      0.0000 
     26 O2N        74.4430   -2.3690   26.6720 O.co2     1 NAD901      0.0000 
     27 O5D        71.8810   -2.5580   26.5530 O.3       1 NAD901      0.0000 
     28 C5D        71.8560   -1.5390   25.5250 C.3       1 NAD901      0.0000 
     29 C4D        70.4330   -1.5050   24.9050 C.3       1 NAD901      0.0000 
     30 O4D        70.0640   -2.8580   24.4630 O.3       1 NAD901      0.0000 
     31 C3D        69.3160   -1.0450   25.8430 C.3       1 NAD901      0.0000 
     32 O3D        68.3870   -0.1630   25.2070 O.3       1 NAD901      0.0000 
     33 C2D        68.7080   -2.3810   26.2760 C.3       1 NAD901      0.0000 
     34 O2D        67.3440   -2.2230   26.7400 O.3       1 NAD901      0.0000 
     35 C1D        68.8650   -3.2390   25.0310 C.3       1 NAD901      0.0000 
     36 N1N        68.8550   -4.7310   25.2790 N.pl3     1 NAD901      0.0000 
     37 C2N        70.0190   -5.3340   25.7740 C.ar      1 NAD901      0.0000 
     38 C3N        69.9770   -6.7280   25.9860 C.ar      1 NAD901      0.0000 
     39 C7N        71.1670   -7.4960   26.5160 C.2       1 NAD901      0.0000 
     40 O7N        71.0790   -8.7100   26.6800 O.2       1 NAD901      0.0000 
     41 N7N        72.2990   -6.8440   26.7930 N.am      1 NAD901      0.0000 
     42 C4N        68.7770   -7.5110   25.7110 C.ar      1 NAD901      0.0000 
     43 C5N        67.6750   -6.7730   25.2190 C.ar      1 NAD901      0.0000 
     44 C6N        67.6430   -5.4130   24.9830 C.ar      1 NAD901      0.0000 
     45 H          72.6401    1.2625   29.6145 H         1 NAD901      0.0000 
     46 H          72.4734    1.3903   27.8550 H         1 NAD901      0.0000 
     47 H          74.5135    2.7644   27.7870 H         1 NAD901      0.0000 
     48 H          74.8806    1.9317   30.4818 H         1 NAD901      0.0000 
     49 H          73.6594    3.5632   31.3805 H         1 NAD901      0.0000 
     50 H          74.1636    5.3432   29.0442 H         1 NAD901      0.0000 
     51 H          71.2767    4.0812   31.2384 H         1 NAD901      0.0000 
     52 H          68.8563    8.1109   31.6876 H         1 NAD901      0.0000 
     53 H          69.1299    9.7957   31.1289 H         1 NAD901      0.0000 
     54 H          72.9173    9.6813   28.6955 H         1 NAD901      0.0000 
     55 H          72.5574   -1.7549   24.7252 H         1 NAD901      0.0000 
     56 H          72.0617   -0.5527   25.9289 H         1 NAD901      0.0000 
     57 H          70.4474   -0.8513   24.0407 H         1 NAD901      0.0000 
     58 H          69.7926   -0.6193   26.7092 H         1 NAD901      0.0000 
     59 H          69.3611   -2.7842   27.0362 H         1 NAD901      0.0000 
     60 H          68.0344   -2.9920   24.3618 H         1 NAD901      0.0000 
     61 H          70.8458   -4.8031   25.9699 H         1 NAD901      0.0000 
     62 H          72.3115   -5.8694   26.5693 H         1 NAD901      0.0000 
     63 H          73.0325   -7.3889   27.1992 H         1 NAD901      0.0000 
     64 H          68.7577   -8.4779   25.8634 H         1 NAD901      0.0000 
     65 H          66.7867   -7.3346   25.0140 H         1 NAD901      0.0000 
     66 H          66.8522   -4.9332   24.6367 H         1 NAD901      0.0000 
     67 H          76.2169    3.9081   28.8739 H         1 NAD901      0.0000 
     68 H          75.4187    5.6298   30.7426 H         1 NAD901      0.0000 
     69 H          68.5976   -0.2252   24.2314 H         1 NAD901      0.0000 
     70 H          67.4173   -2.1344   27.7334 H         1 NAD901      0.0000 
@<TRIPOS>BOND
     1    2    1 ar   
     2    3    1 ar   
     3    4    1 1    
     4   23    1 1    
     5    5    4 1    
     6    6    5 1    
     7   45    5 1    
     8   46    5 1    
     9    7    6 1    
    10    8    6 1    
    11   47    6 1    
    12   12    7 1    
    13    9    8 1    
    14   10    8 1    
    15   48    8 1    
    16   67    9 1    
    17   11   10 1    
    18   12   10 1    
    19   49   10 1    
    20   68   11 1    
    21   13   12 1    
    22   50   12 1    
    23   14   13 1    
    24   22   13 1    
    25   15   14 2    
    26   51   14 1    
    27   16   15 1    
    28   17   16 ar   
    29   22   16 ar   
    30   18   17 1    
    31   19   17 ar   
    32   52   18 1    
    33   53   18 1    
    34   20   19 ar   
    35   21   20 ar   
    36   54   20 1    
    37   22   21 ar   
    38   24   23 1    
    39   25   24 ar   
    40   26   24 ar   
    41   27   24 1    
    42   28   27 1    
    43   29   28 1    
    44   55   28 1    
    45   56   28 1    
    46   30   29 1    
    47   31   29 1    
    48   57   29 1    
    49   35   30 1    
    50   32   31 1    
    51   33   31 1    
    52   58   31 1    
    53   69   32 1    
    54   34   33 1    
    55   35   33 1    
    56   59   33 1    
    57   70   34 1    
    58   36   35 1    
    59   60   35 1    
    60   37   36 ar   
    61   44   36 ar   
    62   38   37 ar   
    63   61   37 1    
    64   39   38 1    
    65   42   38 ar   
    66   40   39 2    
    67   41   39 am   
    68   62   41 1    
    69   63   41 1    
    70   43   42 ar   
    71   64   42 1    
    72   44   43 ar   
    73   65   43 1    
    74   66   44 1    
@<TRIPOS>SUBSTRUCTURE
     1 NAD901      1 GROUP   
@<TRIPOS>SET

