#    Name: 2q8m_AMP_2_INTS_M
#    Modification time : Mon Mar 24 21:02:20 2014

@<TRIPOS>MOLECULE
2q8m_AMP_2_INTS_M
   55     0    12     0     0
SMALL
NO_CHARGES


@<TRIPOS>ATOM
      1 NZ        116.2555   48.2965   39.2660 N.4       3 LYC4        0.0000 
      2 NZ        115.0900   48.1040   38.5250 N.4      11 LYL4        0.0000 
      3 NZ        117.4210   48.4890   40.0070 N.4       7 LYP4        0.0000 
      4 N         116.2555   48.2965   39.2660 N.am      2 SEC2        0.0000 
      5 N         115.0900   48.1040   38.5250 N.am     10 SEL2        0.0000 
      6 N         117.4210   48.4890   40.0070 N.am      6 SEP2        0.0000 
      7 N         114.3795   47.4550   39.3705 N.am      2 SEC2        0.0000 
      8 N         113.6690   46.8060   40.2160 N.am      6 SEP2        0.0000 
      9 N         115.6050   49.2115   35.8300 N.am      2 SEC2        0.0000 
     10 N         114.0220   48.7300   36.3320 N.am     10 SEL2        0.0000 
     11 N         117.1880   49.6930   35.3280 N.am      6 SEP2        0.0000 
     12 N         114.2665   49.4655   34.9020 N.am      2 SEC2        0.0000 
     13 N         114.5110   50.2010   33.4720 N.am      6 SEP2        0.0000 
     14 N         113.5820   47.3670   35.9450 N.am      2 SEC2        0.0000 
     15 N         113.1420   46.0040   35.5580 N.am      6 SEP2        0.0000 
     16 NZ        116.5905   49.3665   38.6780 N.4       3 LYC4        0.0000 
     17 NZ        115.7600   50.2440   37.3490 N.4      11 LYL4        0.0000 
     18 N         115.5570   51.0975   36.3275 N.am      2 SEC2        0.0000 
     19 N         115.7600   50.2440   37.3490 N.am     10 SEL2        0.0000 
     20 N         115.3540   51.9510   35.3060 N.am      6 SEP2        0.0000 
     21 N         116.4740   49.9685   36.3385 N.am      2 SEC2        0.0000 
     22 CA        113.7965   51.9270   38.2035 C.3       4 GLC5        0.0000 
     23 CA        113.7260   50.5280   39.7550 C.3      12 GLL5        0.0000 
     24 CA        113.8670   53.3260   36.6520 C.3       8 GLP5        0.0000 
     25 CA        112.8500   47.2905   40.4015 C.3       4 GLC5        0.0000 
     26 CA        111.7830   49.1260   40.6620 C.3      12 GLL5        0.0000 
     27 CA        113.9170   45.4550   40.1410 C.3       8 GLP5        0.0000 
     28 O         113.0050   47.5865   40.9705 O.2       1 ALC1        0.0000 
     29 O         112.3410   48.3670   41.7250 O.2       9 ALL1        0.0000 
     30 O         113.6690   46.8060   40.2160 O.2       5 ALP1        0.0000 
     31 CA        109.6355   52.4610   39.8450 C.3       4 GLC5        0.0000 
     32 CA        110.1690   50.7090   40.0140 C.3      12 GLL5        0.0000 
     33 CA        109.1020   54.2130   39.6760 C.3       8 GLP5        0.0000 
     34 CA        105.6805   50.2210   36.0365 C.3       4 GLC5        0.0000 
     35 CA        107.4750   49.1160   36.2740 C.3      12 GLL5        0.0000 
     36 CA        103.8860   51.3260   35.7990 C.3       8 GLP5        0.0000 
     37 CA        106.8685   47.0620   36.1300 C.3       4 GLC5        0.0000 
     38 CA        106.2620   45.0080   35.9860 C.3       8 GLP5        0.0000 
     39 O         106.5080   49.4565   33.9335 O.2       1 ALC1        0.0000 
     40 O         107.4340   48.8240   34.9720 O.2       9 ALL1        0.0000 
     41 O         105.5820   50.0890   32.8950 O.2       5 ALP1        0.0000 
     42 O         108.4545   48.7595   33.9565 O.2       1 ALC1        0.0000 
     43 O         109.4750   48.6950   32.9410 O.2       5 ALP1        0.0000 
     44 CA        105.1450   50.2845   37.0590 C.3       4 GLC5        0.0000 
     45 CA        106.4040   49.2430   38.3190 C.3      12 GLL5        0.0000 
     46 CA        108.0050   47.9025   38.6530 C.3       4 GLC5        0.0000 
     47 CA        109.6060   46.5620   38.9870 C.3       8 GLP5        0.0000 
     48 CA        105.5670   47.6420   39.2350 C.3       4 GLC5        0.0000 
     49 CA        104.7300   46.0410   40.1510 C.3       8 GLP5        0.0000 
     50 CA        110.1105   48.2874   39.6977 C.3       4 GLC5        0.0000 
     51 CA        110.3390   49.5070   40.9440 C.3      12 GLL5        0.0000 
     52 CA        108.0360   50.9797   35.6557 C.3       4 GLC5        0.0000 
     53 CA        108.6210   49.5970   36.9250 C.3      12 GLL5        0.0000 
     54 CA        108.0240   52.6030   34.7120 C.3       8 GLP5        0.0000 
     55 CA        108.9437   48.0851   38.2131 C.3       4 GLC5        0.0000 
@<TRIPOS>BOND
@<TRIPOS>SUBSTRUCTURE
     1 ALC1       28 GROUP        1 X    ALC  0     ROOT ALC X 1
     2 SEC2        4 GROUP        1 X    SEC  0     **** SEC X 2
     3 LYC4        1 GROUP        1 X    LYC  0     **** LYC X 4
     4 GLC5       22 GROUP        1 X    GLC  0     **** GLC X 6
     5 ALP1       30 GROUP        1 Y    ALP  0     ROOT ALP Y 8
     6 SEP2        6 GROUP        1 Y    SEP  0     **** SEP Y 9
     7 LYP4        3 GROUP        1 Y    LYP  0     **** LYP Y 11
     8 GLP5       24 GROUP        1 Y    GLP  0     **** GLP Y 13
     9 ALL1       29 GROUP        1 Z    ALL  0     ROOT ALL Z 15
    10 SEL2        5 GROUP        1 Z    SEL  0     **** SEL Z 16
    11 LYL4        2 GROUP        1 Z    LYL  0     **** LYL Z 18
    12 GLL5       23 GROUP        1 Z    GLL  0     **** GLL Z 20
@<TRIPOS>SET

