#    Name: 2q8m_AMP_2_ligand
#    Modification time : Mon Mar 24 21:02:20 2014

@<TRIPOS>MOLECULE
2q8m_AMP_2_ligand
   35    37     1     0     0
SMALL
NO_CHARGES


@<TRIPOS>ATOM
      1 P         114.6570   49.2320   37.6150 P.3       1 AMP343      0.0000 
      2 O1P       115.0900   48.1040   38.5250 O.co2     1 AMP343      0.0000 
      3 O2P       114.0220   48.7300   36.3320 O.co2     1 AMP343      0.0000 
      4 O3P       115.7600   50.2440   37.3490 O.co2     1 AMP343      0.0000 
      5 O5'       113.4940   50.0390   38.4230 O.3       1 AMP343      0.0000 
      6 C5'       113.7260   50.5280   39.7550 C.3       1 AMP343      0.0000 
      7 C4'       112.4450   50.4910   40.5540 C.3       1 AMP343      0.0000 
      8 O4'       111.4450   51.3250   39.9100 O.3       1 AMP343      0.0000 
      9 C3'       111.7830   49.1260   40.6620 C.3       1 AMP343      0.0000 
     10 O3'       112.3410   48.3670   41.7250 O.3       1 AMP343      0.0000 
     11 C2'       110.3390   49.5070   40.9440 C.3       1 AMP343      0.0000 
     12 O2'       110.1440   49.9180   42.2820 O.3       1 AMP343      0.0000 
     13 C1'       110.1690   50.7090   40.0140 C.3       1 AMP343      0.0000 
     14 N9        109.7540   50.3090   38.6710 N.pl3     1 AMP343      0.0000 
     15 C8        110.5300   50.2970   37.5390 C.2       1 AMP343      0.0000 
     16 N7        109.8990   49.8780   36.4690 N.2       1 AMP343      0.0000 
     17 C5        108.6210   49.5970   36.9250 C.ar      1 AMP343      0.0000 
     18 C6        107.4750   49.1160   36.2740 C.ar      1 AMP343      0.0000 
     19 N6        107.4340   48.8240   34.9720 N.pl3     1 AMP343      0.0000 
     20 N1        106.3590   48.9440   37.0140 N.ar      1 AMP343      0.0000 
     21 C2        106.4040   49.2430   38.3190 C.ar      1 AMP343      0.0000 
     22 N3        107.4200   49.7030   39.0440 N.ar      1 AMP343      0.0000 
     23 C4        108.5150   49.8600   38.2790 C.ar      1 AMP343      0.0000 
     24 H         114.0933   51.5631   39.7400 H         1 AMP343      0.0000 
     25 H         114.4758   49.9184   40.2772 H         1 AMP343      0.0000 
     26 H         112.6194   50.8631   41.5521 H         1 AMP343      0.0000 
     27 H         111.8267   48.6609   39.7161 H         1 AMP343      0.0000 
     28 H         109.7096   48.7433   40.6081 H         1 AMP343      0.0000 
     29 H         109.4594   51.3765   40.4513 H         1 AMP343      0.0000 
     30 H         111.4903   50.5888   37.5616 H         1 AMP343      0.0000 
     31 H         106.5413   48.9102   34.5297 H         1 AMP343      0.0000 
     32 H         108.2997   48.5454   34.5561 H         1 AMP343      0.0000 
     33 H         105.4542   49.0825   38.8727 H         1 AMP343      0.0000 
     34 H         112.5104   47.4618   41.3353 H         1 AMP343      0.0000 
     35 H         110.9308   49.5554   42.7813 H         1 AMP343      0.0000 
@<TRIPOS>BOND
     1    2    1 ar   
     2    3    1 ar   
     3    4    1 ar   
     4    5    1 1    
     5    6    5 1    
     6    7    6 1    
     7   24    6 1    
     8   25    6 1    
     9    8    7 1    
    10    9    7 1    
    11   26    7 1    
    12   13    8 1    
    13   10    9 1    
    14   11    9 1    
    15   27    9 1    
    16   34   10 1    
    17   12   11 1    
    18   13   11 1    
    19   28   11 1    
    20   35   12 1    
    21   14   13 1    
    22   29   13 1    
    23   15   14 1    
    24   23   14 1    
    25   16   15 2    
    26   30   15 1    
    27   17   16 1    
    28   18   17 ar   
    29   23   17 ar   
    30   19   18 1    
    31   20   18 ar   
    32   31   19 1    
    33   32   19 1    
    34   21   20 ar   
    35   22   21 ar   
    36   33   21 1    
    37   23   22 ar   
@<TRIPOS>SUBSTRUCTURE
     1 AMP343      1 GROUP   
@<TRIPOS>SET

