#    Name: 2g21_L1B_1_INTS_M
#    Modification time : Tue Mar 25 13:26:38 2014

@<TRIPOS>MOLECULE
2g21_L1B_1_INTS_M
   60     0     9     0     0
SMALL
NO_CHARGES


@<TRIPOS>ATOM
      1 CA         25.8640  108.1360  132.2480 C.3       3 GLC5        0.0000 
      2 CA         27.6380  107.7790  131.1650 C.3       9 GLL5        0.0000 
      3 CA         24.0900  108.4930  133.3310 C.3       6 GLP5        0.0000 
      4 O          29.0910  103.7575  130.3555 O.2       1 ALC1        0.0000 
      5 O          27.7390  104.4970  129.8800 O.2       7 ALL1        0.0000 
      6 O          30.4430  103.0180  130.8310 O.2       4 ALP1        0.0000 
      7 O          27.5580  103.4350  128.7175 O.2       1 ALC1        0.0000 
      8 O          27.3770  102.3730  127.5550 O.2       4 ALP1        0.0000 
      9 O          27.5170  109.7855  131.4965 O.2       1 ALC1        0.0000 
     10 O          28.1660  108.4940  132.1720 O.2       7 ALL1        0.0000 
     11 O          26.8680  111.0770  130.8210 O.2       4 ALP1        0.0000 
     12 O          27.3570  109.6570  132.5750 O.2       1 ALC1        0.0000 
     13 O          26.5480  110.8200  132.9780 O.2       4 ALP1        0.0000 
     14 O          28.3320  107.9850  133.4880 O.2       1 ALC1        0.0000 
     15 O          28.4980  107.4760  134.8040 O.2       4 ALP1        0.0000 
     16 CA         26.9600  109.4075  127.9240 C.3       3 GLC5        0.0000 
     17 CA         25.3160  108.6110  128.4440 C.3       9 GLL5        0.0000 
     18 CA         28.6040  110.2040  127.4040 C.3       6 GLP5        0.0000 
     19 CA         22.4620  109.2935  130.0965 C.3       3 GLC5        0.0000 
     20 CA         23.9580  108.8180  129.1230 C.3       9 GLL5        0.0000 
     21 CA         20.9660  109.7690  131.0700 C.3       6 GLP5        0.0000 
     22 CA         24.3985  110.3360  130.4045 C.3       3 GLC5        0.0000 
     23 CA         24.8390  111.8540  131.6860 C.3       6 GLP5        0.0000 
     24 CA         24.0240  108.6555  131.2270 C.3       3 GLC5        0.0000 
     25 CA         19.9585  102.8280  128.4255 C.3       3 GLC5        0.0000 
     26 CA         21.6750  102.5460  127.6430 C.3       9 GLL5        0.0000 
     27 CA         18.2420  103.1100  129.2080 C.3       6 GLP5        0.0000 
     28 CA         20.7850  105.4825  128.4070 C.3       3 GLC5        0.0000 
     29 CA         21.4620  104.8240  130.1050 C.3       9 GLL5        0.0000 
     30 CA         20.1080  106.1410  126.7090 C.3       6 GLP5        0.0000 
     31 CA         19.4270  104.8475  131.4350 C.3       3 GLC5        0.0000 
     32 CA         21.3950  105.3900  131.5280 C.3       9 GLL5        0.0000 
     33 CA         17.4590  104.3050  131.3420 C.3       6 GLP5        0.0000 
     34 CA         21.1805  107.5795  131.2990 C.3       3 GLC5        0.0000 
     35 CA         22.7425  106.9415  132.4295 C.3       3 GLC5        0.0000 
     36 N          18.6180  106.3210  132.0860 N.am      2 SEC2        0.0000 
     37 N          20.2440  106.1090  131.9450 N.am      8 SEL2        0.0000 
     38 N          16.9920  106.5330  132.2270 N.am      5 SEP2        0.0000 
     39 CA         18.9205  105.4265  132.3220 C.3       3 GLC5        0.0000 
     40 CA         20.3820  106.5480  133.3020 C.3       9 GLL5        0.0000 
     41 CA         18.6315  106.1455  134.3460 C.3       3 GLC5        0.0000 
     42 CA         16.8810  105.7430  135.3900 C.3       6 GLP5        0.0000 
     43 CA         20.6740  108.1585  132.1860 C.3       3 GLC5        0.0000 
     44 CA         19.7915  107.2765  135.3220 C.3       3 GLC5        0.0000 
     45 CA         19.2010  108.0050  137.3420 C.3       6 GLP5        0.0000 
     46 CA         22.2360  107.5205  133.3165 C.3       3 GLC5        0.0000 
     47 CA         28.2101  106.7655  128.2635 C.3       3 GLC5        0.0000 
     48 CA         26.4810  106.3880  129.0820 C.3       9 GLL5        0.0000 
     49 CA         29.8340  106.5990  127.1060 C.3       6 GLP5        0.0000 
     50 CA         24.2105  109.8187  127.4737 C.3       3 GLC5        0.0000 
     51 CA         23.7840  110.9230  126.1640 C.3       6 GLP5        0.0000 
     52 CA         27.8353  106.0415  127.2678 C.3       3 GLC5        0.0000 
     53 CA         25.6910  105.5580  128.1200 C.3       9 GLL5        0.0000 
     54 CA         24.7779  102.4854  124.5656 C.3       3 GLC5        0.0000 
     55 CA         23.1740  103.0780  125.5240 C.3       9 GLL5        0.0000 
     56 CA         25.6800  101.3010  123.2740 C.3       6 GLP5        0.0000 
     57 CA         21.1320  103.6173  124.6120 C.3       3 GLC5        0.0000 
     58 CA         19.7030  104.5120  123.3960 C.3       6 GLP5        0.0000 
     59 CA         20.0490  103.6390  129.6027 C.3       3 GLC5        0.0000 
     60 CA         22.2500  103.5120  129.8900 C.3       9 GLL5        0.0000 
@<TRIPOS>BOND
@<TRIPOS>SUBSTRUCTURE
     1 ALC1        4 GROUP        1 X    ALC  0     ROOT ALC X 1
     2 SEC2       36 GROUP        1 X    SEC  0     **** SEC X 2
     3 GLC5        1 GROUP        1 X    GLC  0     **** GLC X 6
     4 ALP1        6 GROUP        1 Y    ALP  0     ROOT ALP Y 8
     5 SEP2       38 GROUP        1 Y    SEP  0     **** SEP Y 9
     6 GLP5        3 GROUP        1 Y    GLP  0     **** GLP Y 13
     7 ALL1        5 GROUP        1 Z    ALL  0     ROOT ALL Z 15
     8 SEL2       37 GROUP        1 Z    SEL  0     **** SEL Z 16
     9 GLL5        2 GROUP        1 Z    GLL  0     **** GLL Z 20
@<TRIPOS>SET

