#    Name: 2g21_L1B_1_ligand
#    Modification time : Tue Mar 25 13:26:38 2014

@<TRIPOS>MOLECULE
2g21_L1B_1_ligand
   49    51     1     0     0
SMALL
NO_CHARGES


@<TRIPOS>ATOM
      1 C1         27.3920  105.7980  130.0020 C.ar      1 L1B885      0.0000 
      2 N1         27.9590  106.4670  131.0370 N.ar      1 L1B885      0.0000 
      3 C2         27.6380  107.7790  131.1650 C.ar      1 L1B885      0.0000 
      4 N2         26.8190  108.4280  130.3380 N.ar      1 L1B885      0.0000 
      5 C3         26.2360  107.7710  129.3000 C.ar      1 L1B885      0.0000 
      6 C4         26.4810  106.3880  129.0820 C.ar      1 L1B885      0.0000 
      7 N3         27.7390  104.4970  129.8800 N.pl3     1 L1B885      0.0000 
      8 N4         28.1660  108.4940  132.1720 N.pl3     1 L1B885      0.0000 
      9 C5         25.3160  108.6110  128.4440 C.3       1 L1B885      0.0000 
     10 C6         23.9580  108.8180  129.1230 C.3       1 L1B885      0.0000 
     11 C7         25.9820  105.4100  126.7390 C.ar      1 L1B885      0.0000 
     12 C8         25.1440  104.5990  125.9250 C.ar      1 L1B885      0.0000 
     13 C9         24.0110  103.9240  126.4560 C.ar      1 L1B885      0.0000 
     14 C10        23.7050  104.0660  127.8610 C.ar      1 L1B885      0.0000 
     15 C11        24.5750  104.8910  128.6340 C.ar      1 L1B885      0.0000 
     16 C12        25.6910  105.5580  128.1200 C.ar      1 L1B885      0.0000 
     17 C13        23.1740  103.0780  125.5240 C.ar      1 L1B885      0.0000 
     18 C14        21.9480  102.3670  126.1320 C.ar      1 L1B885      0.0000 
     19 C15        21.6750  102.5460  127.6430 C.ar      1 L1B885      0.0000 
     20 N5         22.5900  103.4090  128.4350 N.pl3     1 L1B885      0.0000 
     21 C16        22.2500  103.5120  129.8900 C.3       1 L1B885      0.0000 
     22 C17        21.4620  104.8240  130.1050 C.3       1 L1B885      0.0000 
     23 C18        21.3950  105.3900  131.5280 C.3       1 L1B885      0.0000 
     24 O1         20.2440  106.1090  131.9450 O.3       1 L1B885      0.0000 
     25 C19        20.3820  106.5480  133.3020 C.3       1 L1B885      0.0000 
     26 H          28.3714  104.1437  130.5694 H         1 L1B885      0.0000 
     27 H          27.3325  104.0034  129.1111 H         1 L1B885      0.0000 
     28 H          27.8670  109.4459  132.2398 H         1 L1B885      0.0000 
     29 H          28.8109  108.0106  132.7640 H         1 L1B885      0.0000 
     30 H          25.1579  108.1190  127.4818 H         1 L1B885      0.0000 
     31 H          25.7719  109.5867  128.2622 H         1 L1B885      0.0000 
     32 H          26.7854  105.8809  126.3322 H         1 L1B885      0.0000 
     33 H          25.3641  104.4980  124.9233 H         1 L1B885      0.0000 
     34 H          24.3526  104.9972  129.6567 H         1 L1B885      0.0000 
     35 H          23.3847  102.9787  124.5921 H         1 L1B885      0.0000 
     36 H          21.3673  101.8258  125.5866 H         1 L1B885      0.0000 
     37 H          20.9102  102.0902  128.0441 H         1 L1B885      0.0000 
     38 H          23.1477  103.5480  130.4867 H         1 L1B885      0.0000 
     39 H          21.6289  102.6839  130.1930 H         1 L1B885      0.0000 
     40 H          20.4200  104.6681  129.7341 H         1 L1B885      0.0000 
     41 H          21.8944  105.6032  129.4316 H         1 L1B885      0.0000 
     42 H          22.3340  106.0226  131.6642 H         1 L1B885      0.0000 
     43 H          21.5963  104.5138  132.2295 H         1 L1B885      0.0000 
     44 H          24.0505  109.2791  130.0055 H         1 L1B885      0.0000 
     45 H          23.3443  109.3755  128.5639 H         1 L1B885      0.0000 
     46 H          23.4918  107.9499  129.2933 H         1 L1B885      0.0000 
     47 H          20.5008  105.7795  133.9307 H         1 L1B885      0.0000 
     48 H          21.1733  107.1480  133.4196 H         1 L1B885      0.0000 
     49 H          19.5791  107.0579  133.6109 H         1 L1B885      0.0000 
@<TRIPOS>BOND
     1    2    1 ar   
     2    6    1 ar   
     3    7    1 1    
     4    3    2 ar   
     5    4    3 ar   
     6    8    3 1    
     7    5    4 ar   
     8    6    5 ar   
     9    9    5 1    
    10   16    6 1    
    11   26    7 1    
    12   27    7 1    
    13   28    8 1    
    14   29    8 1    
    15   10    9 1    
    16   30    9 1    
    17   31    9 1    
    18   44   10 1    
    19   45   10 1    
    20   46   10 1    
    21   12   11 ar   
    22   16   11 ar   
    23   32   11 1    
    24   13   12 ar   
    25   33   12 1    
    26   14   13 ar   
    27   17   13 ar   
    28   15   14 ar   
    29   20   14 ar   
    30   16   15 ar   
    31   34   15 1    
    32   18   17 ar   
    33   35   17 1    
    34   19   18 ar   
    35   36   18 1    
    36   20   19 ar   
    37   37   19 1    
    38   21   20 1    
    39   22   21 1    
    40   38   21 1    
    41   39   21 1    
    42   23   22 1    
    43   40   22 1    
    44   41   22 1    
    45   24   23 1    
    46   42   23 1    
    47   43   23 1    
    48   25   24 1    
    49   47   25 1    
    50   48   25 1    
    51   49   25 1    
@<TRIPOS>SUBSTRUCTURE
     1 L1B885      1 GROUP   
@<TRIPOS>SET

