#    Name: 3e7x_AMP_1_INTS_M
#    Modification time : Tue Mar 25 01:05:23 2014

@<TRIPOS>MOLECULE
3e7x_AMP_1_INTS_M
   59     0    12     0     0
SMALL
NO_CHARGES


@<TRIPOS>ATOM
      1 NZ         15.8130   44.2545   26.2690 N.4       3 LYC4        0.0000 
      2 NZ         14.5920   43.3600   25.0180 N.4      11 LYL4        0.0000 
      3 NZ         17.0340   45.1490   27.5200 N.4       7 LYP4        0.0000 
      4 NZ         16.6035   43.8250   27.1840 N.4       3 LYC4        0.0000 
      5 NZ         16.1730   42.5010   26.8480 N.4      11 LYL4        0.0000 
      6 N          16.6035   43.8250   27.1840 N.am      2 SEC2        0.0000 
      7 N          16.1730   42.5010   26.8480 N.am     10 SEL2        0.0000 
      8 N          17.0340   45.1490   27.5200 N.am      6 SEP2        0.0000 
      9 NZ         13.5000   40.6185   27.6025 N.4       3 LYC4        0.0000 
     10 NZ         13.8380   41.4460   26.5420 N.4      11 LYL4        0.0000 
     11 NZ         13.4910   39.5570   29.9230 N.4       7 LYP4        0.0000 
     12 N          12.7850   40.8750   25.8190 N.am      2 SEC2        0.0000 
     13 N          13.8380   41.4460   26.5420 N.am     10 SEL2        0.0000 
     14 N          11.7320   40.3040   25.0960 N.am      6 SEP2        0.0000 
     15 N          14.1685   40.3875   25.7670 N.am      2 SEC2        0.0000 
     16 N          14.4990   39.3290   24.9920 N.am      6 SEP2        0.0000 
     17 N          13.5000   40.6185   27.6025 N.am      2 SEC2        0.0000 
     18 N          13.1620   39.7910   28.6630 N.am      6 SEP2        0.0000 
     19 CA         11.5120   43.2425   26.5560 C.3       4 GLC5        0.0000 
     20 CA         12.7410   44.3090   27.3980 C.3      12 GLL5        0.0000 
     21 CA         10.2830   42.1760   25.7140 C.3       8 GLP5        0.0000 
     22 O           9.1935   45.4925   29.6030 O.2       1 ALC1        0.0000 
     23 O          10.2320   45.1430   29.0380 O.2       9 ALL1        0.0000 
     24 O           8.1550   45.8420   30.1680 O.2       5 ALP1        0.0000 
     25 O          10.4075   47.1480   30.9600 O.2       1 ALC1        0.0000 
     26 O          11.6120   47.0630   30.3950 O.2       9 ALL1        0.0000 
     27 O           9.2030   47.2330   31.5250 O.2       5 ALP1        0.0000 
     28 CA         14.0700   49.0900   27.4395 C.3       4 GLC5        0.0000 
     29 CA         12.5650   47.8090   28.2980 C.3      12 GLL5        0.0000 
     30 CA         15.5750   50.3710   26.5810 C.3       8 GLP5        0.0000 
     31 CA         14.4610   46.8385   28.4650 C.3       4 GLC5        0.0000 
     32 CA         16.3570   45.8680   28.6320 C.3       8 GLP5        0.0000 
     33 N          13.3150   48.4270   23.9535 N.am      2 SEC2        0.0000 
     34 N          11.8820   48.7140   24.8690 N.am     10 SEL2        0.0000 
     35 N          14.7480   48.1400   23.0380 N.am      6 SEP2        0.0000 
     36 CA          9.5850   51.9885   25.1150 C.3       4 GLC5        0.0000 
     37 CA         11.4530   51.1800   24.9810 C.3      12 GLL5        0.0000 
     38 CA          7.7170   52.7970   25.2490 C.3       8 GLP5        0.0000 
     39 O          11.6010   52.5980   22.5560 O.2       1 ALC1        0.0000 
     40 O          11.3160   51.4110   23.6790 O.2       9 ALL1        0.0000 
     41 O          11.8860   53.7850   21.4330 O.2       5 ALP1        0.0000 
     42 O          11.3125   50.5945   22.4865 O.2       1 ALC1        0.0000 
     43 O          11.3090   49.7780   21.2940 O.2       5 ALP1        0.0000 
     44 CA         13.5630   51.1755   26.8665 C.3       4 GLC5        0.0000 
     45 CA         11.5510   51.9800   27.1520 C.3      12 GLL5        0.0000 
     46 CA         12.9320   52.9195   27.2080 C.3       4 GLC5        0.0000 
     47 CA         14.3130   53.8590   27.2640 C.3       8 GLP5        0.0000 
     48 CA          9.6340   52.3885   26.2005 C.3       4 GLC5        0.0000 
     49 CA          9.4930   51.9915   27.8560 C.3       4 GLC5        0.0000 
     50 CA          7.4350   52.0030   28.5600 C.3       8 GLP5        0.0000 
     51 CA         14.4930   45.3822   28.2530 C.3       4 GLC5        0.0000 
     52 CA         12.5170   45.4840   28.3500 C.3      12 GLL5        0.0000 
     53 CA          9.5793   47.0840   27.8395 C.3       4 GLC5        0.0000 
     54 CA         11.0820   46.0040   28.2750 C.3      12 GLL5        0.0000 
     55 CA          7.9640   47.5070   27.0310 C.3       8 GLP5        0.0000 
     56 CA          9.9913   50.0217   24.5175 C.3       4 GLC5        0.0000 
     57 CA         11.7300   49.9010   25.4490 C.3      12 GLL5        0.0000 
     58 CA          8.3910   49.5030   23.8200 C.3       8 GLP5        0.0000 
     59 CA         13.6664   50.2511   26.2972 C.3       4 GLC5        0.0000 
@<TRIPOS>BOND
@<TRIPOS>SUBSTRUCTURE
     1 ALC1       22 GROUP        1 X    ALC  0     ROOT ALC X 1
     2 SEC2        6 GROUP        1 X    SEC  0     **** SEC X 2
     3 LYC4        1 GROUP        1 X    LYC  0     **** LYC X 4
     4 GLC5       19 GROUP        1 X    GLC  0     **** GLC X 6
     5 ALP1       24 GROUP        1 Y    ALP  0     ROOT ALP Y 8
     6 SEP2        8 GROUP        1 Y    SEP  0     **** SEP Y 9
     7 LYP4        3 GROUP        1 Y    LYP  0     **** LYP Y 11
     8 GLP5       21 GROUP        1 Y    GLP  0     **** GLP Y 13
     9 ALL1       23 GROUP        1 Z    ALL  0     ROOT ALL Z 15
    10 SEL2        7 GROUP        1 Z    SEL  0     **** SEL Z 16
    11 LYL4        2 GROUP        1 Z    LYL  0     **** LYL Z 18
    12 GLL5       20 GROUP        1 Z    GLL  0     **** GLL Z 20
@<TRIPOS>SET

