#    Name: 3e7x_AMP_1_ligand
#    Modification time : Tue Mar 25 01:05:23 2014

@<TRIPOS>MOLECULE
3e7x_AMP_1_ligand
   35    37     1     0     0
SMALL
NO_CHARGES


@<TRIPOS>ATOM
      1 P          14.6620   42.8230   26.3950 P.3       1 AMP512      0.0000 
      2 O1P        14.5920   43.3600   25.0180 O.co2     1 AMP512      0.0000 
      3 O2P        16.1730   42.5010   26.8480 O.co2     1 AMP512      0.0000 
      4 O3P        13.8380   41.4460   26.5420 O.co2     1 AMP512      0.0000 
      5 O5'        14.0870   43.8420   27.5010 O.3       1 AMP512      0.0000 
      6 C5'        12.7410   44.3090   27.3980 C.3       1 AMP512      0.0000 
      7 C4'        12.5170   45.4840   28.3500 C.3       1 AMP512      0.0000 
      8 O4'        13.3320   46.6210   28.0180 O.3       1 AMP512      0.0000 
      9 C3'        11.0820   46.0040   28.2750 C.3       1 AMP512      0.0000 
     10 O3'        10.2320   45.1430   29.0380 O.3       1 AMP512      0.0000 
     11 C2'        11.3070   47.3180   29.0210 C.3       1 AMP512      0.0000 
     12 O2'        11.6120   47.0630   30.3950 O.3       1 AMP512      0.0000 
     13 C1'        12.5650   47.8090   28.2980 C.3       1 AMP512      0.0000 
     14 N9         12.2050   48.4350   27.0040 N.pl3     1 AMP512      0.0000 
     15 C8         12.1700   47.8280   25.8190 C.2       1 AMP512      0.0000 
     16 N7         11.8820   48.7140   24.8690 N.2       1 AMP512      0.0000 
     17 C5         11.7300   49.9010   25.4490 C.ar      1 AMP512      0.0000 
     18 C6         11.4530   51.1800   24.9810 C.ar      1 AMP512      0.0000 
     19 N6         11.3160   51.4110   23.6790 N.pl3     1 AMP512      0.0000 
     20 N1         11.3700   52.1900   25.8590 N.ar      1 AMP512      0.0000 
     21 C2         11.5510   51.9800   27.1520 C.ar      1 AMP512      0.0000 
     22 N3         11.8250   50.7770   27.6300 N.ar      1 AMP512      0.0000 
     23 C4         11.9240   49.7220   26.8120 C.ar      1 AMP512      0.0000 
     24 H          12.0178   43.5256   27.6589 H         1 AMP512      0.0000 
     25 H          12.5067   44.6531   26.3823 H         1 AMP512      0.0000 
     26 H          12.6971   45.1702   29.3614 H         1 AMP512      0.0000 
     27 H          10.8295   46.1854   27.3124 H         1 AMP512      0.0000 
     28 H          10.5316   47.9614   28.8338 H         1 AMP512      0.0000 
     29 H          13.0873   48.4710   28.9193 H         1 AMP512      0.0000 
     30 H          12.3322   46.8721   25.6699 H         1 AMP512      0.0000 
     31 H          11.3967   50.6144   23.0799 H         1 AMP512      0.0000 
     32 H          11.1446   52.3605   23.4162 H         1 AMP512      0.0000 
     33 H          11.4745   52.7985   27.8250 H         1 AMP512      0.0000 
     34 H           9.3152   45.5295   28.9377 H         1 AMP512      0.0000 
     35 H          10.7294   47.0861   30.8645 H         1 AMP512      0.0000 
@<TRIPOS>BOND
     1    2    1 ar   
     2    3    1 ar   
     3    4    1 ar   
     4    5    1 1    
     5    6    5 1    
     6    7    6 1    
     7   24    6 1    
     8   25    6 1    
     9    8    7 1    
    10    9    7 1    
    11   26    7 1    
    12   13    8 1    
    13   10    9 1    
    14   11    9 1    
    15   27    9 1    
    16   34   10 1    
    17   12   11 1    
    18   13   11 1    
    19   28   11 1    
    20   35   12 1    
    21   14   13 1    
    22   29   13 1    
    23   15   14 1    
    24   23   14 1    
    25   16   15 2    
    26   30   15 1    
    27   17   16 1    
    28   18   17 ar   
    29   23   17 ar   
    30   19   18 1    
    31   20   18 ar   
    32   31   19 1    
    33   32   19 1    
    34   21   20 ar   
    35   22   21 ar   
    36   33   21 1    
    37   23   22 ar   
@<TRIPOS>SUBSTRUCTURE
     1 AMP512      1 GROUP   
@<TRIPOS>SET

