#    Name: 2bn4_FMN_5_INTS_M
#    Modification time : Mon Mar 24 21:14:36 2014

@<TRIPOS>MOLECULE
2bn4_FMN_5_INTS_M
   70     0     9     0     0
SMALL
NO_CHARGES


@<TRIPOS>ATOM
      1 N          87.8190   25.8275  258.1890 N.am      2 SEC2        0.0000 
      2 N          86.3380   26.1530  258.6790 N.am      8 SEL2        0.0000 
      3 N          89.3000   25.5020  257.6990 N.am      5 SEP2        0.0000 
      4 N          87.9295   24.7800  257.8425 N.am      2 SEC2        0.0000 
      5 N          86.5590   24.0580  257.9860 N.am      8 SEL2        0.0000 
      6 N          86.1610   23.0445  257.1895 N.am      2 SEC2        0.0000 
      7 N          85.7630   22.0310  256.3930 N.am      5 SEP2        0.0000 
      8 O          84.3920   23.2890  259.0210 O.2       1 ALC1        0.0000 
      9 O          84.8330   24.5650  259.3990 O.2       7 ALL1        0.0000 
     10 O          83.9510   22.0130  258.6430 O.2       4 ALP1        0.0000 
     11 CA         82.6290   32.1295  260.6350 C.3       3 GLC5        0.0000 
     12 CA         83.1870   32.2540  262.6110 C.3       9 GLL5        0.0000 
     13 CA         82.0710   32.0050  258.6590 C.3       6 GLP5        0.0000 
     14 CA         83.4145   34.2650  263.3295 C.3       3 GLC5        0.0000 
     15 CA         83.6420   36.2760  264.0480 C.3       6 GLP5        0.0000 
     16 CA         84.3600   32.9895  259.6090 C.3       3 GLC5        0.0000 
     17 CA         85.6430   33.1330  261.0090 C.3       9 GLL5        0.0000 
     18 CA         83.0770   32.8460  258.2090 C.3       6 GLP5        0.0000 
     19 CA         86.7175   33.5815  262.9135 C.3       3 GLC5        0.0000 
     20 CA         87.7920   34.0300  264.8180 C.3       6 GLP5        0.0000 
     21 CA         85.8505   34.7250  261.5800 C.3       3 GLC5        0.0000 
     22 CA         86.0580   36.3170  262.1510 C.3       6 GLP5        0.0000 
     23 CA         88.8370   27.7560  259.0765 C.3       3 GLC5        0.0000 
     24 CA         87.3660   28.8290  258.5890 C.3       9 GLL5        0.0000 
     25 CA         90.3080   26.6830  259.5640 C.3       6 GLP5        0.0000 
     26 CA         87.7665   28.3830  260.4515 C.3       3 GLC5        0.0000 
     27 CA         88.1670   27.9370  262.3140 C.3       6 GLP5        0.0000 
     28 N          84.9950   28.2005  255.4910 N.am      2 SEC2        0.0000 
     29 N          86.2430   28.8630  256.3900 N.am      8 SEL2        0.0000 
     30 N          83.7470   27.5380  254.5920 N.am      5 SEP2        0.0000 
     31 O          84.9895   28.7525  256.7950 O.2       1 ALC1        0.0000 
     32 O          86.2430   28.8630  256.3900 O.2       7 ALL1        0.0000 
     33 O          83.7360   28.6420  257.2000 O.2       4 ALP1        0.0000 
     34 CA         90.5970   29.3925  256.7350 C.3       3 GLC5        0.0000 
     35 CA         88.4310   29.9240  256.5370 C.3       9 GLL5        0.0000 
     36 CA         92.7630   28.8610  256.9330 C.3       6 GLP5        0.0000 
     37 CA         88.4835   29.4095  253.3645 C.3       3 GLC5        0.0000 
     38 CA         88.2470   30.5310  255.1220 C.3       9 GLL5        0.0000 
     39 CA         88.7200   28.2880  251.6070 C.3       6 GLP5        0.0000 
     40 CA         88.4630   32.8425  253.5420 C.3       3 GLC5        0.0000 
     41 CA         87.3680   31.8220  255.0960 C.3       9 GLL5        0.0000 
     42 CA         89.5580   33.8630  251.9880 C.3       6 GLP5        0.0000 
     43 CA         85.5045   32.2240  256.0320 C.3       3 GLC5        0.0000 
     44 CA         83.6410   32.6260  256.9680 C.3       6 GLP5        0.0000 
     45 N          85.6830   31.6535  253.3355 N.am      2 SEC2        0.0000 
     46 N          87.1940   32.3440  253.7470 N.am      8 SEL2        0.0000 
     47 N          84.1720   30.9630  252.9240 N.am      5 SEP2        0.0000 
     48 N          87.8325   35.3015  252.3370 N.am      2 SEC2        0.0000 
     49 N          87.2850   34.7530  253.5110 N.am      8 SEL2        0.0000 
     50 N          88.3800   35.8500  251.1630 N.am      5 SEP2        0.0000 
     51 N          88.5485   34.6910  253.3400 N.am      2 SEC2        0.0000 
     52 N          89.8120   34.6290  253.1690 N.am      5 SEP2        0.0000 
     53 N          85.5565   34.3945  251.4020 N.am      2 SEC2        0.0000 
     54 N          86.0860   33.3280  251.9080 N.am      8 SEL2        0.0000 
     55 N          85.0270   35.4610  250.8960 N.am      5 SEP2        0.0000 
     56 N          86.8735   33.4285  250.7325 N.am      2 SEC2        0.0000 
     57 N          87.6610   33.5290  249.5570 N.am      5 SEP2        0.0000 
     58 N          84.1200   34.4145  253.4520 N.am      2 SEC2        0.0000 
     59 N          85.1490   33.6430  254.1310 N.am      8 SEL2        0.0000 
     60 N          83.0910   35.1860  252.7730 N.am      5 SEP2        0.0000 
     61 N          84.6605   32.3030  253.5275 N.am      2 SEC2        0.0000 
     62 N          84.8970   33.5435  255.3270 N.am      2 SEC2        0.0000 
     63 N          84.6450   33.4440  256.5230 N.am      5 SEP2        0.0000 
     64 CA         83.0670   29.0410  259.7749 C.3       3 GLC5        0.0000 
     65 CA         84.3170   28.9760  260.9250 C.3       9 GLL5        0.0000 
     66 CA         81.4180   28.6370  258.8020 C.3       6 GLP5        0.0000 
     67 CA         88.0978   27.7088  256.3715 C.3       3 GLC5        0.0000 
     68 CA         88.3620   25.8540  255.5090 C.3       6 GLP5        0.0000 
     69 CA         86.4323   30.5153  254.0135 C.3       3 GLC5        0.0000 
     70 CA         85.0570   29.8540  252.9180 C.3       6 GLP5        0.0000 
@<TRIPOS>BOND
@<TRIPOS>SUBSTRUCTURE
     1 ALC1        8 GROUP        1 X    ALC  0     ROOT ALC X 1
     2 SEC2        1 GROUP        1 X    SEC  0     **** SEC X 2
     3 GLC5       11 GROUP        1 X    GLC  0     **** GLC X 6
     4 ALP1       10 GROUP        1 Y    ALP  0     ROOT ALP Y 8
     5 SEP2        3 GROUP        1 Y    SEP  0     **** SEP Y 9
     6 GLP5       13 GROUP        1 Y    GLP  0     **** GLP Y 13
     7 ALL1        9 GROUP        1 Z    ALL  0     ROOT ALL Z 15
     8 SEL2        2 GROUP        1 Z    SEL  0     **** SEL Z 16
     9 GLL5       12 GROUP        1 Z    GLL  0     **** GLL Z 20
@<TRIPOS>SET

