#    Name: 2bn4_FMN_5_ligand
#    Modification time : Mon Mar 24 21:14:36 2014

@<TRIPOS>MOLECULE
2bn4_FMN_5_ligand
   50    52     1     0     0
SMALL
NO_CHARGES


@<TRIPOS>ATOM
      1 N1         86.3380   26.1530  258.6790 N.2       1 FMN751      0.0000 
      2 C2         85.9450   24.8700  258.6460 C.2       1 FMN751      0.0000 
      3 O2         86.5590   24.0580  257.9860 O.2       1 FMN751      0.0000 
      4 N3         84.8330   24.5650  259.3990 N.am      1 FMN751      0.0000 
      5 C4         84.0810   25.4520  260.1880 C.2       1 FMN751      0.0000 
      6 O4         83.1030   25.0210  260.8100 O.2       1 FMN751      0.0000 
      7 C4A        84.5420   26.8060  260.1910 C.2       1 FMN751      0.0000 
      8 N5         83.8150   27.6910  260.9660 N.2       1 FMN751      0.0000 
      9 C5A        84.3170   28.9760  260.9250 C.ar      1 FMN751      0.0000 
     10 C6         83.6050   29.9420  261.7080 C.ar      1 FMN751      0.0000 
     11 C7         83.9930   31.2770  261.7630 C.ar      1 FMN751      0.0000 
     12 C7M        83.1870   32.2540  262.6110 C.3       1 FMN751      0.0000 
     13 C8         85.1510   31.7020  261.0090 C.ar      1 FMN751      0.0000 
     14 C8M        85.6430   33.1330  261.0090 C.3       1 FMN751      0.0000 
     15 C9         85.8410   30.8010  260.2600 C.ar      1 FMN751      0.0000 
     16 C9A        85.4710   29.4310  260.1790 C.ar      1 FMN751      0.0000 
     17 N10        86.1750   28.4470  259.3920 N.pl3     1 FMN751      0.0000 
     18 C10        85.6940   27.0870  259.4000 C.2       1 FMN751      0.0000 
     19 C1'        87.3660   28.8290  258.5890 C.3       1 FMN751      0.0000 
     20 C2'        87.1060   29.5770  257.2730 C.3       1 FMN751      0.0000 
     21 O2'        86.2430   28.8630  256.3900 O.3       1 FMN751      0.0000 
     22 C3'        88.4310   29.9240  256.5370 C.3       1 FMN751      0.0000 
     23 O3'        89.2480   30.8530  257.2450 O.3       1 FMN751      0.0000 
     24 C4'        88.2470   30.5310  255.1220 C.3       1 FMN751      0.0000 
     25 O4'        89.5220   30.8200  254.5940 O.3       1 FMN751      0.0000 
     26 C5'        87.3680   31.8220  255.0960 C.3       1 FMN751      0.0000 
     27 O5'        87.1940   32.3440  253.7470 O.3       1 FMN751      0.0000 
     28 P          86.3550   33.6430  253.3030 P.3       1 FMN751      0.0000 
     29 O1P        87.2850   34.7530  253.5110 O.co2     1 FMN751      0.0000 
     30 O2P        86.0860   33.3280  251.9080 O.co2     1 FMN751      0.0000 
     31 O3P        85.1490   33.6430  254.1310 O.co2     1 FMN751      0.0000 
     32 H          84.4960   23.5424  259.3892 H         1 FMN751      0.0000 
     33 H          82.7791   29.6193  262.2428 H         1 FMN751      0.0000 
     34 H          86.6806   31.1022  259.7126 H         1 FMN751      0.0000 
     35 H          87.9653   27.9149  258.3477 H         1 FMN751      0.0000 
     36 H          88.0506   29.4608  259.2096 H         1 FMN751      0.0000 
     37 H          86.6480   30.5505  257.5383 H         1 FMN751      0.0000 
     38 H          88.9923   28.9845  256.3917 H         1 FMN751      0.0000 
     39 H          87.7416   29.7821  254.5099 H         1 FMN751      0.0000 
     40 H          87.8552   32.5593  255.7506 H         1 FMN751      0.0000 
     41 H          86.4014   31.5655  255.5536 H         1 FMN751      0.0000 
     42 H          83.1703   31.9840  263.5737 H         1 FMN751      0.0000 
     43 H          83.5653   33.1789  262.5725 H         1 FMN751      0.0000 
     44 H          82.2363   32.3133  262.3066 H         1 FMN751      0.0000 
     45 H          85.8863   33.4421  261.9284 H         1 FMN751      0.0000 
     46 H          86.4554   33.2464  260.4371 H         1 FMN751      0.0000 
     47 H          84.9495   33.7642  260.6615 H         1 FMN751      0.0000 
     48 H          85.3546   28.8524  256.8490 H         1 FMN751      0.0000 
     49 H          89.6080   31.4680  256.5434 H         1 FMN751      0.0000 
     50 H          89.8663   29.9444  254.2552 H         1 FMN751      0.0000 
@<TRIPOS>BOND
     1    2    1 1    
     2   18    1 2    
     3    3    2 2    
     4    4    2 am   
     5    5    4 am   
     6   32    4 1    
     7    6    5 2    
     8    7    5 1    
     9    8    7 2    
    10   18    7 1    
    11    9    8 1    
    12   10    9 ar   
    13   16    9 ar   
    14   11   10 ar   
    15   33   10 1    
    16   12   11 1    
    17   13   11 ar   
    18   42   12 1    
    19   43   12 1    
    20   44   12 1    
    21   14   13 1    
    22   15   13 ar   
    23   45   14 1    
    24   46   14 1    
    25   47   14 1    
    26   16   15 ar   
    27   34   15 1    
    28   17   16 1    
    29   18   17 1    
    30   19   17 1    
    31   20   19 1    
    32   35   19 1    
    33   36   19 1    
    34   21   20 1    
    35   22   20 1    
    36   37   20 1    
    37   48   21 1    
    38   23   22 1    
    39   24   22 1    
    40   38   22 1    
    41   49   23 1    
    42   25   24 1    
    43   26   24 1    
    44   39   24 1    
    45   50   25 1    
    46   27   26 1    
    47   40   26 1    
    48   41   26 1    
    49   28   27 1    
    50   29   28 ar   
    51   30   28 ar   
    52   31   28 ar   
@<TRIPOS>SUBSTRUCTURE
     1 FMN751      1 GROUP   
@<TRIPOS>SET

