#    Name: 1dm2_HMD_1_INTS_M
#    Modification time : Mon Mar 24 22:06:01 2014

@<TRIPOS>MOLECULE
1dm2_HMD_1_INTS_M
   49     0     9     0     0
SMALL
NO_CHARGES


@<TRIPOS>ATOM
      1 CA         22.0550   26.8965   26.2135 C.3       3 GLC5        0.0000 
      2 CA         23.1200   26.8710   28.1360 C.3       9 GLL5        0.0000 
      3 CA         20.9900   26.9220   24.2910 C.3       6 GLP5        0.0000 
      4 N          24.0890   32.1155   30.5070 N.am      2 SEC2        0.0000 
      5 N          25.1840   31.3200   30.2860 N.am      8 SEL2        0.0000 
      6 N          22.9940   32.9110   30.7280 N.am      5 SEP2        0.0000 
      7 O          23.2985   29.8070   29.5285 O.2       1 ALC1        0.0000 
      8 O          24.5420   29.1570   28.7920 O.2       7 ALL1        0.0000 
      9 O          22.0550   30.4570   30.2650 O.2       4 ALP1        0.0000 
     10 O          26.5920   33.2580   29.4695 O.2       1 ALC1        0.0000 
     11 O          26.7440   32.0690   28.7860 O.2       7 ALL1        0.0000 
     12 O          26.4400   34.4470   30.1530 O.2       4 ALP1        0.0000 
     13 O          27.8895   26.4055   22.0575 O.2       1 ALC1        0.0000 
     14 O          28.5480   26.2710   23.6020 O.2       7 ALL1        0.0000 
     15 O          27.2310   26.5400   20.5130 O.2       4 ALP1        0.0000 
     16 O          29.4820   26.4580   22.4305 O.2       1 ALC1        0.0000 
     17 O          30.4160   26.6450   21.2590 O.2       4 ALP1        0.0000 
     18 CA         25.4270   27.7580   29.9820 C.3       3 GLC5        0.0000 
     19 CA         24.5650   28.0270   28.0820 C.3       9 GLL5        0.0000 
     20 CA         26.2890   27.4890   31.8820 C.3       6 GLP5        0.0000 
     21 CA         24.4020   28.8365   26.2190 C.3       3 GLC5        0.0000 
     22 CA         25.7290   27.9080   27.3810 C.3       9 GLL5        0.0000 
     23 CA         23.0750   29.7650   25.0570 C.3       6 GLP5        0.0000 
     24 CA         25.9905   28.6610   30.2315 C.3       3 GLC5        0.0000 
     25 CA         25.6920   29.8330   28.5810 C.3       9 GLL5        0.0000 
     26 CA         27.0275   30.4370   30.0370 C.3       3 GLC5        0.0000 
     27 CA         28.3630   31.0410   31.4930 C.3       6 GLP5        0.0000 
     28 CA         27.4200   33.6165   27.0140 C.3       3 GLC5        0.0000 
     29 CA         27.6150   31.9880   27.6010 C.3       9 GLL5        0.0000 
     30 CA         27.2250   35.2450   26.4270 C.3       6 GLP5        0.0000 
     31 CA         28.8145   32.9935   28.3890 C.3       3 GLC5        0.0000 
     32 CA         30.0140   33.9990   29.1770 C.3       6 GLP5        0.0000 
     33 CA         26.0370   31.8590   26.6815 C.3       3 GLC5        0.0000 
     34 CA         24.4590   31.7300   25.7620 C.3       6 GLP5        0.0000 
     35 CA         29.0950   29.0330   28.6970 C.3       3 GLC5        0.0000 
     36 CA         28.5210   30.7700   27.6000 C.3       9 GLL5        0.0000 
     37 CA         29.6690   27.2960   29.7940 C.3       6 GLP5        0.0000 
     38 CA         30.1730   31.7000   27.8670 C.3       3 GLC5        0.0000 
     39 CA         31.8250   32.6300   28.1340 C.3       6 GLP5        0.0000 
     40 CA         26.1485   30.6240   26.4095 C.3       3 GLC5        0.0000 
     41 CA         27.8380   29.5180   27.0570 C.3       9 GLL5        0.0000 
     42 CA         29.5835   27.4690   26.9380 C.3       3 GLC5        0.0000 
     43 CA         28.4320   28.8050   26.0100 C.3       9 GLL5        0.0000 
     44 CA         30.7350   26.1330   27.8660 C.3       6 GLP5        0.0000 
     45 CA         23.4588   28.6070   26.5830 C.3       3 GLC5        0.0000 
     46 CA         28.4165   28.2955   28.5793 C.3       3 GLC5        0.0000 
     47 CA         26.4900   29.0720   27.6720 C.3       9 GLL5        0.0000 
     48 CA         25.2750   30.5913   26.9443 C.3       3 GLC5        0.0000 
     49 CA         28.2155   31.2100   29.5467 C.3       3 GLC5        0.0000 
@<TRIPOS>BOND
@<TRIPOS>SUBSTRUCTURE
     1 ALC1        7 GROUP        1 X    ALC  0     ROOT ALC X 1
     2 SEC2        4 GROUP        1 X    SEC  0     **** SEC X 2
     3 GLC5        1 GROUP        1 X    GLC  0     **** GLC X 6
     4 ALP1        9 GROUP        1 Y    ALP  0     ROOT ALP Y 8
     5 SEP2        6 GROUP        1 Y    SEP  0     **** SEP Y 9
     6 GLP5        3 GROUP        1 Y    GLP  0     **** GLP Y 13
     7 ALL1        8 GROUP        1 Z    ALL  0     ROOT ALL Z 15
     8 SEL2        5 GROUP        1 Z    SEL  0     **** SEL Z 16
     9 GLL5        2 GROUP        1 Z    GLL  0     **** GLL Z 20
@<TRIPOS>SET

