#    Name: 1dm2_HMD_1_ligand
#    Modification time : Mon Mar 24 22:06:01 2014

@<TRIPOS>MOLECULE
1dm2_HMD_1_ligand
   29    31     1     0     0
SMALL
NO_CHARGES


@<TRIPOS>ATOM
      1 BR1        23.1200   26.8710   28.1360 Br        1 HMD400      0.0000 
      2 O1         25.1840   31.3200   30.2860 O.2       1 HMD400      0.0000 
      3 O2         30.5370   29.9590   25.4670 O.2       1 HMD400      0.0000 
      4 N1         24.5420   29.1570   28.7920 N.pl3     1 HMD400      0.0000 
      5 N2         26.7440   32.0690   28.7860 N.am      1 HMD400      0.0000 
      6 N3         29.8580   28.1070   24.2840 N.2       1 HMD400      0.0000 
      7 N4         27.9500   27.6500   25.3760 N.pl3     1 HMD400      0.0000 
      8 N5         28.5480   26.2710   23.6020 N.pl3     1 HMD400      0.0000 
      9 C1         24.5650   28.0270   28.0820 C.2       1 HMD400      0.0000 
     10 C2         25.7290   27.9080   27.3810 C.2       1 HMD400      0.0000 
     11 C3         26.4900   29.0720   27.6720 C.2       1 HMD400      0.0000 
     12 C4         25.6920   29.8330   28.5810 C.2       1 HMD400      0.0000 
     13 C5         25.8600   31.1210   29.2680 C.2       1 HMD400      0.0000 
     14 C6         27.6150   31.9880   27.6010 C.3       1 HMD400      0.0000 
     15 C7         28.5210   30.7700   27.6000 C.3       1 HMD400      0.0000 
     16 C8         27.8380   29.5180   27.0570 C.2       1 HMD400      0.0000 
     17 C9         28.4320   28.8050   26.0100 C.2       1 HMD400      0.0000 
     18 C10        29.7250   29.0460   25.2510 C.2       1 HMD400      0.0000 
     19 C11        28.7890   27.3080   24.3810 C.2       1 HMD400      0.0000 
     20 H          23.8189   29.4537   29.3701 H         1 HMD400      0.0000 
     21 H          26.8302   32.9987   29.3247 H         1 HMD400      0.0000 
     22 H          27.1425   27.1974   25.6362 H         1 HMD400      0.0000 
     23 H          28.0628   25.5060   24.0254 H         1 HMD400      0.0000 
     24 H          28.8725   26.3443   22.6590 H         1 HMD400      0.0000 
     25 H          26.0027   27.2153   26.8151 H         1 HMD400      0.0000 
     26 H          28.2489   32.8932   27.5320 H         1 HMD400      0.0000 
     27 H          27.0023   31.9666   26.6790 H         1 HMD400      0.0000 
     28 H          28.8634   30.5725   28.6261 H         1 HMD400      0.0000 
     29 H          29.4121   30.9820   26.9917 H         1 HMD400      0.0000 
@<TRIPOS>BOND
     1    9    1 1    
     2   13    2 2    
     3   18    3 2    
     4    9    4 1    
     5   12    4 1    
     6   20    4 1    
     7   13    5 am   
     8   14    5 1    
     9   21    5 1    
    10   18    6 1    
    11   19    6 2    
    12   17    7 1    
    13   19    7 1    
    14   22    7 1    
    15   19    8 1    
    16   23    8 1    
    17   24    8 1    
    18   10    9 2    
    19   11   10 1    
    20   25   10 1    
    21   12   11 2    
    22   16   11 1    
    23   13   12 1    
    24   15   14 1    
    25   26   14 1    
    26   27   14 1    
    27   16   15 1    
    28   28   15 1    
    29   29   15 1    
    30   17   16 2    
    31   18   17 1    
@<TRIPOS>SUBSTRUCTURE
     1 HMD400      1 GROUP   
@<TRIPOS>SET

