#    Name: 3vs1_VSA_1_INTS_M
#    Modification time : Tue Mar 25 01:24:13 2014

@<TRIPOS>MOLECULE
3vs1_VSA_1_INTS_M
   74     0     9     0     0
SMALL
NO_CHARGES


@<TRIPOS>ATOM
      1 CA          7.1220   -7.0770   12.8040 C.3       3 GLC5        0.0000 
      2 CA          5.2350   -8.1040   12.6860 C.3       9 GLL5        0.0000 
      3 CA          9.0090   -6.0500   12.9220 C.3       6 GLP5        0.0000 
      4 CA          5.3790   -6.6905   14.1710 C.3       3 GLC5        0.0000 
      5 CA          5.5230   -5.2770   15.6560 C.3       6 GLP5        0.0000 
      6 CA          4.1490   -5.6975   14.1430 C.3       3 GLC5        0.0000 
      7 CA          2.7750   -6.1180   12.6300 C.3       9 GLL5        0.0000 
      8 CA          4.4595   -5.1310    9.7290 C.3       3 GLC5        0.0000 
      9 CA          4.3810   -4.9290   11.7710 C.3       9 GLL5        0.0000 
     10 CA          4.5380   -5.3330    7.6870 C.3       6 GLP5        0.0000 
     11 CA          4.9520   -5.1030   13.7135 C.3       3 GLC5        0.0000 
     12 CA          5.1380   -4.2410    9.4005 C.3       3 GLC5        0.0000 
     13 CA          5.7380   -3.1490   11.1140 C.3       9 GLL5        0.0000 
     14 CA          3.8435   -2.1610   10.4575 C.3       3 GLC5        0.0000 
     15 CA          1.9490   -1.1730    9.8010 C.3       6 GLP5        0.0000 
     16 CA          5.6020   -0.9580   10.7745 C.3       3 GLC5        0.0000 
     17 CA          5.4660    1.2330   10.4350 C.3       6 GLP5        0.0000 
     18 CA          6.8320   -1.8590   11.9145 C.3       3 GLC5        0.0000 
     19 CA          7.9260   -0.5690   12.7150 C.3       6 GLP5        0.0000 
     20 N           5.8535   -1.2385   11.7625 N.am      2 SEC2        0.0000 
     21 N           4.9010   -2.2640   11.6730 N.am      8 SEL2        0.0000 
     22 N           6.8060   -0.2130   11.8520 N.am      5 SEP2        0.0000 
     23 CA          5.6005   -1.9890   13.1295 C.3       3 GLC5        0.0000 
     24 CA          3.7790   -2.6760   12.3020 C.3       9 GLL5        0.0000 
     25 CA          7.4220   -1.3020   13.9570 C.3       6 GLP5        0.0000 
     26 O           3.2055   -0.2715   12.5935 O.2       1 ALC1        0.0000 
     27 O           2.9480   -1.7640   12.8600 O.2       7 ALL1        0.0000 
     28 O           3.4630    1.2210   12.3270 O.2       4 ALP1        0.0000 
     29 CA          1.1315   -2.3300   11.5010 C.3       3 GLC5        0.0000 
     30 CA          0.3140   -3.4870   13.2010 C.3       9 GLL5        0.0000 
     31 O          -3.4160   -3.8115   18.2440 O.2       1 ALC1        0.0000 
     32 O          -4.1170   -3.0830   16.8390 O.2       7 ALL1        0.0000 
     33 O          -2.7150   -4.5400   19.6490 O.2       4 ALP1        0.0000 
     34 CA         -8.8805    0.6055   17.9435 C.3       3 GLC5        0.0000 
     35 CA         -7.5590   -0.8560   17.6580 C.3       9 GLL5        0.0000 
     36 CA        -10.2020    2.0670   18.2290 C.3       6 GLP5        0.0000 
     37 CA         -6.7445   -5.1605   17.3425 C.3       3 GLC5        0.0000 
     38 CA         -6.4600   -2.9610   17.2960 C.3       9 GLL5        0.0000 
     39 CA         -7.0290   -7.3600   17.3890 C.3       6 GLP5        0.0000 
     40 CA          4.0168   -7.8435    9.4000 C.3       3 GLC5        0.0000 
     41 CA          3.4410   -8.3760   11.0520 C.3       9 GLL5        0.0000 
     42 CA          4.0390   -7.7830    7.5240 C.3       6 GLP5        0.0000 
     43 CA          2.5993  -10.2665   10.0232 C.3       3 GLC5        0.0000 
     44 CA          1.6840  -11.5010    8.6130 C.3       6 GLP5        0.0000 
     45 CA          2.4147   -6.7990   10.5245 C.3       3 GLC5        0.0000 
     46 CA          0.8350   -5.6940    9.7730 C.3       6 GLP5        0.0000 
     47 CA          6.2555   -9.1530   14.3317 C.3       3 GLC5        0.0000 
     48 CA          7.4820   -9.4690   15.9710 C.3       6 GLP5        0.0000 
     49 CA          2.7927   -2.2637   11.0663 C.3       3 GLC5        0.0000 
     50 CA          3.4940   -4.0330   12.3610 C.3       9 GLL5        0.0000 
     51 CA          3.9038   -3.2738   14.0613 C.3       3 GLC5        0.0000 
     52 CA          4.1710   -3.1930   15.7910 C.3       6 GLP5        0.0000 
     53 CA          0.8040   -4.8273   11.5995 C.3       3 GLC5        0.0000 
     54 CA          1.2320   -4.4340   13.6510 C.3       9 GLL5        0.0000 
     55 CA         -0.9330   -1.4207   13.6535 C.3       3 GLC5        0.0000 
     56 CA         -1.6010    0.5190   13.7380 C.3       6 GLP5        0.0000 
     57 CA         -2.5453   -4.6755   13.9710 C.3       3 GLC5        0.0000 
     58 CA         -0.8440   -3.2340   13.9370 C.3       9 GLL5        0.0000 
     59 CA         -4.1270   -5.7660   13.4160 C.3       6 GLP5        0.0000 
     60 CA          2.7906   -4.0389   14.9169 C.3       3 GLC5        0.0000 
     61 CA          0.9680   -5.1530   14.8030 C.3       9 GLL5        0.0000 
     62 CA          1.2835   -4.8000   16.8875 C.3       3 GLC5        0.0000 
     63 CA          2.1720   -4.5740   18.6070 C.3       6 GLP5        0.0000 
     64 CA         -3.8822   -1.5780   18.6333 C.3       3 GLC5        0.0000 
     65 CA         -5.1960   -0.9230   17.1950 C.3       9 GLL5        0.0000 
     66 CA         -2.5400   -1.5420   20.1220 C.3       6 GLP5        0.0000 
     67 CA         -4.6915    0.7910   17.3030 C.3       3 GLC5        0.0000 
     68 CA         -3.6100    2.1430   17.2730 C.3       6 GLP5        0.0000 
     69 CA         -7.0483    0.2077   19.5207 C.3       3 GLC5        0.0000 
     70 CA         -6.3500   -0.1990   17.4710 C.3       9 GLL5        0.0000 
     71 CA         -7.1420    0.9430   21.4770 C.3       6 GLP5        0.0000 
     72 CA         -5.5961   -0.5408   15.2774 C.3       3 GLC5        0.0000 
     73 CA         -5.4050   -0.1750   13.2470 C.3       6 GLP5        0.0000 
     74 CA          2.0579   -5.3319   11.0960 C.3       3 GLC5        0.0000 
@<TRIPOS>BOND
@<TRIPOS>SUBSTRUCTURE
     1 ALC1       26 GROUP        1 X    ALC  0     ROOT ALC X 1
     2 SEC2       20 GROUP        1 X    SEC  0     **** SEC X 2
     3 GLC5        1 GROUP        1 X    GLC  0     **** GLC X 6
     4 ALP1       28 GROUP        1 Y    ALP  0     ROOT ALP Y 8
     5 SEP2       22 GROUP        1 Y    SEP  0     **** SEP Y 9
     6 GLP5        3 GROUP        1 Y    GLP  0     **** GLP Y 13
     7 ALL1       27 GROUP        1 Z    ALL  0     ROOT ALL Z 15
     8 SEL2       21 GROUP        1 Z    SEL  0     **** SEL Z 16
     9 GLL5        2 GROUP        1 Z    GLL  0     **** GLL Z 20
@<TRIPOS>SET

