#    Name: 3vs1_VSA_1_ligand
#    Modification time : Tue Mar 25 01:24:13 2014

@<TRIPOS>MOLECULE
3vs1_VSA_1_ligand
   55    59     1     0     0
SMALL
NO_CHARGES


@<TRIPOS>ATOM
      1 CAP         3.4410   -8.3760   11.0520 C.3       1 VSA602      0.0000 
      2 CAN         3.5880   -9.6880   11.8150 C.3       1 VSA602      0.0000 
      3 CAO         4.8230   -9.5700   12.6990 C.3       1 VSA602      0.0000 
      4 CAQ         5.2350   -8.1040   12.6860 C.3       1 VSA602      0.0000 
      5 CBD         4.5480   -7.4320   11.5000 C.3       1 VSA602      0.0000 
      6 NBE         3.9240   -6.1730   11.9590 N.pl3     1 VSA602      0.0000 
      7 CAM         2.7750   -6.1180   12.6300 C.2       1 VSA602      0.0000 
      8 C4          4.3810   -4.9290   11.7710 C.ar      1 VSA602      0.0000 
      9 N3          5.4930   -4.4650   11.1570 N.ar      1 VSA602      0.0000 
     10 C2          5.7380   -3.1490   11.1140 C.ar      1 VSA602      0.0000 
     11 N1          4.9010   -2.2640   11.6730 N.ar      1 VSA602      0.0000 
     12 C6          3.7790   -2.6760   12.3020 C.ar      1 VSA602      0.0000 
     13 NAA         2.9480   -1.7640   12.8600 N.pl3     1 VSA602      0.0000 
     14 C5          3.4940   -4.0330   12.3610 C.ar      1 VSA602      0.0000 
     15 CBA         2.4730   -4.7990   12.9140 C.2       1 VSA602      0.0000 
     16 CAY         1.2320   -4.4340   13.6510 C.ar      1 VSA602      0.0000 
     17 CAK         0.3140   -3.4870   13.2010 C.ar      1 VSA602      0.0000 
     18 CAI        -0.8440   -3.2340   13.9370 C.ar      1 VSA602      0.0000 
     19 CAJ         0.9680   -5.1530   14.8030 C.ar      1 VSA602      0.0000 
     20 CAH        -0.1780   -4.8990   15.5330 C.ar      1 VSA602      0.0000 
     21 CAX        -1.0830   -3.9360   15.1150 C.ar      1 VSA602      0.0000 
     22 NAU        -2.2180   -3.7860   15.9260 N.am      1 VSA602      0.0000 
     23 CAV        -3.1830   -2.8680   15.9120 C.2       1 VSA602      0.0000 
     24 OAB        -3.2160   -1.9290   15.1390 O.2       1 VSA602      0.0000 
     25 NAT        -4.1170   -3.0830   16.8390 N.am      1 VSA602      0.0000 
     26 CAW        -5.2530   -2.3050   17.0940 C.ar      1 VSA602      0.0000 
     27 CAF        -5.1960   -0.9230   17.1950 C.ar      1 VSA602      0.0000 
     28 CAD        -6.3500   -0.1990   17.4710 C.ar      1 VSA602      0.0000 
     29 CAC        -7.5590   -0.8560   17.6580 C.ar      1 VSA602      0.0000 
     30 CAE        -7.6140   -2.2400   17.5690 C.ar      1 VSA602      0.0000 
     31 CAG        -6.4600   -2.9610   17.2960 C.ar      1 VSA602      0.0000 
     32 H           2.4797   -7.9369   11.2730 H         1 VSA602      0.0000 
     33 H           3.5323   -8.5636    9.9927 H         1 VSA602      0.0000 
     34 H           3.7186  -10.4974   11.1181 H         1 VSA602      0.0000 
     35 H           2.7185   -9.8473   12.4285 H         1 VSA602      0.0000 
     36 H           5.6147  -10.1713   12.2950 H         1 VSA602      0.0000 
     37 H           4.5795   -9.8679   13.7008 H         1 VSA602      0.0000 
     38 H           6.3039   -8.0295   12.5715 H         1 VSA602      0.0000 
     39 H           4.9175   -7.6307   13.6005 H         1 VSA602      0.0000 
     40 H           5.2276   -7.2813   10.7270 H         1 VSA602      0.0000 
     41 H           2.2177   -6.8663   12.8915 H         1 VSA602      0.0000 
     42 H           6.6082   -2.8012   10.6299 H         1 VSA602      0.0000 
     43 H           3.2296   -0.8075   12.7839 H         1 VSA602      0.0000 
     44 H           2.1263   -2.1278   13.2987 H         1 VSA602      0.0000 
     45 H           0.4891   -2.9752   12.3282 H         1 VSA602      0.0000 
     46 H          -1.5169   -2.5319   13.6095 H         1 VSA602      0.0000 
     47 H           1.6286   -5.8807   15.1178 H         1 VSA602      0.0000 
     48 H          -0.3636   -5.4322   16.4004 H         1 VSA602      0.0000 
     49 H          -2.3048   -4.5779   16.7030 H         1 VSA602      0.0000 
     50 H          -4.0069   -3.9533   17.4815 H         1 VSA602      0.0000 
     51 H          -4.3009   -0.4327   17.0660 H         1 VSA602      0.0000 
     52 H          -6.3076    0.8282   17.5369 H         1 VSA602      0.0000 
     53 H          -8.4111   -0.3183   17.8619 H         1 VSA602      0.0000 
     54 H          -8.5076   -2.7299   17.7050 H         1 VSA602      0.0000 
     55 H          -6.4989   -3.9907   17.2428 H         1 VSA602      0.0000 
@<TRIPOS>BOND
     1    2    1 1    
     2    5    1 1    
     3   32    1 1    
     4   33    1 1    
     5    3    2 1    
     6   34    2 1    
     7   35    2 1    
     8    4    3 1    
     9   36    3 1    
    10   37    3 1    
    11    5    4 1    
    12   38    4 1    
    13   39    4 1    
    14    6    5 1    
    15   40    5 1    
    16    7    6 1    
    17    8    6 1    
    18   15    7 2    
    19   41    7 1    
    20    9    8 ar   
    21   14    8 ar   
    22   10    9 ar   
    23   11   10 ar   
    24   42   10 1    
    25   12   11 ar   
    26   13   12 1    
    27   14   12 ar   
    28   43   13 1    
    29   44   13 1    
    30   15   14 1    
    31   16   15 1    
    32   17   16 ar   
    33   19   16 ar   
    34   18   17 ar   
    35   45   17 1    
    36   21   18 ar   
    37   46   18 1    
    38   20   19 ar   
    39   47   19 1    
    40   21   20 ar   
    41   48   20 1    
    42   22   21 1    
    43   23   22 am   
    44   49   22 1    
    45   24   23 2    
    46   25   23 am   
    47   26   25 1    
    48   50   25 1    
    49   27   26 ar   
    50   31   26 ar   
    51   28   27 ar   
    52   51   27 1    
    53   29   28 ar   
    54   52   28 1    
    55   30   29 ar   
    56   53   29 1    
    57   31   30 ar   
    58   54   30 1    
    59   55   31 1    
@<TRIPOS>SUBSTRUCTURE
     1 VSA602      1 GROUP   
@<TRIPOS>SET

