#    Name: 3ocb_XM1_2_INTS_M
#    Modification time : Tue Mar 25 03:37:00 2014

@<TRIPOS>MOLECULE
3ocb_XM1_2_INTS_M
   73     0    12     0     0
SMALL
NO_CHARGES


@<TRIPOS>ATOM
      1 CA         52.7920    4.8715   12.4600 C.3       4 GLC5        0.0000 
      2 CA         54.0250    4.1560   13.8660 C.3      12 GLL5        0.0000 
      3 CA         51.5590    5.5870   11.0540 C.3       8 GLP5        0.0000 
      4 CA         53.5330    3.1385   12.2450 C.3       4 GLC5        0.0000 
      5 CA         53.0410    2.1210   10.6240 C.3       8 GLP5        0.0000 
      6 CA         55.8250    4.5310   13.2880 C.3       4 GLC5        0.0000 
      7 CA         57.6250    4.9060   12.7100 C.3       8 GLP5        0.0000 
      8 CA         54.4270    6.0050   13.1955 C.3       4 GLC5        0.0000 
      9 CA         54.8290    7.8540   12.5250 C.3       8 GLP5        0.0000 
     10 CA         64.6185    1.1960   15.6950 C.3       4 GLC5        0.0000 
     11 CA         62.8000    0.5430   15.2100 C.3      12 GLL5        0.0000 
     12 CA         66.4370    1.8490   16.1800 C.3       8 GLP5        0.0000 
     13 OD1        58.1360    1.4300   20.6770 O.co2     3 ASC3        0.0000 
     14 OD1        57.5120    0.4990   21.0120 O.co2    11 ASL3        0.0000 
     15 OD1        58.7600    2.3610   20.3420 O.co2     7 ASP3        0.0000 
     16 O          57.7670   -0.4705   21.9750 O.2       1 ALC1        0.0000 
     17 O          57.5120    0.4990   21.0120 O.2       9 ALL1        0.0000 
     18 O          58.0220   -1.4400   22.9380 O.2       5 ALP1        0.0000 
     19 O          57.6715    1.2845   22.2750 O.2       1 ALC1        0.0000 
     20 O          57.8310    2.0700   23.5380 O.2       5 ALP1        0.0000 
     21 O          64.8665   -1.1710   14.4595 O.2       1 ALC1        0.0000 
     22 O          63.4360   -0.6870   14.9620 O.2       9 ALL1        0.0000 
     23 O          66.2970   -1.6550   13.9570 O.2       5 ALP1        0.0000 
     24 CA         60.3735   -4.0875   13.6170 C.3       4 GLC5        0.0000 
     25 CA         61.5290   -3.6750   15.1580 C.3      12 GLL5        0.0000 
     26 CA         59.2180   -4.5000   12.0760 C.3       8 GLP5        0.0000 
     27 CA         61.9605   -2.6735   13.4435 C.3       4 GLC5        0.0000 
     28 CA         62.3920   -1.6720   11.7290 C.3       8 GLP5        0.0000 
     29 CA         63.2265   -4.3090   16.2780 C.3       4 GLC5        0.0000 
     30 CA         64.9240   -4.9430   17.3980 C.3       8 GLP5        0.0000 
     31 CA         61.3610   -3.6525   16.9740 C.3       4 GLC5        0.0000 
     32 CA         61.1930   -3.6300   18.7900 C.3       8 GLP5        0.0000 
     33 N          63.8865   -4.0050   14.9620 N.am      2 SEC2        0.0000 
     34 N          62.6630   -2.9820   14.9520 N.am     10 SEL2        0.0000 
     35 N          65.1100   -5.0280   14.9720 N.am      6 SEP2        0.0000 
     36 CA         57.3860   -3.5690   14.5815 C.3       4 GLC5        0.0000 
     37 CA         57.8730   -2.3360   16.2040 C.3      12 GLL5        0.0000 
     38 CA         56.8990   -4.8020   12.9590 C.3       8 GLP5        0.0000 
     39 CA         58.1165   -1.3575   14.3240 C.3       4 GLC5        0.0000 
     40 CA         58.3600   -0.3790   12.4440 C.3       8 GLP5        0.0000 
     41 CA         58.4065   -4.3795   15.9715 C.3       4 GLC5        0.0000 
     42 CA         58.9400   -6.4230   15.7390 C.3       8 GLP5        0.0000 
     43 CA         54.8250   -2.1080   15.4305 C.3       4 GLC5        0.0000 
     44 CA         56.4710   -1.7980   16.5750 C.3      12 GLL5        0.0000 
     45 CA         53.1790   -2.4180   14.2860 C.3       8 GLP5        0.0000 
     46 CA         56.6860   -0.8725   14.5470 C.3       4 GLC5        0.0000 
     47 CA         56.9010    0.0530   12.5190 C.3       8 GLP5        0.0000 
     48 CA         59.1480   -2.0205   17.9265 C.3       4 GLC5        0.0000 
     49 CA         58.8480   -0.1580   16.8160 C.3      12 GLL5        0.0000 
     50 CA         59.4480   -3.8830   19.0370 C.3       8 GLP5        0.0000 
     51 CA         55.7630   -0.4245   22.8385 C.3       4 GLC5        0.0000 
     52 CA         56.0470    0.4040   20.8390 C.3      12 GLL5        0.0000 
     53 CA         55.4790   -1.2530   24.8380 C.3       8 GLP5        0.0000 
     54 CA         51.8695    1.0990   14.5030 C.3       4 GLC5        0.0000 
     55 CA         53.3840    2.2420   15.6640 C.3      12 GLL5        0.0000 
     56 CA         50.3550   -0.0440   13.3420 C.3       8 GLP5        0.0000 
     57 CA         59.7274   -0.4624   13.9786 C.3       4 GLC5        0.0000 
     58 CA         61.4580    0.3740   15.5040 C.3      12 GLL5        0.0000 
     59 CA         62.2605   -0.6068   13.5430 C.3       4 GLC5        0.0000 
     60 CA         62.1585    1.8963   14.3425 C.3       4 GLC5        0.0000 
     61 CA         62.1880    3.3340   13.3280 C.3       8 GLP5        0.0000 
     62 CA         62.0049   -1.6181   13.5196 C.3       4 GLC5        0.0000 
     63 CA         62.5040   -1.6630   15.0980 C.3      12 GLL5        0.0000 
     64 CA         61.4054   -2.5971   17.0501 C.3       4 GLC5        0.0000 
     65 CA         58.3100   -2.9750   17.7132 C.3       4 GLC5        0.0000 
     66 CA         57.4582    0.7320   15.1202 C.3       4 GLC5        0.0000 
     67 CA         56.7820    1.3450   13.3080 C.3       8 GLP5        0.0000 
     68 CA         55.2540    2.1811   14.2301 C.3       4 GLC5        0.0000 
     69 CA         51.7819    2.9188   15.5941 C.3       4 GLC5        0.0000 
     70 CA         54.1110    3.4290   15.4150 C.3      12 GLL5        0.0000 
     71 CA         49.8000    3.1510   15.3290 C.3       8 GLP5        0.0000 
     72 CA         56.1917    4.3220   15.0650 C.3       4 GLC5        0.0000 
     73 CA         57.8750    4.9130   14.2160 C.3       8 GLP5        0.0000 
@<TRIPOS>BOND
@<TRIPOS>SUBSTRUCTURE
     1 ALC1       16 GROUP        1 X    ALC  0     ROOT ALC X 1
     2 SEC2       33 GROUP        1 X    SEC  0     **** SEC X 2
     3 ASC3       13 GROUP        1 X    ASC  0     **** ASC X 3
     4 GLC5        1 GROUP        1 X    GLC  0     **** GLC X 6
     5 ALP1       18 GROUP        1 Y    ALP  0     ROOT ALP Y 8
     6 SEP2       35 GROUP        1 Y    SEP  0     **** SEP Y 9
     7 ASP3       15 GROUP        1 Y    ASP  0     **** ASP Y 10
     8 GLP5        3 GROUP        1 Y    GLP  0     **** GLP Y 13
     9 ALL1       17 GROUP        1 Z    ALL  0     ROOT ALL Z 15
    10 SEL2       34 GROUP        1 Z    SEL  0     **** SEL Z 16
    11 ASL3       14 GROUP        1 Z    ASL  0     **** ASL Z 17
    12 GLL5        2 GROUP        1 Z    GLL  0     **** GLL Z 20
@<TRIPOS>SET

