#    Name: 3ocb_XM1_2_ligand
#    Modification time : Tue Mar 25 03:37:00 2014

@<TRIPOS>MOLECULE
3ocb_XM1_2_ligand
   52    55     1     0     0
SMALL
NO_CHARGES


@<TRIPOS>ATOM
      1 C1         60.1670   -1.8810   15.6200 C.ar      1 XM12        0.0000 
      2 CL1        54.0250    4.1560   13.8660 Cl        1 XM12        0.0000 
      3 C2         61.2960   -1.0500   15.4250 C.ar      1 XM12        0.0000 
      4 C3         61.4580    0.3740   15.5040 C.2       1 XM12        0.0000 
      5 C4         62.8000    0.5430   15.2100 C.2       1 XM12        0.0000 
      6 N5         57.5120    0.4990   21.0120 N.4       1 XM12        0.0000 
      7 N6         63.4360   -0.6870   14.9620 N.pl3     1 XM12        0.0000 
      8 C7         62.5040   -1.6630   15.0980 C.ar      1 XM12        0.0000 
      9 N8         60.3060   -3.2130   15.4810 N.ar      1 XM12        0.0000 
     10 C9         61.5290   -3.6750   15.1580 C.ar      1 XM12        0.0000 
     11 N10        62.6630   -2.9820   14.9520 N.ar      1 XM12        0.0000 
     12 N11        58.9400   -1.3520   15.9560 N.3       1 XM12        0.0000 
     13 C12        57.8730   -2.3360   16.2040 C.3       1 XM12        0.0000 
     14 C13        56.4710   -1.7980   16.5750 C.3       1 XM12        0.0000 
     15 N14        56.5100   -0.6630   17.5130 N.am      1 XM12        0.0000 
     16 C15        57.4210    0.3960   17.0490 C.3       1 XM12        0.0000 
     17 C16        58.8480   -0.1580   16.8160 C.3       1 XM12        0.0000 
     18 C17        55.5400   -0.4660   18.4550 C.2       1 XM12        0.0000 
     19 O18        54.4330   -1.0110   18.3420 O.2       1 XM12        0.0000 
     20 C19        55.6070    0.7570   19.4070 C.3       1 XM12        0.0000 
     21 C20        54.3270    1.6100   19.3270 C.3       1 XM12        0.0000 
     22 C21        56.0470    0.4040   20.8390 C.3       1 XM12        0.0000 
     23 C22        54.2380    2.2470   17.9510 C.ar      1 XM12        0.0000 
     24 C23        53.4490    1.6460   16.9430 C.ar      1 XM12        0.0000 
     25 C24        53.3840    2.2420   15.6640 C.ar      1 XM12        0.0000 
     26 C25        54.1110    3.4290   15.4150 C.ar      1 XM12        0.0000 
     27 C26        54.9060    4.0330   16.4130 C.ar      1 XM12        0.0000 
     28 C27        54.9660    3.4330   17.6890 C.ar      1 XM12        0.0000 
     29 H          60.8191    0.9838   15.7003 H         1 XM12        0.0000 
     30 H          63.2562    1.3976   15.1762 H         1 XM12        0.0000 
     31 H          64.3524   -0.7849   14.7417 H         1 XM12        0.0000 
     32 H          61.6111   -4.7701   15.0476 H         1 XM12        0.0000 
     33 H          58.1834   -3.0408   17.0221 H         1 XM12        0.0000 
     34 H          57.7454   -2.9985   15.3056 H         1 XM12        0.0000 
     35 H          55.8935   -2.6358   17.0035 H         1 XM12        0.0000 
     36 H          55.9643   -1.5093   15.6375 H         1 XM12        0.0000 
     37 H          57.4904    1.2018   17.7862 H         1 XM12        0.0000 
     38 H          57.0705    0.8268   16.1060 H         1 XM12        0.0000 
     39 H          59.4610    0.6707   16.3922 H         1 XM12        0.0000 
     40 H          59.2901   -0.3688   17.8171 H         1 XM12        0.0000 
     41 H          56.4342    1.4148   18.9796 H         1 XM12        0.0000 
     42 H          54.3692    2.3795   20.0855 H         1 XM12        0.0000 
     43 H          53.4690    0.9730   19.4926 H         1 XM12        0.0000 
     44 H          55.5331    1.0859   21.5310 H         1 XM12        0.0000 
     45 H          55.6989   -0.6146   21.0609 H         1 XM12        0.0000 
     46 H          52.9330    0.7918   17.1380 H         1 XM12        0.0000 
     47 H          52.8207    1.8225   14.9298 H         1 XM12        0.0000 
     48 H          55.4235    4.8809   16.2169 H         1 XM12        0.0000 
     49 H          55.5347    3.8532   18.4259 H         1 XM12        0.0000 
     50 H          57.9685    0.7772   20.1669 H         1 XM12        0.0000 
     51 H          57.7607    1.1673   21.7131 H         1 XM12        0.0000 
     52 H          57.9111   -0.3759   21.2865 H         1 XM12        0.0000 
@<TRIPOS>BOND
     1    3    1 ar   
     2    9    1 ar   
     3   12    1 1    
     4   26    2 1    
     5    4    3 1    
     6    8    3 ar   
     7    5    4 2    
     8   29    4 1    
     9    7    5 1    
    10   30    5 1    
    11   22    6 1    
    12   50    6 1    
    13   51    6 1    
    14   52    6 1    
    15    8    7 1    
    16   31    7 1    
    17   11    8 ar   
    18   10    9 ar   
    19   11   10 ar   
    20   32   10 1    
    21   13   12 1    
    22   17   12 1    
    23   14   13 1    
    24   33   13 1    
    25   34   13 1    
    26   15   14 1    
    27   35   14 1    
    28   36   14 1    
    29   16   15 1    
    30   18   15 am   
    31   17   16 1    
    32   37   16 1    
    33   38   16 1    
    34   39   17 1    
    35   40   17 1    
    36   19   18 2    
    37   20   18 1    
    38   21   20 1    
    39   22   20 1    
    40   41   20 1    
    41   23   21 1    
    42   42   21 1    
    43   43   21 1    
    44   44   22 1    
    45   45   22 1    
    46   24   23 ar   
    47   28   23 ar   
    48   25   24 ar   
    49   46   24 1    
    50   26   25 ar   
    51   47   25 1    
    52   27   26 ar   
    53   28   27 ar   
    54   48   27 1    
    55   49   28 1    
@<TRIPOS>SUBSTRUCTURE
     1 XM12        1 GROUP   
@<TRIPOS>SET

