#    Name: 3tfp_03L_1_INTS_M
#    Modification time : Mon Mar 24 20:01:07 2014

@<TRIPOS>MOLECULE
3tfp_03L_1_INTS_M
   71     0     9     0     0
SMALL
NO_CHARGES


@<TRIPOS>ATOM
      1 N          -6.4990  -27.8490    5.3210 N.am      1 SEC2        0.0000 
      2 N          -5.2480  -27.5170    6.1490 N.am      7 SEL2        0.0000 
      3 N          -7.7500  -28.1810    4.4930 N.am      4 SEP2        0.0000 
      4 N          -6.7105  -27.6580    6.4300 N.am      1 SEC2        0.0000 
      5 N          -8.1730  -27.7990    6.7110 N.am      4 SEP2        0.0000 
      6 Zn         -8.5640  -26.3890    9.6575 Zn        2 ZIC7        0.0000 
      7 Zn         -7.4500  -26.0510    8.9210 Zn        8 ZIL7        0.0000 
      8 Zn         -9.6780  -26.7270   10.3940 Zn        5 ZIP7        0.0000 
      9 CA          6.4995  -31.2735   10.5075 C.3       3 GLC5        0.0000 
     10 CA          4.7820  -30.2210    9.5920 C.3       9 GLL5        0.0000 
     11 CA          8.2170  -32.3260   11.4230 C.3       6 GLP5        0.0000 
     12 CA         -3.8000  -29.8345    2.8445 C.3       3 GLC5        0.0000 
     13 CA         -3.9390  -30.3380    4.6340 C.3       9 GLL5        0.0000 
     14 CA         -3.6610  -29.3310    1.0550 C.3       6 GLP5        0.0000 
     15 CA         -5.5935  -29.8000    3.4820 C.3       3 GLC5        0.0000 
     16 CA         -7.2480  -29.2620    2.3300 C.3       6 GLP5        0.0000 
     17 CA         -0.6910  -29.0190   10.4995 C.3       3 GLC5        0.0000 
     18 CA         -0.2940  -28.8920    8.4000 C.3       9 GLL5        0.0000 
     19 CA         -1.0880  -29.1460   12.5990 C.3       6 GLP5        0.0000 
     20 CA         -5.2140  -31.9495    6.8535 C.3       3 GLC5        0.0000 
     21 CA         -5.5640  -30.3420    8.1800 C.3       9 GLL5        0.0000 
     22 CA         -4.8640  -33.5570    5.5270 C.3       6 GLP5        0.0000 
     23 CA         -3.7575  -31.5900    8.4830 C.3       3 GLC5        0.0000 
     24 CA         -1.9510  -32.8380    8.7860 C.3       6 GLP5        0.0000 
     25 CA          5.9065  -28.3355    8.1095 C.3       3 GLC5        0.0000 
     26 CA          4.0640  -28.9030    7.3620 C.3       9 GLL5        0.0000 
     27 CA          7.7490  -27.7680    8.8570 C.3       6 GLP5        0.0000 
     28 CA         -1.2800  -26.2400    5.7590 C.3       3 GLC5        0.0000 
     29 CA         -2.4680  -28.0510    5.8390 C.3       9 GLL5        0.0000 
     30 CA         -0.0920  -24.4290    5.6790 C.3       6 GLP5        0.0000 
     31 CA         -2.1070  -27.9720    4.1315 C.3       3 GLC5        0.0000 
     32 CA         -1.7460  -27.8930    2.4240 C.3       6 GLP5        0.0000 
     33 CA          0.2430  -26.0200    5.7560 C.3       3 GLC5        0.0000 
     34 CA          0.5780  -27.6110    5.8330 C.3       9 GLL5        0.0000 
     35 CA         -0.5840  -27.7520    4.1285 C.3       3 GLC5        0.0000 
     36 CA          5.6455  -28.5332    9.5895 C.3       3 GLC5        0.0000 
     37 CA          7.0800  -27.2080   10.1120 C.3       6 GLP5        0.0000 
     38 CA          3.7035  -29.3047   10.5715 C.3       3 GLC5        0.0000 
     39 CA          3.1960  -28.7510   12.0760 C.3       6 GLP5        0.0000 
     40 CA         -6.5820  -32.3405   10.2888 C.3       3 GLC5        0.0000 
     41 CA         -7.0440  -30.2280   10.0630 C.3       9 GLL5        0.0000 
     42 CA         -6.4890  -34.0760   10.9650 C.3       6 GLP5        0.0000 
     43 CA         -0.4587  -31.7995    5.5700 C.3       3 GLC5        0.0000 
     44 CA         -1.5260  -31.1890    3.9600 C.3       9 GLL5        0.0000 
     45 CA         -0.0780  -32.4630    7.2060 C.3       6 GLP5        0.0000 
     46 CA          1.7708  -31.4170    4.6958 C.3       3 GLC5        0.0000 
     47 CA         -0.1530  -31.0830    3.9080 C.3       9 GLL5        0.0000 
     48 CA          3.3780  -32.2970    5.1970 C.3       6 GLP5        0.0000 
     49 CA         -3.5895  -32.1434    4.9056 C.3       3 GLC5        0.0000 
     50 CA          0.0147  -30.9795    5.9990 C.3       3 GLC5        0.0000 
     51 CA         -0.2650  -29.0010    5.1030 C.3       9 GLL5        0.0000 
     52 CA         -8.5220  -30.0780    8.6914 C.3       3 GLC5        0.0000 
     53 CA         -6.3060  -30.9820    9.1620 C.3       9 GLL5        0.0000 
     54 CA        -10.1820  -30.4330    7.5840 C.3       6 GLP5        0.0000 
     55 CA         -6.2460  -30.0500   11.6439 C.3       3 GLC5        0.0000 
     56 CA         -7.0490  -28.8410    9.9850 C.3       9 GLL5        0.0000 
     57 CA         -5.6300  -30.3770   13.4890 C.3       6 GLP5        0.0000 
     58 CA          0.6725  -30.8344    7.8774 C.3       3 GLC5        0.0000 
     59 CA          2.3000  -29.5060    8.8810 C.3       9 GLL5        0.0000 
     60 CA          3.5787  -31.5651    9.3255 C.3       3 GLC5        0.0000 
     61 CA          3.9020  -33.4480    9.6770 C.3       6 GLP5        0.0000 
     62 CA          2.5195  -28.9818   10.2665 C.3       3 GLC5        0.0000 
     63 CA          3.4999  -30.6751    6.4686 C.3       3 GLC5        0.0000 
     64 CA          3.6400  -29.4960    8.5420 C.3       9 GLL5        0.0000 
     65 CA         -2.1011  -31.5343    2.8563 C.3       3 GLC5        0.0000 
     66 CA         -2.6480  -32.3990    1.4540 C.3       6 GLP5        0.0000 
     67 CA         -1.0170  -31.0577    6.0370 C.3       3 GLC5        0.0000 
     68 CA         -2.2690  -30.2030    4.5830 C.3       9 GLL5        0.0000 
     69 CA          3.1228  -27.2585    8.2741 C.3       3 GLC5        0.0000 
     70 CA          1.8080  -28.3250    6.8630 C.3       9 GLL5        0.0000 
     71 CA          3.5220  -25.6060    8.8480 C.3       6 GLP5        0.0000 
@<TRIPOS>BOND
@<TRIPOS>SUBSTRUCTURE
     1 SEC2        1 GROUP        1 X    SEC  0     ROOT SEC X 2
     2 ZIC7        6 GROUP        1 X    ZIC  0     **** ZIC X 5
     3 GLC5        9 GROUP        1 X    GLC  0     **** GLC X 6
     4 SEP2        3 GROUP        1 Y    SEP  0     ROOT SEP Y 9
     5 ZIP7        8 GROUP        1 Y    ZIP  0     **** ZIP Y 12
     6 GLP5       11 GROUP        1 Y    GLP  0     **** GLP Y 13
     7 SEL2        2 GROUP        1 Z    SEL  0     ROOT SEL Z 16
     8 ZIL7        7 GROUP        1 Z    ZIL  0     **** ZIL Z 19
     9 GLL5       10 GROUP        1 Z    GLL  0     **** GLL Z 20
@<TRIPOS>SET

