#    Name: 3tfp_03L_1_ligand
#    Modification time : Mon Mar 24 20:01:07 2014

@<TRIPOS>MOLECULE
3tfp_03L_1_ligand
   42    44     1     0     0
SMALL
NO_CHARGES


@<TRIPOS>ATOM
      1 OAA        -5.2310  -26.0210    8.8900 O.co2     1 03L303      0.0000 
      2 OAB        -5.2480  -27.5170    6.1490 O.2       1 03L303      0.0000 
      3 OAC        -7.4500  -26.0510    8.9210 O.co2     1 03L303      0.0000 
      4 CLAD        4.7820  -30.2210    9.5920 Cl        1 03L303      0.0000 
      5 CLAE       -3.9390  -30.3380    4.6340 Cl        1 03L303      0.0000 
      6 CAF        -7.0440  -30.2280   10.0630 C.ar      1 03L303      0.0000 
      7 CLAF       -0.2940  -28.8920    8.4000 Cl        1 03L303      0.0000 
      8 CAG        -6.3060  -30.9820    9.1620 C.ar      1 03L303      0.0000 
      9 CAH        -0.1530  -31.0830    3.9080 C.ar      1 03L303      0.0000 
     10 CAI        -1.5260  -31.1890    3.9600 C.ar      1 03L303      0.0000 
     11 CAJ         0.4800  -29.9910    4.4810 C.ar      1 03L303      0.0000 
     12 CAK        -7.0490  -28.8410    9.9850 C.ar      1 03L303      0.0000 
     13 CAL        -5.5640  -30.3420    8.1800 C.ar      1 03L303      0.0000 
     14 CAM         4.0640  -28.9030    7.3620 C.ar      1 03L303      0.0000 
     15 CAN         2.3000  -29.5060    8.8810 C.ar      1 03L303      0.0000 
     16 CAO         3.1430  -28.3180    6.5150 C.ar      1 03L303      0.0000 
     17 CAP         1.3860  -28.9190    8.0330 C.ar      1 03L303      0.0000 
     18 CAQ        -2.4680  -28.0510    5.8390 C.3       1 03L303      0.0000 
     19 NAR        -3.3250  -28.6050    6.8880 N.am      1 03L303      0.0000 
     20 SAS         0.5780  -27.6110    5.8330 S.3       1 03L303      0.0000 
     21 CAT        -6.3240  -26.6750    8.9340 C.2       1 03L303      0.0000 
     22 CAU        -4.7160  -28.2920    6.9720 C.2       1 03L303      0.0000 
     23 CAV         3.6400  -29.4960    8.5420 C.ar      1 03L303      0.0000 
     24 CAW        -2.2690  -30.2030    4.5830 C.ar      1 03L303      0.0000 
     25 CAX         1.8080  -28.3250    6.8630 C.ar      1 03L303      0.0000 
     26 CAY        -0.2650  -29.0010    5.1030 C.ar      1 03L303      0.0000 
     27 CAZ        -6.3080  -28.2000    9.0050 C.ar      1 03L303      0.0000 
     28 CBA        -5.5650  -28.9560    8.1020 C.ar      1 03L303      0.0000 
     29 CBB        -1.6430  -29.1020    5.1530 C.ar      1 03L303      0.0000 
     30 H          -7.5943  -30.7009   10.7979 H         1 03L303      0.0000 
     31 H          -6.3090  -32.0066    9.2217 H         1 03L303      0.0000 
     32 H           0.4067  -31.8140    3.4437 H         1 03L303      0.0000 
     33 H          -1.9999  -32.0001    3.5364 H         1 03L303      0.0000 
     34 H           1.5075  -29.9147    4.4446 H         1 03L303      0.0000 
     35 H          -7.6033  -28.2911   10.6554 H         1 03L303      0.0000 
     36 H          -5.0126  -30.8944    7.5091 H         1 03L303      0.0000 
     37 H           5.0651  -28.9002    7.1200 H         1 03L303      0.0000 
     38 H           1.9910  -29.9464    9.7554 H         1 03L303      0.0000 
     39 H           3.4490  -27.8833    5.6371 H         1 03L303      0.0000 
     40 H          -1.7876  -27.2895    6.2647 H         1 03L303      0.0000 
     41 H          -3.0821  -27.5318    5.0792 H         1 03L303      0.0000 
     42 H          -2.9005  -29.2346    7.5756 H         1 03L303      0.0000 
@<TRIPOS>BOND
     1   21    1 ar   
     2   22    2 2    
     3   21    3 ar   
     4   23    4 1    
     5   24    5 1    
     6    8    6 ar   
     7   12    6 ar   
     8   30    6 1    
     9   17    7 1    
    10   13    8 ar   
    11   31    8 1    
    12   10    9 ar   
    13   11    9 ar   
    14   32    9 1    
    15   24   10 ar   
    16   33   10 1    
    17   26   11 ar   
    18   34   11 1    
    19   27   12 ar   
    20   35   12 1    
    21   28   13 ar   
    22   36   13 1    
    23   16   14 ar   
    24   23   14 ar   
    25   37   14 1    
    26   17   15 ar   
    27   23   15 ar   
    28   38   15 1    
    29   25   16 ar   
    30   39   16 1    
    31   25   17 ar   
    32   19   18 1    
    33   29   18 1    
    34   40   18 1    
    35   41   18 1    
    36   22   19 am   
    37   42   19 1    
    38   25   20 1    
    39   26   20 1    
    40   27   21 1    
    41   28   22 1    
    42   29   24 ar   
    43   29   26 ar   
    44   28   27 ar   
@<TRIPOS>SUBSTRUCTURE
     1 03L303      1 GROUP   
@<TRIPOS>SET

