#    Name: 4bu7_25F_2_INTS_M
#    Modification time : Tue Mar 25 08:22:13 2014

@<TRIPOS>MOLECULE
4bu7_25F_2_INTS_M
   43     0     9     0     0
SMALL
NO_CHARGES


@<TRIPOS>ATOM
      1 N          -7.2925   39.8825  -14.4335 N.am      2 SEC2        0.0000 
      2 N          -8.0570   41.0770  -14.0810 N.am      8 SEL2        0.0000 
      3 N          -6.5280   38.6880  -14.7860 N.am      5 SEP2        0.0000 
      4 N          -8.1960   40.3830  -12.8625 N.am      2 SEC2        0.0000 
      5 N          -8.3350   39.6890  -11.6440 N.am      5 SEP2        0.0000 
      6 CA         -6.6645   41.6955  -23.9915 C.3       3 GLC5        0.0000 
      7 CA         -7.9560   42.5810  -23.1430 C.3       9 GLL5        0.0000 
      8 CA         -5.3730   40.8100  -24.8400 C.3       6 GLP5        0.0000 
      9 CA         -7.4705   39.8180  -21.2825 C.3       3 GLC5        0.0000 
     10 CA         -7.4330   41.7230  -20.4300 C.3       9 GLL5        0.0000 
     11 CA         -7.5080   37.9130  -22.1350 C.3       6 GLP5        0.0000 
     12 O          -7.8845   40.5530  -16.7635 O.2       1 ALC1        0.0000 
     13 O          -8.3830   41.7400  -16.1980 O.2       7 ALL1        0.0000 
     14 O          -7.3860   39.3660  -17.3290 O.2       4 ALP1        0.0000 
     15 CA        -10.9410   42.9025  -21.7435 C.3       3 GLC5        0.0000 
     16 CA         -9.2640   43.2590  -20.7340 C.3       9 GLL5        0.0000 
     17 CA        -12.6180   42.5460  -22.7530 C.3       6 GLP5        0.0000 
     18 CA         -8.1460   43.7585  -12.3475 C.3       3 GLC5        0.0000 
     19 CA         -9.9510   43.0530  -13.0990 C.3       9 GLL5        0.0000 
     20 CA         -6.3410   44.4640  -11.5960 C.3       6 GLP5        0.0000 
     21 CA        -12.8670   43.3860  -12.9165 C.3       3 GLC5        0.0000 
     22 CA        -11.5620   44.8130  -13.7150 C.3       9 GLL5        0.0000 
     23 CA        -14.1720   41.9590  -12.1180 C.3       6 GLP5        0.0000 
     24 CA         -6.4025   40.3017  -19.6238 C.3       3 GLC5        0.0000 
     25 CA         -7.6810   41.7040  -19.0770 C.3       9 GLL5        0.0000 
     26 CA         -5.2480   38.8900  -19.4940 C.3       6 GLP5        0.0000 
     27 CA         -9.4528   40.6478  -18.2625 C.3       3 GLC5        0.0000 
     28 CA        -10.6980   39.2120  -17.7160 C.3       6 GLP5        0.0000 
     29 CA         -9.4555   44.9740  -20.0840 C.3       3 GLC5        0.0000 
     30 CA         -9.5180   43.2510  -19.3740 C.3       9 GLL5        0.0000 
     31 CA         -9.5200   46.6930  -20.1140 C.3       6 GLP5        0.0000 
     32 CA         -9.1603   44.7368  -15.1268 C.3       3 GLC5        0.0000 
     33 CA        -10.3090   43.6920  -15.4680 C.3       9 GLL5        0.0000 
     34 CA         -8.3480   46.2100  -15.3050 C.3       6 GLP5        0.0000 
     35 CA         -9.3863   44.8750  -14.1155 C.3       3 GLC5        0.0000 
     36 CA        -10.0938   42.7835  -11.2505 C.3       3 GLC5        0.0000 
     37 CA         -9.7630   42.0270   -9.5750 C.3       6 GLP5        0.0000 
     38 CA        -11.7673   42.7000  -11.9890 C.3       3 GLC5        0.0000 
     39 CA        -13.1100   41.8600  -11.0520 C.3       6 GLP5        0.0000 
     40 CA        -11.8325   45.1820  -11.4585 C.3       3 GLC5        0.0000 
     41 CA        -10.8980   44.0270  -12.7530 C.3       9 GLL5        0.0000 
     42 CA        -12.4350   45.9440   -9.6830 C.3       6 GLP5        0.0000 
     43 CA         -9.8790   45.4715  -14.8520 C.3       3 GLC5        0.0000 
@<TRIPOS>BOND
@<TRIPOS>SUBSTRUCTURE
     1 ALC1       12 GROUP        1 X    ALC  0     ROOT ALC X 1
     2 SEC2        1 GROUP        1 X    SEC  0     **** SEC X 2
     3 GLC5        6 GROUP        1 X    GLC  0     **** GLC X 6
     4 ALP1       14 GROUP        1 Y    ALP  0     ROOT ALP Y 8
     5 SEP2        3 GROUP        1 Y    SEP  0     **** SEP Y 9
     6 GLP5        8 GROUP        1 Y    GLP  0     **** GLP Y 13
     7 ALL1       13 GROUP        1 Z    ALL  0     ROOT ALL Z 15
     8 SEL2        2 GROUP        1 Z    SEL  0     **** SEL Z 16
     9 GLL5        7 GROUP        1 Z    GLL  0     **** GLL Z 20
@<TRIPOS>SET

