#    Name: 4bu7_25F_2_ligand
#    Modification time : Tue Mar 25 08:22:13 2014

@<TRIPOS>MOLECULE
4bu7_25F_2_ligand
   27    29     1     0     0
SMALL
NO_CHARGES


@<TRIPOS>ATOM
      1 C          -8.2270   42.5110  -21.2660 C.ar      1 25F2165     0.0000 
      2 N          -9.9640   43.5030  -16.7590 N.2       1 25F2165     0.0000 
      3 O          -8.0570   41.0770  -14.0810 O.2       1 25F2165     0.0000 
      4 BR         -7.9560   42.5810  -23.1430 Br        1 25F2165     0.0000 
      5 C1         -7.4330   41.7230  -20.4300 C.ar      1 25F2165     0.0000 
      6 N1         -8.3830   41.7400  -16.1980 N.am      1 25F2165     0.0000 
      7 C2         -7.6810   41.7040  -19.0770 C.ar      1 25F2165     0.0000 
      8 C3         -8.7340   42.4630  -18.5410 C.ar      1 25F2165     0.0000 
      9 C4         -9.5180   43.2510  -19.3740 C.ar      1 25F2165     0.0000 
     10 C5         -9.2640   43.2590  -20.7340 C.ar      1 25F2165     0.0000 
     11 C6         -9.0390   42.5330  -17.0980 C.2       1 25F2165     0.0000 
     12 C7        -10.3090   43.6920  -15.4680 C.ar      1 25F2165     0.0000 
     13 C8         -9.6360   42.8350  -14.4290 C.ar      1 25F2165     0.0000 
     14 C9         -9.9510   43.0530  -13.0990 C.ar      1 25F2165     0.0000 
     15 C10       -10.8980   44.0270  -12.7530 C.ar      1 25F2165     0.0000 
     16 C11       -11.5620   44.8130  -13.7150 C.ar      1 25F2165     0.0000 
     17 C12       -11.2580   44.6530  -15.0830 C.ar      1 25F2165     0.0000 
     18 C13        -8.6360   41.8280  -14.8810 C.2       1 25F2165     0.0000 
     19 H          -6.6707   41.1643  -20.8320 H         1 25F2165     0.0000 
     20 H          -7.6729   41.0554  -16.5511 H         1 25F2165     0.0000 
     21 H          -7.0999   41.1355  -18.4445 H         1 25F2165     0.0000 
     22 H         -10.2757   43.8194  -18.9830 H         1 25F2165     0.0000 
     23 H          -9.8563   43.8312  -21.3624 H         1 25F2165     0.0000 
     24 H          -9.4949   42.5048  -12.3590 H         1 25F2165     0.0000 
     25 H         -11.1211   44.1774  -11.7470 H         1 25F2165     0.0000 
     26 H         -12.2616   45.4969  -13.4237 H         1 25F2165     0.0000 
     27 H         -11.7228   45.2290  -15.7813 H         1 25F2165     0.0000 
@<TRIPOS>BOND
     1    4    1 1    
     2    5    1 ar   
     3   10    1 ar   
     4   11    2 2    
     5   12    2 1    
     6   18    3 2    
     7    7    5 ar   
     8   19    5 1    
     9   11    6 1    
    10   18    6 am   
    11   20    6 1    
    12    8    7 ar   
    13   21    7 1    
    14    9    8 ar   
    15   11    8 1    
    16   10    9 ar   
    17   22    9 1    
    18   23   10 1    
    19   13   12 ar   
    20   17   12 ar   
    21   14   13 ar   
    22   18   13 1    
    23   15   14 ar   
    24   24   14 1    
    25   16   15 ar   
    26   25   15 1    
    27   17   16 ar   
    28   26   16 1    
    29   27   17 1    
@<TRIPOS>SUBSTRUCTURE
     1 25F2165     1 GROUP   
@<TRIPOS>SET

