#    Name: 2pd6_NAD_2_INTS_M
#    Modification time : Mon Mar 24 18:45:14 2014

@<TRIPOS>MOLECULE
2pd6_NAD_2_INTS_M
  100     0     9     0     0
SMALL
NO_CHARGES


@<TRIPOS>ATOM
      1 N          -4.6840  -17.3635   25.4365 N.am      2 SEC2        0.0000 
      2 N          -3.5410  -16.6160   25.3200 N.am      8 SEL2        0.0000 
      3 N          -5.8270  -18.1110   25.5530 N.am      5 SEP2        0.0000 
      4 CA         -6.6720  -13.7165   20.9490 C.3       3 GLC5        0.0000 
      5 CA         -5.4160  -14.9710   21.2230 C.3       9 GLL5        0.0000 
      6 CA         -7.9280  -12.4620   20.6750 C.3       6 GLP5        0.0000 
      7 O          -8.0635  -16.2260   20.7700 O.2       1 ALC1        0.0000 
      8 O          -7.0180  -16.7860   21.3490 O.2       7 ALL1        0.0000 
      9 O          -9.1090  -15.6660   20.1910 O.2       4 ALP1        0.0000 
     10 O          -8.1250  -17.0580   20.0440 O.2       1 ALC1        0.0000 
     11 O          -9.2320  -17.3300   18.7390 O.2       4 ALP1        0.0000 
     12 O          -7.6775  -17.5640   18.8520 O.2       1 ALC1        0.0000 
     13 O          -6.1230  -17.7980   18.9650 O.2       7 ALL1        0.0000 
     14 CA         -6.9150  -13.9020   19.8435 C.3       3 GLC5        0.0000 
     15 CA         -5.9020  -15.3420   19.0120 C.3       9 GLL5        0.0000 
     16 CA         -6.9170  -13.8330   12.6550 C.3       3 GLC5        0.0000 
     17 CA         -5.5820  -13.9900   14.3710 C.3       9 GLL5        0.0000 
     18 CA         -8.2520  -13.6760   10.9390 C.3       6 GLP5        0.0000 
     19 CA         -5.6855  -11.9905   14.0550 C.3       3 GLC5        0.0000 
     20 CA         -5.7890   -9.9910   13.7390 C.3       6 GLP5        0.0000 
     21 O          -5.1775  -13.8125   11.8625 O.2       1 ALC1        0.0000 
     22 O          -4.7950  -13.9720   13.2690 O.2       7 ALL1        0.0000 
     23 O          -5.5600  -13.6530   10.4560 O.2       4 ALP1        0.0000 
     24 N          -7.1445  -12.4970   13.0100 N.am      2 SEC2        0.0000 
     25 N          -6.8360  -13.4660   14.3230 N.am      8 SEL2        0.0000 
     26 N          -7.4530  -11.5280   11.6970 N.am      5 SEP2        0.0000 
     27 CA         -9.3090  -14.1740   16.5215 C.3       3 GLC5        0.0000 
     28 CA         -7.6130  -13.4820   15.4030 C.3       9 GLL5        0.0000 
     29 CA        -11.0050  -14.8660   17.6400 C.3       6 GLP5        0.0000 
     30 CA         -7.7145  -15.2995   15.0885 C.3       3 GLC5        0.0000 
     31 CA         -7.8160  -17.1170   14.7740 C.3       6 GLP5        0.0000 
     32 CA         -7.9490  -11.6385   14.6865 C.3       3 GLC5        0.0000 
     33 CA         -8.2850   -9.7950   13.9700 C.3       6 GLP5        0.0000 
     34 CA         -6.5880  -12.1780   16.5000 C.3       3 GLC5        0.0000 
     35 CA         -5.5630  -10.8740   17.5970 C.3       6 GLP5        0.0000 
     36 N          -8.4240  -15.0310   16.2960 N.am      2 SEC2        0.0000 
     37 N          -7.2230  -14.0140   16.5720 N.am      8 SEL2        0.0000 
     38 N          -9.6250  -16.0480   16.0200 N.am      5 SEP2        0.0000 
     39 N          -0.6890  -14.8805   27.2265 N.am      2 SEC2        0.0000 
     40 N          -0.9080  -13.8930   26.3900 N.am      8 SEL2        0.0000 
     41 N          -0.4700  -15.8680   28.0630 N.am      5 SEP2        0.0000 
     42 N          -4.3675  -13.2290   26.9370 N.am      2 SEC2        0.0000 
     43 N          -3.4330  -13.5680   26.0330 N.am      8 SEL2        0.0000 
     44 N          -5.3020  -12.8900   27.8410 N.am      5 SEP2        0.0000 
     45 CA         -3.5375  -10.9180   25.9885 C.3       3 GLC5        0.0000 
     46 CA         -2.6750  -11.2900   24.2700 C.3       9 GLL5        0.0000 
     47 CA         -4.4000  -10.5460   27.7070 C.3       6 GLP5        0.0000 
     48 CA         -4.4125  -10.1930   23.6510 C.3       3 GLC5        0.0000 
     49 CA         -6.1500   -9.0960   23.0320 C.3       6 GLP5        0.0000 
     50 CA         -3.6340   -9.2985   22.7750 C.3       3 GLC5        0.0000 
     51 CA         -1.9340  -10.0740   23.6770 C.3       9 GLL5        0.0000 
     52 CA         -5.3340   -8.5230   21.8730 C.3       6 GLP5        0.0000 
     53 CA         -1.7425   -8.1460   24.4715 C.3       3 GLC5        0.0000 
     54 CA         -1.5510   -6.2180   25.2660 C.3       6 GLP5        0.0000 
     55 CA         -1.0480  -11.1045   20.7140 C.3       3 GLC5        0.0000 
     56 CA         -0.9930  -10.4770   22.5290 C.3       9 GLL5        0.0000 
     57 CA         -1.1030  -11.7320   18.8990 C.3       6 GLP5        0.0000 
     58 N           0.1540   -8.5665   21.1460 N.am      2 SEC2        0.0000 
     59 N          -0.7950   -9.3760   21.6430 N.am      8 SEL2        0.0000 
     60 N           1.1030   -7.7570   20.6490 N.am      5 SEP2        0.0000 
     61 CA          1.4725   -9.2800   22.0245 C.3       3 GLC5        0.0000 
     62 CA          0.3270  -10.7380   23.2330 C.3       9 GLL5        0.0000 
     63 CA          2.6180   -7.8220   20.8160 C.3       6 GLP5        0.0000 
     64 CA          1.2110  -12.3710   23.4285 C.3       3 GLC5        0.0000 
     65 CA          2.0950  -14.0040   23.6240 C.3       6 GLP5        0.0000 
     66 N           2.7035  -10.3680   22.7570 N.am      2 SEC2        0.0000 
     67 N           1.4510  -10.5790   22.3460 N.am      8 SEL2        0.0000 
     68 N           3.9560  -10.1570   23.1680 N.am      5 SEP2        0.0000 
     69 N           1.2770   -9.1680   21.4975 N.am      2 SEC2        0.0000 
     70 CA         -0.6340   -7.9080   24.7670 C.3       3 GLC5        0.0000 
     71 CA          0.2830   -9.5980   24.2680 C.3       9 GLL5        0.0000 
     72 CA          1.6395  -10.5995   29.3010 C.3       3 GLC5        0.0000 
     73 CA          2.2290  -11.0470   27.1840 C.3       9 GLL5        0.0000 
     74 CA          1.0500  -10.1520   31.4180 C.3       6 GLP5        0.0000 
     75 N           3.2225  -12.2295   30.5195 N.am      2 SEC2        0.0000 
     76 N           3.2620  -12.4400   28.9730 N.am      8 SEL2        0.0000 
     77 N           3.1830  -12.0190   32.0660 N.am      5 SEP2        0.0000 
     78 CA          1.4690   -7.6345   26.8500 C.3       3 GLC5        0.0000 
     79 CA          2.3250   -8.8220   25.4940 C.3       9 GLL5        0.0000 
     80 CA          0.6130   -6.4470   28.2060 C.3       6 GLP5        0.0000 
     81 CA         -6.1555  -16.6540   22.8735 C.3       3 GLC5        0.0000 
     82 CA         -6.7690  -17.5750   24.6260 C.3       6 GLP5        0.0000 
     83 CA         -3.5272  -13.2157   14.9662 C.3       3 GLC5        0.0000 
     84 CA         -5.1250  -14.5510   15.5760 C.3       9 GLL5        0.0000 
     85 CA         -1.7010  -12.1610   14.9590 C.3       6 GLP5        0.0000 
     86 CA         -6.7456  -15.7664   15.2996 C.3       3 GLC5        0.0000 
     87 CA         -5.6191  -12.6449   16.7111 C.3       3 GLC5        0.0000 
     88 CA         -5.9970  -14.5610   16.6770 C.3       9 GLL5        0.0000 
     89 CA         -0.0877  -10.4995   27.4400 C.3       3 GLC5        0.0000 
     90 CA          1.2700  -10.8910   26.1940 C.3       9 GLL5        0.0000 
     91 CA         -1.9250  -10.0300   28.1910 C.3       6 GLP5        0.0000 
     92 CA          2.4032  -12.0585   25.7750 C.3       3 GLC5        0.0000 
     93 CA          3.0570  -13.1480   24.8610 C.3       6 GLP5        0.0000 
     94 CA          2.3490   -8.2607   28.0972 C.3       3 GLC5        0.0000 
     95 CA          3.2420  -10.1000   27.3230 C.3       9 GLL5        0.0000 
     96 CA          1.4300   -6.9790   29.2930 C.3       6 GLP5        0.0000 
     97 CA          3.9487   -7.8213   25.1700 C.3       3 GLC5        0.0000 
     98 CA          3.2940   -8.9850   26.4800 C.3       9 GLL5        0.0000 
     99 CA          5.0880   -6.7390   24.3530 C.3       6 GLP5        0.0000 
    100 CA          2.9267  -11.1651   25.5294 C.3       3 GLC5        0.0000 
@<TRIPOS>BOND
@<TRIPOS>SUBSTRUCTURE
     1 ALC1        7 GROUP        1 X    ALC  0     ROOT ALC X 1
     2 SEC2        1 GROUP        1 X    SEC  0     **** SEC X 2
     3 GLC5        4 GROUP        1 X    GLC  0     **** GLC X 6
     4 ALP1        9 GROUP        1 Y    ALP  0     ROOT ALP Y 8
     5 SEP2        3 GROUP        1 Y    SEP  0     **** SEP Y 9
     6 GLP5        6 GROUP        1 Y    GLP  0     **** GLP Y 13
     7 ALL1        8 GROUP        1 Z    ALL  0     ROOT ALL Z 15
     8 SEL2        2 GROUP        1 Z    SEL  0     **** SEL Z 16
     9 GLL5        5 GROUP        1 Z    GLL  0     **** GLL Z 20
@<TRIPOS>SET

