#    Name: 2pd6_NAD_2_ligand
#    Modification time : Mon Mar 24 18:45:14 2014

@<TRIPOS>MOLECULE
2pd6_NAD_2_ligand
   70    74     1     0     0
SMALL
NO_CHARGES


@<TRIPOS>ATOM
      1 PA         -3.0220  -16.0420   24.0440 P.3       1 NAD2        0.0000 
      2 O1A        -2.2140  -16.9500   23.1390 O.co2     1 NAD2        0.0000 
      3 O2A        -3.5410  -16.6160   25.3200 O.co2     1 NAD2        0.0000 
      4 O5B        -4.2720  -15.4080   23.2550 O.3       1 NAD2        0.0000 
      5 C5B        -4.1060  -14.8130   21.9480 C.3       1 NAD2        0.0000 
      6 C4B        -5.4160  -14.9710   21.2230 C.3       1 NAD2        0.0000 
      7 O4B        -5.3360  -14.3660   19.9250 O.3       1 NAD2        0.0000 
      8 C3B        -5.6680  -16.4950   21.0190 C.3       1 NAD2        0.0000 
      9 O3B        -7.0180  -16.7860   21.3490 O.3       1 NAD2        0.0000 
     10 C2B        -5.3960  -16.6790   19.5340 C.3       1 NAD2        0.0000 
     11 O2B        -6.1230  -17.7980   18.9650 O.3       1 NAD2        0.0000 
     12 C1B        -5.9020  -15.3420   19.0120 C.3       1 NAD2        0.0000 
     13 N9A        -5.3480  -15.1390   17.6820 N.pl3     1 NAD2        0.0000 
     14 C8A        -4.1200  -15.5060   17.2580 C.2       1 NAD2        0.0000 
     15 N7A        -3.9780  -15.1360   15.9750 N.2       1 NAD2        0.0000 
     16 C5A        -5.1250  -14.5510   15.5760 C.ar      1 NAD2        0.0000 
     17 C6A        -5.5820  -13.9900   14.3710 C.ar      1 NAD2        0.0000 
     18 N6A        -4.7950  -13.9720   13.2690 N.pl3     1 NAD2        0.0000 
     19 N1A        -6.8360  -13.4660   14.3230 N.ar      1 NAD2        0.0000 
     20 C2A        -7.6130  -13.4820   15.4030 C.ar      1 NAD2        0.0000 
     21 N3A        -7.2230  -14.0140   16.5720 N.ar      1 NAD2        0.0000 
     22 C4A        -5.9970  -14.5610   16.6770 C.ar      1 NAD2        0.0000 
     23 O3         -2.0230  -14.7650   24.2430 O.3       1 NAD2        0.0000 
     24 PN         -2.0570  -13.6520   25.4750 P.3       1 NAD2        0.0000 
     25 O1N        -0.9080  -13.8930   26.3900 O.co2     1 NAD2        0.0000 
     26 O2N        -3.4330  -13.5680   26.0330 O.co2     1 NAD2        0.0000 
     27 O5D        -1.7270  -12.3390   24.5990 O.3       1 NAD2        0.0000 
     28 C5D        -2.6750  -11.2900   24.2700 C.3       1 NAD2        0.0000 
     29 C4D        -1.9340  -10.0740   23.6770 C.3       1 NAD2        0.0000 
     30 O4D        -1.0700   -9.6490   24.7750 O.3       1 NAD2        0.0000 
     31 C3D        -0.9930  -10.4770   22.5290 C.3       1 NAD2        0.0000 
     32 O3D        -0.7950   -9.3760   21.6430 O.3       1 NAD2        0.0000 
     33 C2D         0.3270  -10.7380   23.2330 C.3       1 NAD2        0.0000 
     34 O2D         1.4510  -10.5790   22.3460 O.3       1 NAD2        0.0000 
     35 C1D         0.2830   -9.5980   24.2680 C.3       1 NAD2        0.0000 
     36 N1N         1.3110   -9.7820   25.3450 N.pl3     1 NAD2        0.0000 
     37 C2N         1.2700  -10.8910   26.1940 C.ar      1 NAD2        0.0000 
     38 C3N         2.2290  -11.0470   27.1840 C.ar      1 NAD2        0.0000 
     39 C7N         2.2150  -12.2520   28.1280 C.2       1 NAD2        0.0000 
     40 O7N         3.2620  -12.4400   28.9730 O.2       1 NAD2        0.0000 
     41 N7N         1.1730  -13.0840   28.0890 N.am      1 NAD2        0.0000 
     42 C4N         3.2420  -10.1000   27.3230 C.ar      1 NAD2        0.0000 
     43 C5N         3.2940   -8.9850   26.4800 C.ar      1 NAD2        0.0000 
     44 C6N         2.3250   -8.8220   25.4940 C.ar      1 NAD2        0.0000 
     45 H          -3.3292  -15.3162   21.3818 H         1 NAD2        0.0000 
     46 H          -3.8723  -13.7562   22.0231 H         1 NAD2        0.0000 
     47 H          -6.2069  -14.5849   21.8055 H         1 NAD2        0.0000 
     48 H          -4.9506  -17.0129   21.5749 H         1 NAD2        0.0000 
     49 H          -4.3530  -16.7152   19.3892 H         1 NAD2        0.0000 
     50 H          -6.9412  -15.3371   19.0277 H         1 NAD2        0.0000 
     51 H          -3.4537  -15.9613   17.7944 H         1 NAD2        0.0000 
     52 H          -5.2038  -13.5848   12.4426 H         1 NAD2        0.0000 
     53 H          -3.8748  -14.3475   13.3793 H         1 NAD2        0.0000 
     54 H          -8.5875  -13.0554   15.3424 H         1 NAD2        0.0000 
     55 H          -3.2174  -10.9502   25.1560 H         1 NAD2        0.0000 
     56 H          -3.4044  -11.6292   23.5300 H         1 NAD2        0.0000 
     57 H          -2.5929   -9.3410   23.3974 H         1 NAD2        0.0000 
     58 H          -1.3309  -11.3450   22.0849 H         1 NAD2        0.0000 
     59 H           0.2744  -11.6422   23.7397 H         1 NAD2        0.0000 
     60 H           0.4468   -8.6812   23.7358 H         1 NAD2        0.0000 
     61 H           0.5246  -11.5913   26.0809 H         1 NAD2        0.0000 
     62 H           0.4337  -12.8343   27.4636 H         1 NAD2        0.0000 
     63 H           1.2249  -13.8826   28.6886 H         1 NAD2        0.0000 
     64 H           3.9599  -10.2202   28.0523 H         1 NAD2        0.0000 
     65 H           4.0419   -8.2942   26.5900 H         1 NAD2        0.0000 
     66 H           2.3468   -8.0052   24.8756 H         1 NAD2        0.0000 
     67 H          -7.5633  -16.2227   20.7282 H         1 NAD2        0.0000 
     68 H          -7.0739  -17.4919   18.9185 H         1 NAD2        0.0000 
     69 H          -1.3444   -9.5915   20.8357 H         1 NAD2        0.0000 
     70 H           1.1242   -9.9736   21.6203 H         1 NAD2        0.0000 
@<TRIPOS>BOND
     1    2    1 ar   
     2    3    1 ar   
     3    4    1 1    
     4   23    1 1    
     5    5    4 1    
     6    6    5 1    
     7   45    5 1    
     8   46    5 1    
     9    7    6 1    
    10    8    6 1    
    11   47    6 1    
    12   12    7 1    
    13    9    8 1    
    14   10    8 1    
    15   48    8 1    
    16   67    9 1    
    17   11   10 1    
    18   12   10 1    
    19   49   10 1    
    20   68   11 1    
    21   13   12 1    
    22   50   12 1    
    23   14   13 1    
    24   22   13 1    
    25   15   14 2    
    26   51   14 1    
    27   16   15 1    
    28   17   16 ar   
    29   22   16 ar   
    30   18   17 1    
    31   19   17 ar   
    32   52   18 1    
    33   53   18 1    
    34   20   19 ar   
    35   21   20 ar   
    36   54   20 1    
    37   22   21 ar   
    38   24   23 1    
    39   25   24 ar   
    40   26   24 ar   
    41   27   24 1    
    42   28   27 1    
    43   29   28 1    
    44   55   28 1    
    45   56   28 1    
    46   30   29 1    
    47   31   29 1    
    48   57   29 1    
    49   35   30 1    
    50   32   31 1    
    51   33   31 1    
    52   58   31 1    
    53   69   32 1    
    54   34   33 1    
    55   35   33 1    
    56   59   33 1    
    57   70   34 1    
    58   36   35 1    
    59   60   35 1    
    60   37   36 ar   
    61   44   36 ar   
    62   38   37 ar   
    63   61   37 1    
    64   39   38 1    
    65   42   38 ar   
    66   40   39 2    
    67   41   39 am   
    68   62   41 1    
    69   63   41 1    
    70   43   42 ar   
    71   64   42 1    
    72   44   43 ar   
    73   65   43 1    
    74   66   44 1    
@<TRIPOS>SUBSTRUCTURE
     1 NAD2        1 GROUP   
@<TRIPOS>SET

