#    Name: 1uml_FR4_1_INTS_M
#    Modification time : Tue Mar 25 06:44:37 2014

@<TRIPOS>MOLECULE
1uml_FR4_1_INTS_M
   68     0     9     0     0
SMALL
NO_CHARGES


@<TRIPOS>ATOM
      1 N          51.7065   53.0380   24.1040 N.am      2 SEC2        0.0000 
      2 N          51.7790   53.7750   22.9620 N.am      8 SEL2        0.0000 
      3 N          51.6340   52.3010   25.2460 N.am      5 SEP2        0.0000 
      4 CA         53.4745   53.0670   22.4490 C.3       3 GLC5        0.0000 
      5 CA         51.7350   53.5200   21.5290 C.3       9 GLL5        0.0000 
      6 CA         55.2140   52.6140   23.3690 C.3       6 GLP5        0.0000 
      7 O          51.7700   50.6920   23.0955 O.2       1 ALC1        0.0000 
      8 O          51.7490   51.0960   21.6820 O.2       7 ALL1        0.0000 
      9 O          51.7910   50.2880   24.5090 O.2       4 ALP1        0.0000 
     10 N          54.7365   55.9815   22.7575 N.am      2 SEC2        0.0000 
     11 N          54.2510   57.2110   22.6660 N.am      8 SEL2        0.0000 
     12 N          55.2220   54.7520   22.8490 N.am      5 SEP2        0.0000 
     13 O          53.6310   57.3330   23.9055 O.2       1 ALC1        0.0000 
     14 O          54.2510   57.2110   22.6660 O.2       7 ALL1        0.0000 
     15 O          53.0110   57.4550   25.1450 O.2       4 ALP1        0.0000 
     16 O          53.0795   58.1425   23.4810 O.2       1 ALC1        0.0000 
     17 O          51.9080   59.0740   24.2960 O.2       4 ALP1        0.0000 
     18 CA         51.3480   58.3285   18.6480 C.3       3 GLC5        0.0000 
     19 CA         51.1060   57.6310   20.5640 C.3       9 GLL5        0.0000 
     20 CA         51.5900   59.0260   16.7320 C.3       6 GLP5        0.0000 
     21 CA         48.4130   56.1045   21.7565 C.3       3 GLC5        0.0000 
     22 CA         49.6510   57.1520   20.6020 C.3       9 GLL5        0.0000 
     23 CA         47.1750   55.0570   22.9110 C.3       6 GLP5        0.0000 
     24 CA         49.6825   59.9305   19.6300 C.3       3 GLC5        0.0000 
     25 CA         48.5480   58.4350   18.7040 C.3       9 GLL5        0.0000 
     26 CA         50.8170   61.4260   20.5560 C.3       6 GLP5        0.0000 
     27 CA         49.3965   48.3980   14.5885 C.3       3 GLC5        0.0000 
     28 CA         49.1790   49.2540   16.4430 C.3       9 GLL5        0.0000 
     29 CA         49.6140   47.5420   12.7340 C.3       6 GLP5        0.0000 
     30 CA         47.6050   46.9625   14.8230 C.3       3 GLC5        0.0000 
     31 CA         46.8090   48.4760   16.1420 C.3       9 GLL5        0.0000 
     32 CA         48.4010   45.4490   13.5040 C.3       6 GLP5        0.0000 
     33 CA         44.4750   49.4935   16.1395 C.3       3 GLC5        0.0000 
     34 CA         45.5800   48.0760   16.6460 C.3       9 GLL5        0.0000 
     35 CA         43.3700   50.9110   15.6330 C.3       6 GLP5        0.0000 
     36 CA         43.9590   49.3440   17.4660 C.3       3 GLC5        0.0000 
     37 CA         45.3560   48.0770   18.0230 C.3       9 GLL5        0.0000 
     38 CA         42.5620   50.6110   16.9090 C.3       6 GLP5        0.0000 
     39 CA         46.1310   46.2890   18.9810 C.3       3 GLC5        0.0000 
     40 CA         46.9060   44.5010   19.9390 C.3       6 GLP5        0.0000 
     41 CA         45.8295   50.3765   17.8005 C.3       3 GLC5        0.0000 
     42 CA         46.3550   48.5030   18.8860 C.3       9 GLL5        0.0000 
     43 CA         45.3040   52.2500   16.7150 C.3       6 GLP5        0.0000 
     44 CA         50.5978   59.4087   20.5695 C.3       3 GLC5        0.0000 
     45 CA         50.1150   55.9365   16.6145 C.3       3 GLC5        0.0000 
     46 CA         48.3220   56.7580   17.2020 C.3       9 GLL5        0.0000 
     47 CA         51.6100   55.3690   15.4310 C.3       6 GLP5        0.0000 
     48 CA         46.8370   55.4252   17.5862 C.3       3 GLC5        0.0000 
     49 CA         48.0750   55.9260   16.1420 C.3       9 GLL5        0.0000 
     50 CA         45.4280   55.5990   18.9820 C.3       6 GLP5        0.0000 
     51 CA         49.9280   55.3102   15.8108 C.3       3 GLC5        0.0000 
     52 CA         48.3890   54.6808   14.3342 C.3       3 GLC5        0.0000 
     53 CA         48.4170   54.5770   16.2390 C.3       9 GLL5        0.0000 
     54 CA         48.5320   54.1100   12.4780 C.3       6 GLP5        0.0000 
     55 CA         47.0100   53.2873   16.7692 C.3       3 GLC5        0.0000 
     56 CA         47.2820   55.0500   18.4640 C.3       3 GLC5        0.0000 
     57 CA         49.0150   54.0720   17.4080 C.3       9 GLL5        0.0000 
     58 CA         50.3730   54.9350   16.6885 C.3       3 GLC5        0.0000 
     59 CA         49.2570   54.9300   18.4840 C.3       9 GLL5        0.0000 
     60 CA         47.9368   47.3545   19.5535 C.3       3 GLC5        0.0000 
     61 CA         47.5840   48.9190   18.3820 C.3       9 GLL5        0.0000 
     62 CA         48.9040   45.9980   20.4730 C.3       6 GLP5        0.0000 
     63 CA         46.2796   50.4700   16.8167 C.3       3 GLC5        0.0000 
     64 CA         47.8190   48.8890   17.0080 C.3       9 GLL5        0.0000 
     65 CA         44.8062   49.5725   19.5812 C.3       3 GLC5        0.0000 
     66 CA         43.7570   50.8550   20.7080 C.3       6 GLP5        0.0000 
     67 CA         46.9489   56.5004   18.4548 C.3       3 GLC5        0.0000 
     68 CA         50.0299   58.2139   17.3298 C.3       3 GLC5        0.0000 
@<TRIPOS>BOND
@<TRIPOS>SUBSTRUCTURE
     1 ALC1        7 GROUP        1 X    ALC  0     ROOT ALC X 1
     2 SEC2        1 GROUP        1 X    SEC  0     **** SEC X 2
     3 GLC5        4 GROUP        1 X    GLC  0     **** GLC X 6
     4 ALP1        9 GROUP        1 Y    ALP  0     ROOT ALP Y 8
     5 SEP2        3 GROUP        1 Y    SEP  0     **** SEP Y 9
     6 GLP5        6 GROUP        1 Y    GLP  0     **** GLP Y 13
     7 ALL1        8 GROUP        1 Z    ALL  0     ROOT ALL Z 15
     8 SEL2        2 GROUP        1 Z    SEL  0     **** SEL Z 16
     9 GLL5        5 GROUP        1 Z    GLL  0     **** GLL Z 20
@<TRIPOS>SET

