#    Name: 1uml_FR4_1_ligand
#    Modification time : Tue Mar 25 06:44:37 2014

@<TRIPOS>MOLECULE
1uml_FR4_1_ligand
   60    63     1     0     0
SMALL
NO_CHARGES


@<TRIPOS>ATOM
      1 C1         51.8290   54.6770   20.8590 C.2       1 FR41001     0.0000 
      2 N2         51.8880   55.6880   21.9190 N.pl3     1 FR41001     0.0000 
      3 C3         51.8600   55.1000   23.1260 C.2       1 FR41001     0.0000 
      4 N4         51.7790   53.7750   22.9620 N.2       1 FR41001     0.0000 
      5 C5         51.7350   53.5200   21.5290 C.2       1 FR41001     0.0000 
      6 C8         51.6070   52.1810   20.9160 C.2       1 FR41001     0.0000 
      7 O9         51.3610   52.1210   19.7260 O.2       1 FR41001     0.0000 
      8 N10        51.7490   51.0960   21.6820 N.am      1 FR41001     0.0000 
      9 C13        51.9880   57.1300   21.7230 C.3       1 FR41001     0.0000 
     10 C14        53.4550   57.5680   21.5660 C.3       1 FR41001     0.0000 
     11 O15        54.2510   57.2110   22.6660 O.3       1 FR41001     0.0000 
     12 C18        51.1060   57.6310   20.5640 C.3       1 FR41001     0.0000 
     13 C19        49.6510   57.1520   20.6020 C.3       1 FR41001     0.0000 
     14 N22        49.0410   57.3030   19.2790 N.pl3     1 FR41001     0.0000 
     15 C27        48.5480   58.4350   18.7040 C.2       1 FR41001     0.0000 
     16 C28        48.0910   58.1640   17.4100 C.2       1 FR41001     0.0000 
     17 C29        48.3220   56.7580   17.2020 C.ar      1 FR41001     0.0000 
     18 C30        48.9180   56.2500   18.3940 C.ar      1 FR41001     0.0000 
     19 C31        48.0750   55.9260   16.1420 C.ar      1 FR41001     0.0000 
     20 C32        48.4170   54.5770   16.2390 C.ar      1 FR41001     0.0000 
     21 C33        49.0150   54.0720   17.4080 C.ar      1 FR41001     0.0000 
     22 C34        49.2570   54.9300   18.4840 C.ar      1 FR41001     0.0000 
     23 N1         49.3960   52.7740   17.5440 N.am      1 FR41001     0.0000 
     24 C2         49.1610   51.7710   16.6630 C.2       1 FR41001     0.0000 
     25 O1         48.5250   51.8600   15.6130 O.2       1 FR41001     0.0000 
     26 C4         49.8040   50.4740   17.1270 C.3       1 FR41001     0.0000 
     27 C6         49.1790   49.2540   16.4430 C.3       1 FR41001     0.0000 
     28 C7         47.5840   48.9190   18.3820 C.ar      1 FR41001     0.0000 
     29 C11        47.8190   48.8890   17.0080 C.ar      1 FR41001     0.0000 
     30 C9         46.8090   48.4760   16.1420 C.ar      1 FR41001     0.0000 
     31 C12        45.5800   48.0760   16.6460 C.ar      1 FR41001     0.0000 
     32 C10        45.3560   48.0770   18.0230 C.ar      1 FR41001     0.0000 
     33 C15        46.3550   48.5030   18.8860 C.ar      1 FR41001     0.0000 
     34 H          51.8558   54.8719   19.9644 H         1 FR41001     0.0000 
     35 H          51.8934   55.5651   23.9796 H         1 FR41001     0.0000 
     36 H          51.9218   51.2623   22.6528 H         1 FR41001     0.0000 
     37 H          51.6698   50.2148   21.2159 H         1 FR41001     0.0000 
     38 H          51.6127   57.6380   22.6446 H         1 FR41001     0.0000 
     39 H          53.4451   58.6660   21.3952 H         1 FR41001     0.0000 
     40 H          53.8239   57.1188   20.6189 H         1 FR41001     0.0000 
     41 H          51.5632   57.3109   19.6098 H         1 FR41001     0.0000 
     42 H          51.1188   58.7363   20.5641 H         1 FR41001     0.0000 
     43 H          49.1162   57.7431   21.3481 H         1 FR41001     0.0000 
     44 H          49.6436   56.1070   20.9182 H         1 FR41001     0.0000 
     45 H          48.5102   59.3094   19.1139 H         1 FR41001     0.0000 
     46 H          47.7177   58.7444   16.8008 H         1 FR41001     0.0000 
     47 H          47.6435   56.2802   15.2810 H         1 FR41001     0.0000 
     48 H          48.2323   53.9413   15.4511 H         1 FR41001     0.0000 
     49 H          49.6920   54.5530   19.3396 H         1 FR41001     0.0000 
     50 H          49.9405   52.5179   18.4450 H         1 FR41001     0.0000 
     51 H          49.6829   50.3751   18.2089 H         1 FR41001     0.0000 
     52 H          50.8734   50.4978   16.9021 H         1 FR41001     0.0000 
     53 H          49.8605   48.3990   16.5536 H         1 FR41001     0.0000 
     54 H          49.0827   49.4621   15.3683 H         1 FR41001     0.0000 
     55 H          48.3178   49.2480   19.0209 H         1 FR41001     0.0000 
     56 H          46.9775   48.4685   15.1266 H         1 FR41001     0.0000 
     57 H          44.8313   47.7779   16.0071 H         1 FR41001     0.0000 
     58 H          44.4511   47.7620   18.3939 H         1 FR41001     0.0000 
     59 H          46.1891   48.5123   19.9022 H         1 FR41001     0.0000 
     60 H          53.6687   57.3586   23.4654 H         1 FR41001     0.0000 
@<TRIPOS>BOND
     1    2    1 1    
     2    5    1 2    
     3   34    1 1    
     4    3    2 1    
     5    9    2 1    
     6    4    3 2    
     7   35    3 1    
     8    5    4 1    
     9    6    5 1    
    10    7    6 2    
    11    8    6 am   
    12   36    8 1    
    13   37    8 1    
    14   10    9 1    
    15   12    9 1    
    16   38    9 1    
    17   11   10 1    
    18   39   10 1    
    19   40   10 1    
    20   60   11 1    
    21   13   12 1    
    22   41   12 1    
    23   42   12 1    
    24   14   13 1    
    25   43   13 1    
    26   44   13 1    
    27   15   14 1    
    28   18   14 1    
    29   16   15 2    
    30   45   15 1    
    31   17   16 1    
    32   46   16 1    
    33   18   17 ar   
    34   19   17 ar   
    35   22   18 ar   
    36   20   19 ar   
    37   47   19 1    
    38   21   20 ar   
    39   48   20 1    
    40   22   21 ar   
    41   23   21 1    
    42   49   22 1    
    43   24   23 am   
    44   50   23 1    
    45   25   24 2    
    46   26   24 1    
    47   27   26 1    
    48   51   26 1    
    49   52   26 1    
    50   29   27 1    
    51   53   27 1    
    52   54   27 1    
    53   29   28 ar   
    54   33   28 ar   
    55   55   28 1    
    56   30   29 ar   
    57   31   30 ar   
    58   56   30 1    
    59   32   31 ar   
    60   57   31 1    
    61   33   32 ar   
    62   58   32 1    
    63   59   33 1    
@<TRIPOS>SUBSTRUCTURE
     1 FR41001     1 GROUP   
@<TRIPOS>SET

