#    Name: 2xd4_ADP_1_INTS_M
#    Modification time : Tue Mar 25 05:51:54 2014

@<TRIPOS>MOLECULE
2xd4_ADP_1_INTS_M
   62     0    15     0     0
SMALL
NO_CHARGES


@<TRIPOS>ATOM
      1 NZ         13.1785   42.6600   34.2650 N.4       3 LYC4        0.0000 
      2 NZ         13.0060   44.3910   34.7820 N.4      13 LYL4        0.0000 
      3 NZ         13.3510   40.9290   33.7480 N.4       8 LYP4        0.0000 
      4 Zn         14.0730   44.1590   34.1550 Zn        4 ZIC7        0.0000 
      5 Zn         13.0060   44.3910   34.7820 Zn       14 ZIL7        0.0000 
      6 Zn         15.1400   43.9270   33.5280 Zn        9 ZIP7        0.0000 
      7 NZ         12.8665   47.8000   36.1610 N.4       3 LYC4        0.0000 
      8 NZ         13.1800   46.1160   36.4350 N.4      13 LYL4        0.0000 
      9 NZ         12.5530   49.4840   35.8870 N.4       8 LYP4        0.0000 
     10 Zn         14.3385   46.4640   36.6765 Zn        4 ZIC7        0.0000 
     11 Zn         13.1800   46.1160   36.4350 Zn       14 ZIL7        0.0000 
     12 Zn         15.4970   46.8120   36.9180 Zn        9 ZIP7        0.0000 
     13 NZ         12.3905   48.7115   34.1120 N.4       3 LYC4        0.0000 
     14 NZ         12.2280   47.9390   32.3370 N.4      13 LYL4        0.0000 
     15 NZ         11.7560   49.3095   31.6460 N.4       3 LYC4        0.0000 
     16 NZ         11.2840   50.6800   30.9550 N.4       8 LYP4        0.0000 
     17 N          11.7560   49.3095   31.6460 N.am      2 SEC2        0.0000 
     18 N          12.2280   47.9390   32.3370 N.am     12 SEL2        0.0000 
     19 N          11.2840   50.6800   30.9550 N.am      7 SEP2        0.0000 
     20 N          12.2860   47.9805   35.0625 N.am      2 SEC2        0.0000 
     21 N          12.0190   46.4770   34.2380 N.am     12 SEL2        0.0000 
     22 N          12.5530   49.4840   35.8870 N.am      7 SEP2        0.0000 
     23 CA          9.3255   45.1055   32.7290 C.3       5 GLC5        0.0000 
     24 CA         11.0210   44.3030   32.0920 C.3      15 GLL5        0.0000 
     25 CA          7.6300   45.9080   33.3660 C.3      10 GLP5        0.0000 
     26 CA         12.9900   45.8840   29.5700 C.3       5 GLC5        0.0000 
     27 CA         12.2810   43.8740   29.9320 C.3      15 GLL5        0.0000 
     28 CA         13.6990   47.8940   29.2080 C.3      10 GLP5        0.0000 
     29 O          14.0825   43.3250   29.0960 O.2       1 ALC1        0.0000 
     30 O          13.3630   43.0320   30.2330 O.2      11 ALL1        0.0000 
     31 O          14.8020   43.6180   27.9590 O.2       6 ALP1        0.0000 
     32 O          12.8360   42.5920   27.0955 O.2       1 ALC1        0.0000 
     33 O          11.7760   42.4230   28.0500 O.2      11 ALL1        0.0000 
     34 O          13.8960   42.7610   26.1410 O.2       6 ALP1        0.0000 
     35 CA          8.2450   44.5015   28.0595 C.3       5 GLC5        0.0000 
     36 CA         10.3890   44.4270   28.5470 C.3      15 GLL5        0.0000 
     37 CA          6.1010   44.5760   27.5720 C.3      10 GLP5        0.0000 
     38 O           9.9270   50.7605   27.2695 O.2       1 ALC1        0.0000 
     39 O           9.6070   49.9400   26.0820 O.2      11 ALL1        0.0000 
     40 O          10.2470   51.5810   28.4570 O.2       6 ALP1        0.0000 
     41 O           8.8985   50.8525   25.1890 O.2       1 ALC1        0.0000 
     42 O           8.1900   51.7650   24.2960 O.2       6 ALP1        0.0000 
     43 N           9.3065   48.6745   23.4760 N.am      2 SEC2        0.0000 
     44 N           9.4440   48.0960   24.8570 N.am     12 SEL2        0.0000 
     45 N           9.1690   49.2530   22.0950 N.am      7 SEP2        0.0000 
     46 CA          7.8330   47.8735   25.6545 C.3       5 GLC5        0.0000 
     47 CA          9.4930   46.7410   24.7760 C.3      15 GLL5        0.0000 
     48 CA          6.1730   49.0060   26.5330 C.3      10 GLP5        0.0000 
     49 CA          9.8990   47.9130   22.9880 C.3       5 GLC5        0.0000 
     50 CA         10.3050   49.0850   21.2000 C.3      10 GLP5        0.0000 
     51 CA         11.0910   46.4215   24.0970 C.3       5 GLC5        0.0000 
     52 CA         12.6890   46.1020   23.4180 C.3      10 GLP5        0.0000 
     53 CA          8.0340   45.5550   27.2915 C.3       5 GLC5        0.0000 
     54 CA          9.9670   46.5340   27.0110 C.3      15 GLL5        0.0000 
     55 CA         12.8881   42.5221   31.5772 C.3       5 GLC5        0.0000 
     56 CA         11.0420   43.6580   30.7460 C.3      15 GLL5        0.0000 
     57 CA         14.1200   41.1170   32.4790 C.3      10 GLP5        0.0000 
     58 CA          7.9912   48.6510   26.5993 C.3       5 GLC5        0.0000 
     59 CA          9.9460   47.8990   27.2310 C.3      15 GLL5        0.0000 
     60 CA         11.7281   47.9430   26.5451 C.3       5 GLC5        0.0000 
     61 CA          9.6730   48.6930   26.1000 C.3      15 GLL5        0.0000 
     62 CA         13.5680   48.4710   26.2520 C.3      10 GLP5        0.0000 
@<TRIPOS>BOND
@<TRIPOS>SUBSTRUCTURE
     1 ALC1       29 GROUP        1 X    ALC  0     ROOT ALC X 1
     2 SEC2       17 GROUP        1 X    SEC  0     **** SEC X 2
     3 LYC4        1 GROUP        1 X    LYC  0     **** LYC X 4
     4 ZIC7        4 GROUP        1 X    ZIC  0     **** ZIC X 5
     5 GLC5       23 GROUP        1 X    GLC  0     **** GLC X 6
     6 ALP1       31 GROUP        1 Y    ALP  0     ROOT ALP Y 8
     7 SEP2       19 GROUP        1 Y    SEP  0     **** SEP Y 9
     8 LYP4        3 GROUP        1 Y    LYP  0     **** LYP Y 11
     9 ZIP7        6 GROUP        1 Y    ZIP  0     **** ZIP Y 12
    10 GLP5       25 GROUP        1 Y    GLP  0     **** GLP Y 13
    11 ALL1       30 GROUP        1 Z    ALL  0     ROOT ALL Z 15
    12 SEL2       18 GROUP        1 Z    SEL  0     **** SEL Z 16
    13 LYL4        2 GROUP        1 Z    LYL  0     **** LYL Z 18
    14 ZIL7        5 GROUP        1 Z    ZIL  0     **** ZIL Z 19
    15 GLL5       24 GROUP        1 Z    GLL  0     **** GLL Z 20
@<TRIPOS>SET

