#    Name: 2xd4_ADP_1_ligand
#    Modification time : Tue Mar 25 05:51:54 2014

@<TRIPOS>MOLECULE
2xd4_ADP_1_ligand
   39    41     1     0     0
SMALL
NO_CHARGES


@<TRIPOS>ATOM
      1 PB         12.3090   45.4410   35.4400 P.3       1 ADP461      0.0000 
      2 O1B        11.0660   45.0470   36.0600 O.co2     1 ADP461      0.0000 
      3 O2B        13.0060   44.3910   34.7820 O.co2     1 ADP461      0.0000 
      4 O3B        13.1800   46.1160   36.4350 O.co2     1 ADP461      0.0000 
      5 PA         12.3510   46.5380   32.6750 P.3       1 ADP461      0.0000 
      6 O1A        12.2280   47.9390   32.3370 O.co2     1 ADP461      0.0000 
      7 O2A        13.6310   45.9950   32.2920 O.co2     1 ADP461      0.0000 
      8 O3A        12.0190   46.4770   34.2380 O.3       1 ADP461      0.0000 
      9 O5'        11.1900   45.7200   32.0110 O.3       1 ADP461      0.0000 
     10 C5'        11.0210   44.3030   32.0920 C.3       1 ADP461      0.0000 
     11 C4'        11.0420   43.6580   30.7460 C.3       1 ADP461      0.0000 
     12 O4'         9.9900   44.2150   29.8730 O.3       1 ADP461      0.0000 
     13 C3'        12.2810   43.8740   29.9320 C.3       1 ADP461      0.0000 
     14 O3'        13.3630   43.0320   30.2330 O.3       1 ADP461      0.0000 
     15 C2'        11.7900   43.7550   28.4670 C.3       1 ADP461      0.0000 
     16 O2'        11.7760   42.4230   28.0500 O.3       1 ADP461      0.0000 
     17 C1'        10.3890   44.4270   28.5470 C.3       1 ADP461      0.0000 
     18 N9         10.2560   45.8920   28.2510 N.pl3     1 ADP461      0.0000 
     19 C8         10.3800   46.9670   29.1080 C.2       1 ADP461      0.0000 
     20 N7         10.2100   48.1500   28.5640 N.2       1 ADP461      0.0000 
     21 C5          9.9460   47.8990   27.2310 C.ar      1 ADP461      0.0000 
     22 C6          9.6730   48.6930   26.1000 C.ar      1 ADP461      0.0000 
     23 N6          9.6070   49.9400   26.0820 N.pl3     1 ADP461      0.0000 
     24 N1          9.4440   48.0960   24.8570 N.ar      1 ADP461      0.0000 
     25 C2          9.4930   46.7410   24.7760 C.ar      1 ADP461      0.0000 
     26 N3          9.7440   45.9170   25.7910 N.ar      1 ADP461      0.0000 
     27 C4          9.9670   46.5340   27.0110 C.ar      1 ADP461      0.0000 
     28 H          10.0623   44.0466   32.5873 H         1 ADP461      0.0000 
     29 H          11.8183   43.8443   32.7117 H         1 ADP461      0.0000 
     30 H          10.8708   42.5915   30.8265 H         1 ADP461      0.0000 
     31 H          12.5453   44.9470   30.0471 H         1 ADP461      0.0000 
     32 H          12.4152   44.4067   27.8889 H         1 ADP461      0.0000 
     33 H           9.7252   43.8559   27.8886 H         1 ADP461      0.0000 
     34 H          10.5895   46.8176   30.0889 H         1 ADP461      0.0000 
     35 H           9.3619   50.3551   25.2058 H         1 ADP461      0.0000 
     36 H           9.8056   50.4037   26.9455 H         1 ADP461      0.0000 
     37 H           9.3120   46.3066   23.8034 H         1 ADP461      0.0000 
     38 H          14.0038   43.1533   29.4750 H         1 ADP461      0.0000 
     39 H          12.4663   42.3706   27.3284 H         1 ADP461      0.0000 
@<TRIPOS>BOND
     1    2    1 ar   
     2    3    1 ar   
     3    4    1 ar   
     4    8    1 1    
     5    6    5 ar   
     6    7    5 ar   
     7    8    5 1    
     8    9    5 1    
     9   10    9 1    
    10   11   10 1    
    11   28   10 1    
    12   29   10 1    
    13   12   11 1    
    14   13   11 1    
    15   30   11 1    
    16   17   12 1    
    17   14   13 1    
    18   15   13 1    
    19   31   13 1    
    20   38   14 1    
    21   16   15 1    
    22   17   15 1    
    23   32   15 1    
    24   39   16 1    
    25   18   17 1    
    26   33   17 1    
    27   19   18 1    
    28   27   18 1    
    29   20   19 2    
    30   34   19 1    
    31   21   20 1    
    32   22   21 ar   
    33   27   21 ar   
    34   23   22 1    
    35   24   22 ar   
    36   35   23 1    
    37   36   23 1    
    38   25   24 ar   
    39   26   25 ar   
    40   37   25 1    
    41   27   26 ar   
@<TRIPOS>SUBSTRUCTURE
     1 ADP461      1 GROUP   
@<TRIPOS>SET

