#    Name: 2fdp_FRP_1_INTS_M
#    Modification time : Tue Mar 25 12:28:14 2014

@<TRIPOS>MOLECULE
2fdp_FRP_1_INTS_M
   99     0    12     0     0
SMALL
NO_CHARGES


@<TRIPOS>ATOM
      1 CA         13.4350   -5.6840   51.5275 C.3       4 GLC5        0.0000 
      2 CA         14.7320   -6.6620   50.3870 C.3      12 GLL5        0.0000 
      3 CA         12.1380   -4.7060   52.6680 C.3       8 GLP5        0.0000 
      4 CA         14.5505   -8.6230   53.0545 C.3       4 GLC5        0.0000 
      5 CA         15.0760   -7.8620   51.0100 C.3      12 GLL5        0.0000 
      6 CA         14.0250   -9.3840   55.0990 C.3       8 GLP5        0.0000 
      7 CA          8.7460   -2.8470   45.6660 C.3       4 GLC5        0.0000 
      8 CA          8.9240   -3.7690   47.6910 C.3      12 GLL5        0.0000 
      9 CA          8.5680   -1.9250   43.6410 C.3       8 GLP5        0.0000 
     10 CA         11.7985    0.7350   51.0480 C.3       4 GLC5        0.0000 
     11 CA         10.0910    1.5610   50.2340 C.3      12 GLL5        0.0000 
     12 CA         13.5060   -0.0910   51.8620 C.3       8 GLP5        0.0000 
     13 CA         15.6950  -11.5510   51.5420 C.3       4 GLC5        0.0000 
     14 CA         15.9740  -10.0530   50.8790 C.3      12 GLL5        0.0000 
     15 CA         15.4160  -13.0490   52.2050 C.3       8 GLP5        0.0000 
     16 O          14.7385   -5.5535   46.9885 O.2       1 ALC1        0.0000 
     17 O          14.6460   -5.3450   48.3450 O.2       9 ALL1        0.0000 
     18 O          14.8310   -5.7620   45.6320 O.2       5 ALP1        0.0000 
     19 N          13.3060   -3.2100   51.2545 N.am      2 SEC2        0.0000 
     20 N          13.7960   -4.0460   49.9960 N.am     10 SEL2        0.0000 
     21 N          12.8160   -2.3740   52.5130 N.am      6 SEP2        0.0000 
     22 CA         13.8925   -3.9685   45.7375 C.3       4 GLC5        0.0000 
     23 CA         13.8940   -3.1290   47.8200 C.3      12 GLL5        0.0000 
     24 CA         13.8910   -4.8080   43.6550 C.3       8 GLP5        0.0000 
     25 CA         16.5470   -3.5465   47.1915 C.3       4 GLC5        0.0000 
     26 CA         15.0500   -2.1360   47.9100 C.3      12 GLL5        0.0000 
     27 CA         18.0440   -4.9570   46.4730 C.3       8 GLP5        0.0000 
     28 CA         15.9645   -1.6850   46.1510 C.3       4 GLC5        0.0000 
     29 CA         16.8790   -1.2340   44.3920 C.3       8 GLP5        0.0000 
     30 OD1        10.7955   -3.5475   45.0320 O.co2     3 ASC3        0.0000 
     31 OD1        11.1000   -2.6300   46.0980 O.co2    11 ASL3        0.0000 
     32 OD1        10.4910   -4.4650   43.9660 O.co2     7 ASP3        0.0000 
     33 OD1        10.7075   -4.3040   45.7820 O.co2     3 ASC3        0.0000 
     34 OD1        10.3150   -5.9780   45.4660 O.co2     7 ASP3        0.0000 
     35 OD1        11.4840   -2.3875   44.7235 O.co2     3 ASC3        0.0000 
     36 OD1        11.8680   -2.1450   43.3490 O.co2     7 ASP3        0.0000 
     37 OD1        12.0465   -1.9250   45.5115 O.co2     3 ASC3        0.0000 
     38 OD1        12.9930   -1.2200   44.9250 O.co2     7 ASP3        0.0000 
     39 O          10.7955   -3.5475   45.0320 O.2       1 ALC1        0.0000 
     40 O          11.1000   -2.6300   46.0980 O.2       9 ALL1        0.0000 
     41 O          10.4910   -4.4650   43.9660 O.2       5 ALP1        0.0000 
     42 O          10.7075   -4.3040   45.7820 O.2       1 ALC1        0.0000 
     43 O          10.3150   -5.9780   45.4660 O.2       5 ALP1        0.0000 
     44 O          12.0465   -1.9250   45.5115 O.2       1 ALC1        0.0000 
     45 O          12.9930   -1.2200   44.9250 O.2       5 ALP1        0.0000 
     46 O           9.9480   -1.7890   45.9530 O.2       1 ALC1        0.0000 
     47 O           8.7960   -0.9480   45.8080 O.2       5 ALP1        0.0000 
     48 O          11.2690   -0.9960   46.0045 O.2       1 ALC1        0.0000 
     49 O          11.4380    0.6380   45.9110 O.2       5 ALP1        0.0000 
     50 CA          9.1970   -3.9140   50.8080 C.3       4 GLC5        0.0000 
     51 CA          7.5180   -3.3590   49.7830 C.3      12 GLL5        0.0000 
     52 CA         10.8760   -4.4690   51.8330 C.3       8 GLP5        0.0000 
     53 O           9.2540   -1.2870   47.1105 O.2       1 ALC1        0.0000 
     54 O           9.7120   -1.6260   48.4130 O.2       9 ALL1        0.0000 
     55 N          10.6885   -1.0145   51.9215 N.am      2 SEC2        0.0000 
     56 N          10.6000   -1.2740   50.4470 N.am     10 SEL2        0.0000 
     57 N          10.7770   -0.7550   53.3960 N.am      6 SEP2        0.0000 
     58 N           7.4890    3.3105   45.6840 N.am      2 SEC2        0.0000 
     59 N           6.7850    3.0060   46.8190 N.am     10 SEL2        0.0000 
     60 N           8.1930    3.6150   44.5490 N.am      6 SEP2        0.0000 
     61 N           6.0775    3.6585   45.7535 N.am      2 SEC2        0.0000 
     62 N           5.3700    4.3110   44.6880 N.am      6 SEP2        0.0000 
     63 CA          5.5767   -4.0717   46.1208 C.3       4 GLC5        0.0000 
     64 CA          6.4360   -3.4430   47.6330 C.3      12 GLL5        0.0000 
     65 CA          5.3340   -4.8150   44.3030 C.3       8 GLP5        0.0000 
     66 CA         14.0301   -8.0576   47.6089 C.3       4 GLC5        0.0000 
     67 CA         14.9530   -6.4920   49.0190 C.3      12 GLL5        0.0000 
     68 CA         12.5070   -8.2390   46.4350 C.3       8 GLP5        0.0000 
     69 CA         16.6298   -8.4680   47.0645 C.3       4 GLC5        0.0000 
     70 CA         15.5220   -7.5390   48.2920 C.3      12 GLL5        0.0000 
     71 CA         17.5640   -8.7980   45.5280 C.3       8 GLP5        0.0000 
     72 CA         10.3721   -4.8048   48.8750 C.3       4 GLC5        0.0000 
     73 CA         11.3700   -3.1390   47.4280 C.3      12 GLL5        0.0000 
     74 CA         10.9100   -6.1830   49.9700 C.3       8 GLP5        0.0000 
     75 CA          7.5336   -5.3483   47.3328 C.3       4 GLC5        0.0000 
     76 CA          7.0960   -7.0730   46.8130 C.3       8 GLP5        0.0000 
     77 CA          3.4650    0.2198   44.4778 C.3       4 GLC5        0.0000 
     78 CA          4.9770    0.6060   45.3410 C.3      12 GLL5        0.0000 
     79 CA          2.4120   -0.2390   43.0170 C.3       8 GLP5        0.0000 
     80 CA          2.9422    0.5707   49.3740 C.3       4 GLC5        0.0000 
     81 CA          5.1400    1.0810   49.3640 C.3      12 GLL5        0.0000 
     82 CA          1.2360   -0.3490   48.9650 C.3       8 GLP5        0.0000 
     83 CA          2.3440    1.6305   46.2445 C.3       4 GLC5        0.0000 
     84 CA          4.2710    2.0730   47.2780 C.3      12 GLL5        0.0000 
     85 CA          0.5230    1.8490   45.5820 C.3       8 GLP5        0.0000 
     86 CA          2.7005    0.5315   47.9360 C.3       4 GLC5        0.0000 
     87 CA          4.0590    0.7510   46.5360 C.3      12 GLL5        0.0000 
     88 CA          8.7875    1.5353   46.7562 C.3       4 GLC5        0.0000 
     89 CA          7.8260    2.1370   48.7070 C.3      12 GLL5        0.0000 
     90 CA          9.4840    1.5760   44.7960 C.3       8 GLP5        0.0000 
     91 CA         10.4830    1.9943   47.9763 C.3       4 GLC5        0.0000 
     92 CA         11.1800    2.9310   46.0940 C.3       8 GLP5        0.0000 
     93 CA         10.0922    2.9680   47.9592 C.3       4 GLC5        0.0000 
     94 CA          9.5700    2.8580   50.2080 C.3      12 GLL5        0.0000 
     95 CA          9.2900    1.3894   51.8021 C.3       4 GLC5        0.0000 
     96 CA          8.9020    0.8210   53.5710 C.3       8 GLP5        0.0000 
     97 CA         13.7893   -9.5849   51.2146 C.3       4 GLC5        0.0000 
     98 CA         15.6420   -8.8990   50.2730 C.3      12 GLL5        0.0000 
     99 CA         11.9120   -9.9530   51.6690 C.3       8 GLP5        0.0000 
@<TRIPOS>BOND
@<TRIPOS>SUBSTRUCTURE
     1 ALC1       16 GROUP        1 X    ALC  0     ROOT ALC X 1
     2 SEC2       19 GROUP        1 X    SEC  0     **** SEC X 2
     3 ASC3       30 GROUP        1 X    ASC  0     **** ASC X 3
     4 GLC5        1 GROUP        1 X    GLC  0     **** GLC X 6
     5 ALP1       18 GROUP        1 Y    ALP  0     ROOT ALP Y 8
     6 SEP2       21 GROUP        1 Y    SEP  0     **** SEP Y 9
     7 ASP3       32 GROUP        1 Y    ASP  0     **** ASP Y 10
     8 GLP5        3 GROUP        1 Y    GLP  0     **** GLP Y 13
     9 ALL1       17 GROUP        1 Z    ALL  0     ROOT ALL Z 15
    10 SEL2       20 GROUP        1 Z    SEL  0     **** SEL Z 16
    11 ASL3       31 GROUP        1 Z    ASL  0     **** ASL Z 17
    12 GLL5        2 GROUP        1 Z    GLL  0     **** GLL Z 20
@<TRIPOS>SET

