#    Name: 2fdp_FRP_1_ligand
#    Modification time : Tue Mar 25 12:28:14 2014

@<TRIPOS>MOLECULE
2fdp_FRP_1_ligand
   83    85     1     0     0
SMALL
NO_CHARGES


@<TRIPOS>ATOM
      1 C31         6.4360   -3.4430   47.6330 C.ar      1 FRP386      0.0000 
      2 C30         5.2030   -3.2140   48.2440 C.ar      1 FRP386      0.0000 
      3 C28         6.2860   -3.1240   50.3960 C.ar      1 FRP386      0.0000 
      4 C27        14.7320   -6.6620   50.3870 C.ar      1 FRP386      0.0000 
      5 C26        14.9530   -6.4920   49.0190 C.ar      1 FRP386      0.0000 
      6 C24        15.8690   -8.7370   48.9100 C.ar      1 FRP386      0.0000 
      7 C23        15.6420   -8.8990   50.2730 C.ar      1 FRP386      0.0000 
      8 C22        15.0760   -7.8620   51.0100 C.ar      1 FRP386      0.0000 
      9 C16        11.3700   -3.1390   47.4280 C.3       1 FRP386      0.0000 
     10 C17         8.9240   -3.7690   47.6910 C.3       1 FRP386      0.0000 
     11 C20        14.1040   -4.2230   48.8310 C.2       1 FRP386      0.0000 
     12 C15        10.1190   -3.0290   48.3100 C.3       1 FRP386      0.0000 
     13 C12         9.9800   -0.8610   49.4780 C.2       1 FRP386      0.0000 
     14 C13         4.8430    3.0000   50.9840 C.3       1 FRP386      0.0000 
     15 C14         4.9770    0.6060   45.3410 C.3       1 FRP386      0.0000 
     16 C11         4.1570    1.9000   50.2020 C.3       1 FRP386      0.0000 
     17 C10         4.0590    0.7510   46.5360 C.3       1 FRP386      0.0000 
     18 C9          4.2710    2.0730   47.2780 C.3       1 FRP386      0.0000 
     19 C8          5.1400    1.0810   49.3640 C.3       1 FRP386      0.0000 
     20 C7          6.6200    2.3680   47.8440 C.2       1 FRP386      0.0000 
     21 C4          8.3560    0.8520   48.7260 C.ar      1 FRP386      0.0000 
     22 C5          9.4810    0.5540   49.4830 C.ar      1 FRP386      0.0000 
     23 C6         10.0910    1.5610   50.2340 C.ar      1 FRP386      0.0000 
     24 C3          7.8260    2.1370   48.7070 C.ar      1 FRP386      0.0000 
     25 C2          8.4390    3.1520   49.4410 C.ar      1 FRP386      0.0000 
     26 C1          9.5700    2.8580   50.2080 C.ar      1 FRP386      0.0000 
     27 F1         15.9740  -10.0530   50.8790 F         1 FRP386      0.0000 
     28 C25        15.5220   -7.5390   48.2920 C.ar      1 FRP386      0.0000 
     29 N3         14.6460   -5.3450   48.3450 N.am      1 FRP386      0.0000 
     30 O3         13.7960   -4.0460   49.9960 O.2       1 FRP386      0.0000 
     31 C19        13.8940   -3.1290   47.8200 C.3       1 FRP386      0.0000 
     32 C21        15.0500   -2.1360   47.9100 C.3       1 FRP386      0.0000 
     33 C18        12.5660   -2.4110   48.0430 C.3       1 FRP386      0.0000 
     34 N4         11.1000   -2.6300   46.0980 N.4       1 FRP386      0.0000 
     35 C32         7.6010   -3.5130   48.3950 C.ar      1 FRP386      0.0000 
     36 C33         7.5180   -3.3590   49.7830 C.ar      1 FRP386      0.0000 
     37 C29         5.1250   -3.0530   49.6270 C.ar      1 FRP386      0.0000 
     38 N2          9.7120   -1.6260   48.4130 N.am      1 FRP386      0.0000 
     39 O2         10.6000   -1.2740   50.4470 O.2       1 FRP386      0.0000 
     40 O1          6.7850    3.0060   46.8190 O.2       1 FRP386      0.0000 
     41 N1          5.4190    1.8610   48.1560 N.am      1 FRP386      0.0000 
     42 H           6.4854   -3.5612   46.6105 H         1 FRP386      0.0000 
     43 H           4.3495   -3.1638   47.6729 H         1 FRP386      0.0000 
     44 H           6.2354   -3.0033   51.4149 H         1 FRP386      0.0000 
     45 H          14.3144   -5.9002   50.9367 H         1 FRP386      0.0000 
     46 H          16.2896   -9.4958   48.3634 H         1 FRP386      0.0000 
     47 H          14.9102   -7.9801   52.0189 H         1 FRP386      0.0000 
     48 H          11.6314   -4.2036   47.3654 H         1 FRP386      0.0000 
     49 H           9.1369   -4.8514   47.7014 H         1 FRP386      0.0000 
     50 H           8.8354   -3.4705   46.6326 H         1 FRP386      0.0000 
     51 H          10.3149   -3.4341   49.2706 H         1 FRP386      0.0000 
     52 H           3.4048    2.3399   49.5360 H         1 FRP386      0.0000 
     53 H           3.6376    1.2279   50.8959 H         1 FRP386      0.0000 
     54 H           4.2329   -0.0775   47.2333 H         1 FRP386      0.0000 
     55 H           3.0151    0.6955   46.2040 H         1 FRP386      0.0000 
     56 H           3.3814    2.2958   47.8415 H         1 FRP386      0.0000 
     57 H           4.4677    2.8444   46.5536 H         1 FRP386      0.0000 
     58 H           4.6797    0.1355   49.1206 H         1 FRP386      0.0000 
     59 H           6.0373    0.9235   49.9429 H         1 FRP386      0.0000 
     60 H           7.9043    0.1064   48.1669 H         1 FRP386      0.0000 
     61 H          10.9171    1.3508   50.8020 H         1 FRP386      0.0000 
     62 H           8.0655    4.1035   49.4193 H         1 FRP386      0.0000 
     63 H          10.0223    3.6014   50.7573 H         1 FRP386      0.0000 
     64 H          15.6878   -7.4210   47.2776 H         1 FRP386      0.0000 
     65 H          14.8764   -5.3551   47.2722 H         1 FRP386      0.0000 
     66 H          13.8954   -3.5578   46.8273 H         1 FRP386      0.0000 
     67 H          12.3967   -2.2969   49.1240 H         1 FRP386      0.0000 
     68 H          12.6278   -1.4002   47.6132 H         1 FRP386      0.0000 
     69 H           8.3715   -3.4196   50.3547 H         1 FRP386      0.0000 
     70 H           4.2197   -2.8835   50.0755 H         1 FRP386      0.0000 
     71 H           9.1878   -1.2508   47.5853 H         1 FRP386      0.0000 
     72 H           5.5253    2.6352   51.6176 H         1 FRP386      0.0000 
     73 H           5.3161    3.6437   50.3825 H         1 FRP386      0.0000 
     74 H           4.1924    3.5306   51.5274 H         1 FRP386      0.0000 
     75 H           5.9405    0.6390   45.6067 H         1 FRP386      0.0000 
     76 H           4.8336   -0.2620   44.8657 H         1 FRP386      0.0000 
     77 H           4.8326    1.3343   44.6712 H         1 FRP386      0.0000 
     78 H          15.9300   -2.5725   47.7226 H         1 FRP386      0.0000 
     79 H          14.9486   -1.3876   47.2546 H         1 FRP386      0.0000 
     80 H          15.1151   -1.7232   48.8185 H         1 FRP386      0.0000 
     81 H          11.2338   -3.3312   45.3977 H         1 FRP386      0.0000 
     82 H          10.1591   -2.3030   46.0094 H         1 FRP386      0.0000 
     83 H          11.6995   -1.8644   45.8645 H         1 FRP386      0.0000 
@<TRIPOS>BOND
     1    2    1 ar   
     2   35    1 ar   
     3   42    1 1    
     4   37    2 ar   
     5   43    2 1    
     6   36    3 ar   
     7   37    3 ar   
     8   44    3 1    
     9    5    4 ar   
    10    8    4 ar   
    11   45    4 1    
    12   28    5 ar   
    13   29    5 1    
    14    7    6 ar   
    15   28    6 ar   
    16   46    6 1    
    17    8    7 ar   
    18   27    7 1    
    19   47    8 1    
    20   12    9 1    
    21   33    9 1    
    22   34    9 1    
    23   48    9 1    
    24   12   10 1    
    25   35   10 1    
    26   49   10 1    
    27   50   10 1    
    28   29   11 am   
    29   30   11 2    
    30   31   11 1    
    31   38   12 1    
    32   51   12 1    
    33   22   13 1    
    34   38   13 am   
    35   39   13 2    
    36   16   14 1    
    37   72   14 1    
    38   73   14 1    
    39   74   14 1    
    40   17   15 1    
    41   75   15 1    
    42   76   15 1    
    43   77   15 1    
    44   19   16 1    
    45   52   16 1    
    46   53   16 1    
    47   18   17 1    
    48   54   17 1    
    49   55   17 1    
    50   41   18 1    
    51   56   18 1    
    52   57   18 1    
    53   41   19 1    
    54   58   19 1    
    55   59   19 1    
    56   24   20 1    
    57   40   20 2    
    58   41   20 am   
    59   22   21 ar   
    60   24   21 ar   
    61   60   21 1    
    62   23   22 ar   
    63   26   23 ar   
    64   61   23 1    
    65   25   24 ar   
    66   26   25 ar   
    67   62   25 1    
    68   63   26 1    
    69   64   28 1    
    70   65   29 1    
    71   32   31 1    
    72   33   31 1    
    73   66   31 1    
    74   78   32 1    
    75   79   32 1    
    76   80   32 1    
    77   67   33 1    
    78   68   33 1    
    79   81   34 1    
    80   82   34 1    
    81   83   34 1    
    82   36   35 ar   
    83   69   36 1    
    84   70   37 1    
    85   71   38 1    
@<TRIPOS>SUBSTRUCTURE
     1 FRP386      1 GROUP   
@<TRIPOS>SET

