#    Name: 4g1d_0VK_1_INTS_M
#    Modification time : Mon Mar 24 21:09:55 2014

@<TRIPOS>MOLECULE
4g1d_0VK_1_INTS_M
  125     0     9     0     0
SMALL
NO_CHARGES


@<TRIPOS>ATOM
      1 CA          4.2115   39.4600   36.7165 C.3       3 GLC5        0.0000 
      2 CA          2.3480   39.2370   37.7720 C.3       9 GLL5        0.0000 
      3 CA          6.0750   39.6830   35.6610 C.3       6 GLP5        0.0000 
      4 CA          0.7550   43.9120   40.0390 C.3       3 GLC5        0.0000 
      5 CA          0.0610   42.1210   39.2350 C.3       9 GLL5        0.0000 
      6 CA          1.4490   45.7030   40.8430 C.3       6 GLP5        0.0000 
      7 CA         -0.9240   43.6770   38.6270 C.3       3 GLC5        0.0000 
      8 CA         -1.9090   45.2330   38.0190 C.3       6 GLP5        0.0000 
      9 CA         -1.3805   42.6010   40.3330 C.3       3 GLC5        0.0000 
     10 CA         -2.8220   43.0810   41.4310 C.3       6 GLP5        0.0000 
     11 N          -1.2220   41.9750   40.8035 N.am      2 SEC2        0.0000 
     12 N           0.3360   42.2050   40.6450 N.am      8 SEL2        0.0000 
     13 N          -2.7800   41.7450   40.9620 N.am      5 SEP2        0.0000 
     14 O           0.3370   43.5625   40.8575 O.2       1 ALC1        0.0000 
     15 O           0.3360   42.2050   40.6450 O.2       7 ALL1        0.0000 
     16 O           0.3380   44.9200   41.0700 O.2       4 ALP1        0.0000 
     17 CA          2.9225   43.3110   39.6190 C.3       3 GLC5        0.0000 
     18 CA          3.1410   41.5080   38.3970 C.3       9 GLL5        0.0000 
     19 CA          2.7040   45.1140   40.8410 C.3       6 GLP5        0.0000 
     20 CA          4.6080   40.5955   37.0290 C.3       3 GLC5        0.0000 
     21 CA          4.3965   41.3320   39.7410 C.3       3 GLC5        0.0000 
     22 CA          5.6520   41.1560   41.0850 C.3       6 GLP5        0.0000 
     23 CA          2.3965   40.7310   40.2850 C.3       3 GLC5        0.0000 
     24 CA          1.6520   39.9540   42.1730 C.3       6 GLP5        0.0000 
     25 N           5.1760   42.0550   38.0300 N.am      2 SEC2        0.0000 
     26 N           4.3930   40.9380   37.9450 N.am      8 SEL2        0.0000 
     27 N           5.9590   43.1720   38.1150 N.am      5 SEP2        0.0000 
     28 O           4.5415   40.4095   36.7170 O.2       1 ALC1        0.0000 
     29 O           4.3930   40.9380   37.9450 O.2       7 ALL1        0.0000 
     30 O           4.6900   39.8810   35.4890 O.2       4 ALP1        0.0000 
     31 CA          0.6675   37.7855   40.2090 C.3       3 GLC5        0.0000 
     32 CA         -0.1400   37.0320   38.8010 C.3       9 GLL5        0.0000 
     33 CA          1.4750   38.5390   41.6170 C.3       6 GLP5        0.0000 
     34 CA         -1.2725   37.6450   40.2495 C.3       3 GLC5        0.0000 
     35 CA         -2.4050   38.2580   41.6980 C.3       6 GLP5        0.0000 
     36 CA          2.2720   34.1950   35.6165 C.3       3 GLC5        0.0000 
     37 CA          0.6760   33.9270   36.9340 C.3       9 GLL5        0.0000 
     38 CA          3.8680   34.4630   34.2990 C.3       6 GLP5        0.0000 
     39 CA         -2.7895   33.0095   38.3195 C.3       3 GLC5        0.0000 
     40 CA         -0.9770   33.9790   38.8760 C.3       9 GLL5        0.0000 
     41 CA         -4.6020   32.0400   37.7630 C.3       6 GLP5        0.0000 
     42 CA         -1.5550   30.0910   38.0685 C.3       3 GLC5        0.0000 
     43 CA          0.0530   30.1660   38.3260 C.3       9 GLL5        0.0000 
     44 CA         -3.1630   30.0160   37.8110 C.3       6 GLP5        0.0000 
     45 CA          0.9340   28.7330   37.1895 C.3       3 GLC5        0.0000 
     46 CA          1.8150   27.3000   36.0530 C.3       6 GLP5        0.0000 
     47 CA         -1.0195   29.0180   39.1535 C.3       3 GLC5        0.0000 
     48 CA         -2.0920   27.8700   39.9810 C.3       6 GLP5        0.0000 
     49 CA          0.2185   30.6025   40.2990 C.3       3 GLC5        0.0000 
     50 CA          0.3840   31.0390   42.2720 C.3       6 GLP5        0.0000 
     51 CA          4.9635   29.4895   36.6265 C.3       3 GLC5        0.0000 
     52 CA          3.9360   30.8350   35.5990 C.3       9 GLL5        0.0000 
     53 CA          5.9910   28.1440   37.6540 C.3       6 GLP5        0.0000 
     54 CA          5.8650   32.5960   33.2760 C.3       3 GLC5        0.0000 
     55 CA          5.4100   30.6120   32.5390 C.3       9 GLL5        0.0000 
     56 CA          6.3200   34.5800   34.0130 C.3       6 GLP5        0.0000 
     57 CA          6.9950   29.1275   32.1125 C.3       3 GLC5        0.0000 
     58 CA          8.5800   27.6430   31.6860 C.3       6 GLP5        0.0000 
     59 CA          7.1090   31.1300   33.6020 C.3       3 GLC5        0.0000 
     60 CA          8.8080   31.6480   34.6650 C.3       6 GLP5        0.0000 
     61 N           5.9880   28.7010   35.3975 N.am      2 SEC2        0.0000 
     62 N           5.2560   28.7720   34.2000 N.am      8 SEL2        0.0000 
     63 N           6.7200   28.6300   36.5950 N.am      5 SEP2        0.0000 
     64 O           4.2175   27.9685   35.0795 O.2       1 ALC1        0.0000 
     65 O           5.2560   28.7720   34.2000 O.2       7 ALL1        0.0000 
     66 O           3.1790   27.1650   35.9590 O.2       4 ALP1        0.0000 
     67 CA          6.2970   27.4180   32.1250 C.3       3 GLC5        0.0000 
     68 CA          4.4720   27.8180   31.3980 C.3       9 GLL5        0.0000 
     69 CA          8.1220   27.0180   32.8520 C.3       6 GLP5        0.0000 
     70 CA          3.8640   32.6275   30.5090 C.3       3 GLC5        0.0000 
     71 CA          4.7490   31.6220   31.5710 C.3       9 GLL5        0.0000 
     72 CA          2.9790   33.6330   29.4470 C.3       6 GLP5        0.0000 
     73 CA          4.8665   33.2940   32.4895 C.3       3 GLC5        0.0000 
     74 CA          4.9840   34.9660   33.4080 C.3       6 GLP5        0.0000 
     75 CA          4.9140   32.5280   41.5530 C.3       3 GLC5        0.0000 
     76 CA          4.4190   31.6610   40.2030 C.3       9 GLL5        0.0000 
     77 CA          5.4090   33.3950   42.9030 C.3       6 GLP5        0.0000 
     78 CA          1.5000   39.9460   36.0118 C.3       3 GLC5        0.0000 
     79 CA          0.8280   40.0120   33.9930 C.3       6 GLP5        0.0000 
     80 CA          3.6543   37.8398   38.1930 C.3       3 GLC5        0.0000 
     81 CA          5.4290   36.9410   38.6930 C.3       6 GLP5        0.0000 
     82 CA          0.9735   40.7070   40.5655 C.3       3 GLC5        0.0000 
     83 CA          0.5290   40.7990   38.6810 C.3       9 GLL5        0.0000 
     84 CA          0.6118   38.7955   39.9248 C.3       3 GLC5        0.0000 
     85 CA         -0.0300   38.4020   37.9610 C.3       9 GLL5        0.0000 
     86 CA          1.6333   38.7995   39.7196 C.3       3 GLC5        0.0000 
     87 CA          1.4110   38.2400   37.6140 C.3       9 GLL5        0.0000 
     88 CA         -1.7708   41.5849   38.1709 C.3       3 GLC5        0.0000 
     89 CA         -3.5860   41.9840   37.4280 C.3       6 GLP5        0.0000 
     90 CA         -0.1961   37.9470   36.4631 C.3       3 GLC5        0.0000 
     91 CA         -0.4730   39.7020   38.5040 C.3       9 GLL5        0.0000 
     92 CA         -0.6120   38.0550   34.5640 C.3       6 GLP5        0.0000 
     93 CA         -1.8090   31.0817   38.1920 C.3       3 GLC5        0.0000 
     94 CA         -0.8870   32.5420   39.0140 C.3       9 GLL5        0.0000 
     95 CA         -0.0355   31.5933   40.4225 C.3       3 GLC5        0.0000 
     96 CA         -0.0230   31.7530   38.1320 C.3       9 GLL5        0.0000 
     97 CA          2.6248   33.0132   34.9008 C.3       3 GLC5        0.0000 
     98 CA          1.6410   31.7860   36.1560 C.3       9 GLL5        0.0000 
     99 CA          1.5983   29.4318   35.7777 C.3       3 GLC5        0.0000 
    100 CA          0.4153   32.1423   33.2342 C.3       3 GLC5        0.0000 
    101 CA          1.1220   31.3410   34.8490 C.3       9 GLL5        0.0000 
    102 CA         -0.7210   33.2870   32.0830 C.3       6 GLP5        0.0000 
    103 CA         -0.1552   29.9902   33.5093 C.3       3 GLC5        0.0000 
    104 CA         -1.8620   28.9830   32.6330 C.3       6 GLP5        0.0000 
    105 CA          2.6717   29.2390   36.0625 C.3       3 GLC5        0.0000 
    106 CA          3.1210   31.5210   36.5450 C.3       9 GLL5        0.0000 
    107 CA          3.2912   32.4873   34.1995 C.3       3 GLC5        0.0000 
    108 CA          3.4480   30.3690   34.2780 C.3       9 GLL5        0.0000 
    109 CA          2.2648   28.9057   35.0765 C.3       3 GLC5        0.0000 
    110 CA          3.7734   33.0080   35.6385 C.3       3 GLC5        0.0000 
    111 CA          4.8655   29.8245   38.0528 C.3       3 GLC5        0.0000 
    112 CA          3.8290   31.9280   37.8840 C.3       9 GLL5        0.0000 
    113 CA          2.9327   28.2177   34.4600 C.3       3 GLC5        0.0000 
    114 CA          4.4550   29.6250   33.3550 C.3       9 GLL5        0.0000 
    115 CA          5.1892   30.1965   30.1560 C.3       3 GLC5        0.0000 
    116 CA          5.2990   29.2760   28.2570 C.3       6 GLP5        0.0000 
    117 CA          6.8767   31.3570   31.1910 C.3       3 GLC5        0.0000 
    118 CA          8.6740   31.5970   30.3270 C.3       6 GLP5        0.0000 
    119 CA          2.7285   28.4040   30.5333 C.3       3 GLC5        0.0000 
    120 CA          1.3980   28.5760   29.1780 C.3       6 GLP5        0.0000 
    121 CA          3.4170   26.3010   31.8317 C.3       3 GLC5        0.0000 
    122 CA          2.7750   24.3700   31.7750 C.3       6 GLP5        0.0000 
    123 CA          4.6790   28.7540   30.0727 C.3       3 GLC5        0.0000 
    124 CA          5.8387   31.5700   38.9286 C.3       3 GLC5        0.0000 
    125 CA          7.5980   31.5570   38.5300 C.3       6 GLP5        0.0000 
@<TRIPOS>BOND
@<TRIPOS>SUBSTRUCTURE
     1 ALC1       14 GROUP        1 X    ALC  0     ROOT ALC X 1
     2 SEC2       11 GROUP        1 X    SEC  0     **** SEC X 2
     3 GLC5        1 GROUP        1 X    GLC  0     **** GLC X 6
     4 ALP1       16 GROUP        1 Y    ALP  0     ROOT ALP Y 8
     5 SEP2       13 GROUP        1 Y    SEP  0     **** SEP Y 9
     6 GLP5        3 GROUP        1 Y    GLP  0     **** GLP Y 13
     7 ALL1       15 GROUP        1 Z    ALL  0     ROOT ALL Z 15
     8 SEL2       12 GROUP        1 Z    SEL  0     **** SEL Z 16
     9 GLL5        2 GROUP        1 Z    GLL  0     **** GLL Z 20
@<TRIPOS>SET

