#    Name: 4g1d_0VK_1_ligand
#    Modification time : Mon Mar 24 21:09:55 2014

@<TRIPOS>MOLECULE
4g1d_0VK_1_ligand
   72    74     1     0     0
SMALL
NO_CHARGES


@<TRIPOS>ATOM
      1 C1          2.3480   39.2370   37.7720 C.ar      1 0VK501      0.0000 
      2 C2          1.9960   40.5230   38.2890 C.ar      1 0VK501      0.0000 
      3 C3          0.5290   40.7990   38.6810 C.ar      1 0VK501      0.0000 
      4 C4         -0.4730   39.7020   38.5040 C.ar      1 0VK501      0.0000 
      5 C5         -0.0300   38.4020   37.9610 C.ar      1 0VK501      0.0000 
      6 C6          1.4110   38.2400   37.6140 C.ar      1 0VK501      0.0000 
      7 C48         0.0610   42.1210   39.2350 C.3       1 0VK501      0.0000 
      8 O49         0.3360   42.2050   40.6450 O.3       1 0VK501      0.0000 
      9 C52         3.1410   41.5080   38.3970 C.3       1 0VK501      0.0000 
     10 O53         4.3930   40.9380   37.9450 O.3       1 0VK501      0.0000 
     11 C10        -0.1400   37.0320   38.8010 C.3       1 0VK501      0.0000 
     12 O1         -0.1830   36.0280   37.6420 O.3       1 0VK501      0.0000 
     13 C14        -0.2120   34.6720   37.8580 C.ar      1 0VK501      0.0000 
     14 C17         0.6760   33.9270   36.9340 C.ar      1 0VK501      0.0000 
     15 C18         0.7700   32.4540   37.0710 C.ar      1 0VK501      0.0000 
     16 C19        -0.0230   31.7530   38.1320 C.ar      1 0VK501      0.0000 
     17 C20        -0.8870   32.5420   39.0140 C.ar      1 0VK501      0.0000 
     18 C21        -0.9770   33.9790   38.8760 C.ar      1 0VK501      0.0000 
     19 C8          0.0530   30.1660   38.3260 C.3       1 0VK501      0.0000 
     20 C7          1.6410   31.7860   36.1560 C.ar      1 0VK501      0.0000 
     21 C9          1.1220   31.3410   34.8490 C.ar      1 0VK501      0.0000 
     22 C11         3.1210   31.5210   36.5450 C.ar      1 0VK501      0.0000 
     23 C12         3.9360   30.8350   35.5990 C.ar      1 0VK501      0.0000 
     24 C13         1.9810   30.6540   33.9220 C.ar      1 0VK501      0.0000 
     25 C16         3.4480   30.3690   34.2780 C.ar      1 0VK501      0.0000 
     26 C15         3.8290   31.9280   37.8840 C.3       1 0VK501      0.0000 
     27 C22         3.6510   31.0820   39.0190 C.3       1 0VK501      0.0000 
     28 C24         4.4550   29.6250   33.3550 C.3       1 0VK501      0.0000 
     29 C25         5.4100   30.6120   32.5390 C.3       1 0VK501      0.0000 
     30 C26         3.6460   28.6460   32.3790 C.3       1 0VK501      0.0000 
     31 O2          5.2560   28.7720   34.2000 O.3       1 0VK501      0.0000 
     32 C28         4.4720   27.8180   31.3980 C.3       1 0VK501      0.0000 
     33 C29         4.7490   31.6220   31.5710 C.3       1 0VK501      0.0000 
     34 C23         4.4190   31.6610   40.2030 C.3       1 0VK501      0.0000 
     35 H           3.3386   39.0735   37.5164 H         1 0VK501      0.0000 
     36 H          -1.4200   39.8544   38.7506 H         1 0VK501      0.0000 
     37 H           1.6767   37.3077   37.2360 H         1 0VK501      0.0000 
     38 H          -1.0167   42.2178   39.0353 H         1 0VK501      0.0000 
     39 H           0.5690   42.9264   38.6838 H         1 0VK501      0.0000 
     40 H           3.2160   41.8347   39.4496 H         1 0VK501      0.0000 
     41 H           2.8815   42.4039   37.8051 H         1 0VK501      0.0000 
     42 H          -1.0382   37.0452   39.3145 H         1 0VK501      0.0000 
     43 H           0.7294   36.9263   39.3520 H         1 0VK501      0.0000 
     44 H           1.1947   34.4026   36.2408 H         1 0VK501      0.0000 
     45 H          -1.4261   32.0665   39.7285 H         1 0VK501      0.0000 
     46 H          -1.5799   34.5075   39.4959 H         1 0VK501      0.0000 
     47 H           0.1575   31.5269   34.6190 H         1 0VK501      0.0000 
     48 H           4.9268   30.6396   35.8237 H         1 0VK501      0.0000 
     49 H           1.6598   30.3417   33.0261 H         1 0VK501      0.0000 
     50 H           3.4920   32.9827   38.1020 H         1 0VK501      0.0000 
     51 H           4.9219   32.0485   37.6299 H         1 0VK501      0.0000 
     52 H           4.0287   30.0711   38.8363 H         1 0VK501      0.0000 
     53 H           2.5982   31.0046   39.3078 H         1 0VK501      0.0000 
     54 H           6.1266   29.9803   31.9717 H         1 0VK501      0.0000 
     55 H           6.0201   31.1674   33.2830 H         1 0VK501      0.0000 
     56 H           2.9214   29.2728   31.8233 H         1 0VK501      0.0000 
     57 H           3.0449   27.9747   33.0231 H         1 0VK501      0.0000 
     58 H           0.9815   29.8619   38.5391 H         1 0VK501      0.0000 
     59 H          -0.5359   29.8544   39.0717 H         1 0VK501      0.0000 
     60 H          -0.2337   29.6770   37.5022 H         1 0VK501      0.0000 
     61 H           5.0055   28.3965   30.7810 H         1 0VK501      0.0000 
     62 H           5.1185   27.2187   31.8702 H         1 0VK501      0.0000 
     63 H           3.8949   27.2344   30.8267 H         1 0VK501      0.0000 
     64 H           5.4277   32.1955   31.1123 H         1 0VK501      0.0000 
     65 H           4.2231   31.1614   30.8560 H         1 0VK501      0.0000 
     66 H           4.1202   32.2363   32.0477 H         1 0VK501      0.0000 
     67 H           5.3981   31.7314   40.0120 H         1 0VK501      0.0000 
     68 H           4.0998   32.5786   40.4398 H         1 0VK501      0.0000 
     69 H           4.3201   31.0958   41.0220 H         1 0VK501      0.0000 
     70 H           0.3301   43.1833   40.8519 H         1 0VK501      0.0000 
     71 H           4.2128   40.6242   37.0128 H         1 0VK501      0.0000 
     72 H           4.6431   28.2173   34.7629 H         1 0VK501      0.0000 
@<TRIPOS>BOND
     1    2    1 ar   
     2    6    1 ar   
     3   35    1 1    
     4    3    2 ar   
     5    9    2 1    
     6    4    3 ar   
     7    7    3 1    
     8    5    4 ar   
     9   36    4 1    
    10    6    5 ar   
    11   11    5 1    
    12   37    6 1    
    13    8    7 1    
    14   38    7 1    
    15   39    7 1    
    16   70    8 1    
    17   10    9 1    
    18   40    9 1    
    19   41    9 1    
    20   71   10 1    
    21   12   11 1    
    22   42   11 1    
    23   43   11 1    
    24   13   12 1    
    25   14   13 ar   
    26   18   13 ar   
    27   15   14 ar   
    28   44   14 1    
    29   16   15 ar   
    30   20   15 1    
    31   17   16 ar   
    32   19   16 1    
    33   18   17 ar   
    34   45   17 1    
    35   46   18 1    
    36   58   19 1    
    37   59   19 1    
    38   60   19 1    
    39   21   20 ar   
    40   22   20 ar   
    41   24   21 ar   
    42   47   21 1    
    43   23   22 ar   
    44   26   22 1    
    45   25   23 ar   
    46   48   23 1    
    47   25   24 ar   
    48   49   24 1    
    49   28   25 1    
    50   27   26 1    
    51   50   26 1    
    52   51   26 1    
    53   34   27 1    
    54   52   27 1    
    55   53   27 1    
    56   29   28 1    
    57   30   28 1    
    58   31   28 1    
    59   33   29 1    
    60   54   29 1    
    61   55   29 1    
    62   32   30 1    
    63   56   30 1    
    64   57   30 1    
    65   72   31 1    
    66   61   32 1    
    67   62   32 1    
    68   63   32 1    
    69   64   33 1    
    70   65   33 1    
    71   66   33 1    
    72   67   34 1    
    73   68   34 1    
    74   69   34 1    
@<TRIPOS>SUBSTRUCTURE
     1 0VK501      1 GROUP   
@<TRIPOS>SET

