#    Name: 2i0z_FAD_1_INTS_M
#    Modification time : Tue Mar 25 17:18:54 2014

@<TRIPOS>MOLECULE
2i0z_FAD_1_INTS_M
  123     0     9     0     0
SMALL
NO_CHARGES


@<TRIPOS>ATOM
      1 CA          2.0490   16.9880  -21.6530 C.3       3 GLC5        0.0000 
      2 CA          4.0800   17.6680  -21.2170 C.3       9 GLL5        0.0000 
      3 CA          0.0180   16.3080  -22.0890 C.3       6 GLP5        0.0000 
      4 CA          5.0225   17.2915  -19.3240 C.3       3 GLC5        0.0000 
      5 CA          5.9650   16.9150  -17.4310 C.3       6 GLP5        0.0000 
      6 CA          2.9090   20.2895  -21.9895 C.3       3 GLC5        0.0000 
      7 CA          3.8880   18.6650  -22.3700 C.3       9 GLL5        0.0000 
      8 CA          1.9300   21.9140  -21.6090 C.3       6 GLP5        0.0000 
      9 O           2.9935   19.3825  -24.8505 O.2       1 ALC1        0.0000 
     10 O           3.5370   18.2360  -24.6390 O.2       7 ALL1        0.0000 
     11 O           2.4500   20.5290  -25.0620 O.2       4 ALP1        0.0000 
     12 O           3.7035   19.5315  -25.6800 O.2       1 ALC1        0.0000 
     13 O           3.8700   20.8270  -26.7210 O.2       4 ALP1        0.0000 
     14 CA          7.1930   18.5525  -24.6530 C.3       3 GLC5        0.0000 
     15 CA          5.6050   19.2900  -23.9930 C.3       9 GLL5        0.0000 
     16 CA          8.7810   17.8150  -25.3130 C.3       6 GLP5        0.0000 
     17 N           6.3665   19.0475  -26.7025 N.am      2 SEC2        0.0000 
     18 N           5.7600   19.6460  -25.3690 N.am      8 SEL2        0.0000 
     19 N           6.9730   18.4490  -28.0360 N.am      5 SEP2        0.0000 
     20 O           4.1050   20.0875  -25.2155 O.2       1 ALC1        0.0000 
     21 O           5.7600   19.6460  -25.3690 O.2       7 ALL1        0.0000 
     22 O           4.8150   20.2365  -26.0450 O.2       1 ALC1        0.0000 
     23 CA          3.5025   21.1895  -22.3890 C.3       3 GLC5        0.0000 
     24 CA          5.0750   20.4650  -23.1690 C.3       9 GLL5        0.0000 
     25 N           9.1285   21.4180  -21.1930 N.am      2 SEC2        0.0000 
     26 N           8.0810   22.1180  -21.9230 N.am      8 SEL2        0.0000 
     27 N          10.1760   20.7180  -20.4630 N.am      5 SEP2        0.0000 
     28 CA          5.9500   25.2140  -21.4520 C.3       3 GLC5        0.0000 
     29 CA          7.7470   24.5340  -22.5350 C.3       9 GLL5        0.0000 
     30 CA          4.1530   25.8940  -20.3690 C.3       6 GLP5        0.0000 
     31 CA          7.2510   26.6275  -22.1290 C.3       3 GLC5        0.0000 
     32 CA          6.7550   28.7210  -21.7230 C.3       6 GLP5        0.0000 
     33 O           9.3195   26.5270  -22.0595 O.2       1 ALC1        0.0000 
     34 O           8.8850   25.0280  -21.9950 O.2       7 ALL1        0.0000 
     35 O           9.7540   28.0260  -22.1240 O.2       4 ALP1        0.0000 
     36 O          10.0595   24.2440  -21.9250 O.2       1 ALC1        0.0000 
     37 O          11.2340   23.4600  -21.8550 O.2       4 ALP1        0.0000 
     38 N           7.1755   26.7075  -23.5540 N.am      2 SEC2        0.0000 
     39 N           6.8060   25.3450  -23.1470 N.am      8 SEL2        0.0000 
     40 N           7.5450   28.0700  -23.9610 N.am      5 SEP2        0.0000 
     41 CA          4.8830   25.3750  -22.0065 C.3       3 GLC5        0.0000 
     42 CA          5.6130   24.8560  -23.6440 C.3       9 GLL5        0.0000 
     43 CA          4.2060   24.2630  -24.8725 C.3       3 GLC5        0.0000 
     44 CA          2.7990   23.6700  -26.1010 C.3       6 GLP5        0.0000 
     45 CA          6.5345   23.8500  -25.0755 C.3       3 GLC5        0.0000 
     46 CA          7.4560   22.8440  -26.5070 C.3       6 GLP5        0.0000 
     47 CA          6.6845   26.0190  -24.9190 C.3       3 GLC5        0.0000 
     48 CA          7.7560   27.1820  -26.1940 C.3       6 GLP5        0.0000 
     49 CA          5.4735   26.8495  -22.9365 C.3       3 GLC5        0.0000 
     50 CA          5.3340   28.8430  -22.2290 C.3       6 GLP5        0.0000 
     51 N           5.2290   23.4805  -25.0930 N.am      2 SEC2        0.0000 
     52 N           5.3140   23.5150  -23.5350 N.am      8 SEL2        0.0000 
     53 N           5.1440   23.4460  -26.6510 N.am      5 SEP2        0.0000 
     54 N          -0.5220    6.9800  -16.2045 N.am      2 SEC2        0.0000 
     55 N          -0.2780    5.7840  -16.7670 N.am      8 SEL2        0.0000 
     56 N          -0.7660    8.1760  -15.6420 N.am      5 SEP2        0.0000 
     57 O          -1.4465    4.5275  -18.7760 O.2       1 ALC1        0.0000 
     58 O          -0.0210    4.6690  -18.6820 O.2       7 ALL1        0.0000 
     59 O          -2.8720    4.3860  -18.8700 O.2       4 ALP1        0.0000 
     60 N          -1.1980    3.3055  -21.1505 N.am      2 SEC2        0.0000 
     61 N           0.3040    3.4950  -20.5930 N.am      8 SEL2        0.0000 
     62 N          -2.7000    3.1160  -21.7080 N.am      5 SEP2        0.0000 
     63 N           1.9655    4.0150  -22.1745 N.am      2 SEC2        0.0000 
     64 N           2.7370    4.6190  -21.0020 N.am      8 SEL2        0.0000 
     65 N           1.1940    3.4110  -23.3470 N.am      5 SEP2        0.0000 
     66 CA          5.6200    8.6150  -22.2205 C.3       3 GLC5        0.0000 
     67 CA          6.3690    6.5940  -21.6060 C.3       9 GLL5        0.0000 
     68 CA          4.8710   10.6360  -22.8350 C.3       6 GLP5        0.0000 
     69 CA          7.3310    9.5120  -21.9275 C.3       3 GLC5        0.0000 
     70 CA          7.5280    7.5030  -21.9160 C.3       9 GLL5        0.0000 
     71 CA          7.1340   11.5210  -21.9390 C.3       6 GLP5        0.0000 
     72 CA          9.1115    8.1060  -22.5165 C.3       3 GLC5        0.0000 
     73 CA         10.6950    8.7090  -23.1170 C.3       6 GLP5        0.0000 
     74 CA          5.6205    8.9975  -21.0555 C.3       3 GLC5        0.0000 
     75 CA          5.5630    6.9090  -20.5060 C.3       9 GLL5        0.0000 
     76 CA          5.6780   11.0860  -21.6050 C.3       6 GLP5        0.0000 
     77 CA          2.6075    6.3765  -21.7175 C.3       3 GLC5        0.0000 
     78 CA          4.3460    6.2500  -20.3030 C.3       9 GLL5        0.0000 
     79 CA          0.8690    6.5030  -23.1320 C.3       6 GLP5        0.0000 
     80 CA          4.5590    5.8715  -18.2810 C.3       3 GLC5        0.0000 
     81 CA          3.8750    7.8430  -18.4320 C.3       9 GLL5        0.0000 
     82 CA          5.2430    3.9000  -18.1300 C.3       6 GLP5        0.0000 
     83 CA          5.0670    7.7815  -17.0495 C.3       3 GLC5        0.0000 
     84 CA          6.2590    7.7200  -15.6670 C.3       6 GLP5        0.0000 
     85 CA          0.9110    8.6930  -18.7605 C.3       3 GLC5        0.0000 
     86 CA          2.8850    8.9410  -18.8370 C.3       9 GLL5        0.0000 
     87 CA         -1.0630    8.4450  -18.6840 C.3       6 GLP5        0.0000 
     88 O           4.7610   10.9195  -16.8200 O.2       1 ALC1        0.0000 
     89 O           3.5520   10.1650  -16.8700 O.2       7 ALL1        0.0000 
     90 O           5.9700   11.6740  -16.7700 O.2       4 ALP1        0.0000 
     91 CA          3.9855   13.1990  -16.4530 C.3       3 GLC5        0.0000 
     92 CA          2.7780   12.7070  -17.8980 C.3       9 GLL5        0.0000 
     93 CA          5.1930   13.6910  -15.0080 C.3       6 GLP5        0.0000 
     94 CA          0.8605   12.8850  -16.7745 C.3       3 GLC5        0.0000 
     95 CA         -1.0570   13.0630  -15.6510 C.3       6 GLP5        0.0000 
     96 N          -0.6325   15.9600  -18.4235 N.am      2 SEC2        0.0000 
     97 N           0.8840   15.9630  -18.5810 N.am      8 SEL2        0.0000 
     98 N          -2.1490   15.9570  -18.2660 N.am      5 SEP2        0.0000 
     99 N           0.3620   16.7875  -17.5950 N.am      2 SEC2        0.0000 
    100 N          -0.1600   17.6120  -16.6090 N.am      5 SEP2        0.0000 
    101 N           1.2385   16.5715  -16.6915 N.am      2 SEC2        0.0000 
    102 N           2.6370   15.5310  -16.7740 N.am      8 SEL2        0.0000 
    103 N           3.0285   15.3350  -15.4960 N.am      2 SEC2        0.0000 
    104 N           3.4200   15.1390  -14.2180 N.am      5 SEP2        0.0000 
    105 CA          4.5890   19.3182  -20.2267 C.3       3 GLC5        0.0000 
    106 CA          5.1940   20.4700  -18.6600 C.3       6 GLP5        0.0000 
    107 CA          7.1796   23.0633  -24.6163 C.3       3 GLC5        0.0000 
    108 CA          7.4160   23.1800  -22.4390 C.3       9 GLL5        0.0000 
    109 CA          6.2686   23.0787  -20.9907 C.3       3 GLC5        0.0000 
    110 CA          6.2250   22.7080  -22.9640 C.3       9 GLL5        0.0000 
    111 CA          5.6340   22.8750  -19.2560 C.3       6 GLP5        0.0000 
    112 CA          3.0060    5.3965  -22.9410 C.3       3 GLC5        0.0000 
    113 CA          3.9230    5.2930  -21.2180 C.3       9 GLL5        0.0000 
    114 CA          1.6970    5.6550  -24.1090 C.3       6 GLP5        0.0000 
    115 CA          6.4642    6.6058  -24.7175 C.3       3 GLC5        0.0000 
    116 CA          5.9300    5.6420  -22.5290 C.3       9 GLL5        0.0000 
    117 CA          6.5340    7.8280  -26.3690 C.3       6 GLP5        0.0000 
    118 CA          2.8295    8.0205  -16.6447 C.3       3 GLC5        0.0000 
    119 CA          2.2790    7.6490  -14.6550 C.3       6 GLP5        0.0000 
    120 CA          4.3950   10.3503  -20.0770 C.3       3 GLC5        0.0000 
    121 CA          0.7183   12.5050  -18.8775 C.3       3 GLC5        0.0000 
    122 CA          2.3450   11.4030  -18.5560 C.3       9 GLL5        0.0000 
    123 CA         -1.1250   12.9550  -19.5280 C.3       6 GLP5        0.0000 
@<TRIPOS>BOND
@<TRIPOS>SUBSTRUCTURE
     1 ALC1        9 GROUP        1 X    ALC  0     ROOT ALC X 1
     2 SEC2       17 GROUP        1 X    SEC  0     **** SEC X 2
     3 GLC5        1 GROUP        1 X    GLC  0     **** GLC X 6
     4 ALP1       11 GROUP        1 Y    ALP  0     ROOT ALP Y 8
     5 SEP2       19 GROUP        1 Y    SEP  0     **** SEP Y 9
     6 GLP5        3 GROUP        1 Y    GLP  0     **** GLP Y 13
     7 ALL1       10 GROUP        1 Z    ALL  0     ROOT ALL Z 15
     8 SEL2       18 GROUP        1 Z    SEL  0     **** SEL Z 16
     9 GLL5        2 GROUP        1 Z    GLL  0     **** GLL Z 20
@<TRIPOS>SET

