#    Name: 2i0z_FAD_1_ligand
#    Modification time : Tue Mar 25 17:18:54 2014

@<TRIPOS>MOLECULE
2i0z_FAD_1_ligand
   84    89     1     0     0
SMALL
NO_CHARGES


@<TRIPOS>ATOM
      1 PA          3.6610   15.1360  -20.6210 P.3       1 FAD501      0.0000 
      2 O1A         5.1300   14.8350  -20.5840 O.co2     1 FAD501      0.0000 
      3 O2A         2.6480   14.1400  -21.1250 O.co2     1 FAD501      0.0000 
      4 O5B         3.3770   16.4630  -21.4950 O.3       1 FAD501      0.0000 
      5 C5B         4.0800   17.6680  -21.2170 C.3       1 FAD501      0.0000 
      6 C4B         3.8880   18.6650  -22.3700 C.3       1 FAD501      0.0000 
      7 O4B         4.5360   19.8620  -22.0090 O.3       1 FAD501      0.0000 
      8 C3B         4.5650   18.2180  -23.6850 C.3       1 FAD501      0.0000 
      9 O3B         3.5370   18.2360  -24.6390 O.3       1 FAD501      0.0000 
     10 C2B         5.6050   19.2900  -23.9930 C.3       1 FAD501      0.0000 
     11 O2B         5.7600   19.6460  -25.3690 O.3       1 FAD501      0.0000 
     12 C1B         5.0750   20.4650  -23.1690 C.3       1 FAD501      0.0000 
     13 N9A         6.1790   21.3400  -22.7490 N.pl3     1 FAD501      0.0000 
     14 C8A         7.3280   20.9960  -22.1010 C.2       1 FAD501      0.0000 
     15 N7A         8.0810   22.1180  -21.9230 N.2       1 FAD501      0.0000 
     16 C5A         7.4160   23.1800  -22.4390 C.ar      1 FAD501      0.0000 
     17 C6A         7.7470   24.5340  -22.5350 C.ar      1 FAD501      0.0000 
     18 N6A         8.8850   25.0280  -21.9950 N.pl3     1 FAD501      0.0000 
     19 N1A         6.8060   25.3450  -23.1470 N.ar      1 FAD501      0.0000 
     20 C2A         5.6130   24.8560  -23.6440 C.ar      1 FAD501      0.0000 
     21 N3A         5.3140   23.5150  -23.5350 N.ar      1 FAD501      0.0000 
     22 C4A         6.2250   22.7080  -22.9640 C.ar      1 FAD501      0.0000 
     23 N1          1.6320    6.1980  -17.8930 N.2       1 FAD501      0.0000 
     24 C2          0.4270    5.5540  -17.7370 C.2       1 FAD501      0.0000 
     25 O2         -0.2780    5.7840  -16.7670 O.2       1 FAD501      0.0000 
     26 N3         -0.0210    4.6690  -18.6820 N.am      1 FAD501      0.0000 
     27 C4          0.7290    4.3290  -19.7720 C.2       1 FAD501      0.0000 
     28 O4          0.3040    3.4950  -20.5930 O.2       1 FAD501      0.0000 
     29 C4X         1.9500    4.9550  -19.9350 C.2       1 FAD501      0.0000 
     30 N5          2.7370    4.6190  -21.0020 N.2       1 FAD501      0.0000 
     31 C5X         3.9230    5.2930  -21.2180 C.ar      1 FAD501      0.0000 
     32 C6          4.7070    4.9830  -22.3280 C.ar      1 FAD501      0.0000 
     33 C7          5.9300    5.6420  -22.5290 C.ar      1 FAD501      0.0000 
     34 C7M         6.8590    5.1250  -23.6030 C.3       1 FAD501      0.0000 
     35 C8          6.3690    6.5940  -21.6060 C.ar      1 FAD501      0.0000 
     36 C8M         7.5280    7.5030  -21.9160 C.3       1 FAD501      0.0000 
     37 C9          5.5630    6.9090  -20.5060 C.ar      1 FAD501      0.0000 
     38 C9A         4.3460    6.2500  -20.3030 C.ar      1 FAD501      0.0000 
     39 N10         3.5700    6.5660  -19.2010 N.pl3     1 FAD501      0.0000 
     40 C10         2.3760    5.9290  -19.0150 C.2       1 FAD501      0.0000 
     41 C1'         3.8750    7.8430  -18.4320 C.3       1 FAD501      0.0000 
     42 C2'         2.8850    8.9410  -18.8370 C.3       1 FAD501      0.0000 
     43 O2'         2.8420    9.0240  -20.2360 O.3       1 FAD501      0.0000 
     44 C3'         3.3390   10.2880  -18.2610 C.3       1 FAD501      0.0000 
     45 O3'         3.5520   10.1650  -16.8700 O.3       1 FAD501      0.0000 
     46 C4'         2.3450   11.4030  -18.5560 C.3       1 FAD501      0.0000 
     47 O4'         2.1970   11.5940  -19.9650 O.3       1 FAD501      0.0000 
     48 C5'         2.7780   12.7070  -17.8980 C.3       1 FAD501      0.0000 
     49 O5'         1.7740   13.6500  -18.2700 O.3       1 FAD501      0.0000 
     50 P           2.1150   15.2030  -18.1350 P.3       1 FAD501      0.0000 
     51 O1P         0.8840   15.9630  -18.5810 O.co2     1 FAD501      0.0000 
     52 O2P         2.6370   15.5310  -16.7740 O.co2     1 FAD501      0.0000 
     53 O3P         3.3580   15.5450  -19.0890 O.3       1 FAD501      0.0000 
     54 H           5.1580   17.4988  -21.1048 H         1 FAD501      0.0000 
     55 H           3.7204   18.1520  -20.3006 H         1 FAD501      0.0000 
     56 H           2.8547   18.8147  -22.5485 H         1 FAD501      0.0000 
     57 H           5.0121   17.2997  -23.5331 H         1 FAD501      0.0000 
     58 H           6.5288   18.9874  -23.5195 H         1 FAD501      0.0000 
     59 H           4.3523   20.9772  -23.7248 H         1 FAD501      0.0000 
     60 H           7.5674   20.1088  -21.8167 H         1 FAD501      0.0000 
     61 H           9.0223   26.0145  -22.0841 H         1 FAD501      0.0000 
     62 H           9.4880   24.3628  -21.5547 H         1 FAD501      0.0000 
     63 H           4.9440   25.4990  -24.0985 H         1 FAD501      0.0000 
     64 H          -0.9720    4.2390  -18.5631 H         1 FAD501      0.0000 
     65 H           4.3943    4.2745  -23.0001 H         1 FAD501      0.0000 
     66 H           5.8690    7.6325  -19.8403 H         1 FAD501      0.0000 
     67 H           4.8832    8.1720  -18.6585 H         1 FAD501      0.0000 
     68 H           3.7840    7.6571  -17.3675 H         1 FAD501      0.0000 
     69 H           1.9281    8.7007  -18.4135 H         1 FAD501      0.0000 
     70 H           4.2823   10.5475  -18.7660 H         1 FAD501      0.0000 
     71 H           1.3863   11.1169  -18.1111 H         1 FAD501      0.0000 
     72 H           3.7484   12.9725  -18.2808 H         1 FAD501      0.0000 
     73 H           2.8168   12.5515  -16.8335 H         1 FAD501      0.0000 
     74 H           7.6995    5.6639  -23.6580 H         1 FAD501      0.0000 
     75 H           7.1292    4.1769  -23.4355 H         1 FAD501      0.0000 
     76 H           6.4332    5.1530  -24.5074 H         1 FAD501      0.0000 
     77 H           8.3665    6.9881  -22.0944 H         1 FAD501      0.0000 
     78 H           7.3526    8.0663  -22.7234 H         1 FAD501      0.0000 
     79 H           7.7229    8.1275  -21.1596 H         1 FAD501      0.0000 
     80 H           3.5668   19.1541  -25.0341 H         1 FAD501      0.0000 
     81 H           4.8990   20.0882  -25.6204 H         1 FAD501      0.0000 
     82 H           2.5643    9.9647  -20.4309 H         1 FAD501      0.0000 
     83 H           4.4153   10.6393  -16.6976 H         1 FAD501      0.0000 
     84 H           2.3611   12.5694  -20.1125 H         1 FAD501      0.0000 
@<TRIPOS>BOND
     1    2    1 ar   
     2    3    1 ar   
     3    4    1 1    
     4   53    1 1    
     5    5    4 1    
     6    6    5 1    
     7   54    5 1    
     8   55    5 1    
     9    7    6 1    
    10    8    6 1    
    11   56    6 1    
    12   12    7 1    
    13    9    8 1    
    14   10    8 1    
    15   57    8 1    
    16   80    9 1    
    17   11   10 1    
    18   12   10 1    
    19   58   10 1    
    20   81   11 1    
    21   13   12 1    
    22   59   12 1    
    23   14   13 1    
    24   22   13 1    
    25   15   14 2    
    26   60   14 1    
    27   16   15 1    
    28   17   16 ar   
    29   22   16 ar   
    30   18   17 1    
    31   19   17 ar   
    32   61   18 1    
    33   62   18 1    
    34   20   19 ar   
    35   21   20 ar   
    36   63   20 1    
    37   22   21 ar   
    38   24   23 1    
    39   40   23 2    
    40   25   24 2    
    41   26   24 am   
    42   27   26 am   
    43   64   26 1    
    44   28   27 2    
    45   29   27 1    
    46   30   29 2    
    47   40   29 1    
    48   31   30 1    
    49   32   31 ar   
    50   38   31 ar   
    51   33   32 ar   
    52   65   32 1    
    53   34   33 1    
    54   35   33 ar   
    55   74   34 1    
    56   75   34 1    
    57   76   34 1    
    58   36   35 1    
    59   37   35 ar   
    60   77   36 1    
    61   78   36 1    
    62   79   36 1    
    63   38   37 ar   
    64   66   37 1    
    65   39   38 1    
    66   40   39 1    
    67   41   39 1    
    68   42   41 1    
    69   67   41 1    
    70   68   41 1    
    71   43   42 1    
    72   44   42 1    
    73   69   42 1    
    74   82   43 1    
    75   45   44 1    
    76   46   44 1    
    77   70   44 1    
    78   83   45 1    
    79   47   46 1    
    80   48   46 1    
    81   71   46 1    
    82   84   47 1    
    83   49   48 1    
    84   72   48 1    
    85   73   48 1    
    86   50   49 1    
    87   51   50 ar   
    88   52   50 ar   
    89   53   50 1    
@<TRIPOS>SUBSTRUCTURE
     1 FAD501      1 GROUP   
@<TRIPOS>SET

