#    Name: 3sqq_99Z_1_INTS_M
#    Modification time : Mon Mar 24 18:04:04 2014

@<TRIPOS>MOLECULE
3sqq_99Z_1_INTS_M
   67     0     9     0     0
SMALL
NO_CHARGES


@<TRIPOS>ATOM
      1 N         -96.7615   11.2935  -51.5115 N.am      2 SEC2        0.0000 
      2 N         -95.7030   10.6110  -50.3950 N.am      8 SEL2        0.0000 
      3 N         -97.8200   11.9760  -52.6280 N.am      5 SEP2        0.0000 
      4 O         -94.2515   10.4760  -53.2365 O.2       1 ALC1        0.0000 
      5 O         -94.0870    9.7070  -52.0970 O.2       7 ALL1        0.0000 
      6 O         -94.4160   11.2450  -54.3760 O.2       4 ALP1        0.0000 
      7 O         -99.6100    7.9415  -43.4735 O.2       1 ALC1        0.0000 
      8 O         -99.9650    9.3320  -42.8290 O.2       7 ALL1        0.0000 
      9 O         -99.2550    6.5510  -44.1180 O.2       4 ALP1        0.0000 
     10 CA        -90.6210    5.6215  -44.7585 C.3       3 GLC5        0.0000 
     11 CA        -91.9840    5.5300  -46.5360 C.3       9 GLL5        0.0000 
     12 CA        -89.2580    5.7130  -42.9810 C.3       6 GLP5        0.0000 
     13 CA        -93.9280    3.4960  -47.5310 C.3       3 GLC5        0.0000 
     14 CA        -93.3010    5.5000  -47.0460 C.3       9 GLL5        0.0000 
     15 CA        -94.5550    1.4920  -48.0160 C.3       6 GLP5        0.0000 
     16 CA        -95.7430    6.3990  -48.7290 C.3       3 GLC5        0.0000 
     17 CA        -93.6160    6.3230  -48.1630 C.3       9 GLL5        0.0000 
     18 CA        -97.8700    6.4750  -49.2950 C.3       6 GLP5        0.0000 
     19 CA        -97.7700    8.0640  -47.9925 C.3       3 GLC5        0.0000 
     20 CA        -97.6700    9.6530  -46.6900 C.3       9 GLL5        0.0000 
     21 CA       -100.2415   12.2640  -48.5630 C.3       3 GLC5        0.0000 
     22 CA        -98.8160   11.8100  -47.1420 C.3       9 GLL5        0.0000 
     23 CA       -101.6670   12.7180  -49.9840 C.3       6 GLP5        0.0000 
     24 CA        -90.6445    9.4155  -47.5860 C.3       3 GLC5        0.0000 
     25 CA        -90.1750    8.0560  -48.8280 C.3       9 GLL5        0.0000 
     26 CA        -91.1140   10.7750  -46.3440 C.3       6 GLP5        0.0000 
     27 CA        -88.3680    8.7235  -48.5165 C.3       3 GLC5        0.0000 
     28 CA        -86.5610    9.3910  -48.2050 C.3       6 GLP5        0.0000 
     29 CA        -89.1640    8.1050  -50.4385 C.3       3 GLC5        0.0000 
     30 CA        -88.1530    8.1540  -52.0490 C.3       6 GLP5        0.0000 
     31 N        -102.5085   11.7985  -42.7390 N.am      2 SEC2        0.0000 
     32 N        -100.9730   11.3310  -43.2960 N.am      8 SEL2        0.0000 
     33 N        -104.0440   12.2660  -42.1820 N.am      5 SEP2        0.0000 
     34 N        -101.5405    8.2785  -45.7395 N.am      2 SEC2        0.0000 
     35 N        -101.4580    9.0060  -44.4850 N.am      8 SEL2        0.0000 
     36 N        -101.6230    7.5510  -46.9940 N.am      5 SEP2        0.0000 
     37 CA        -94.7075   11.1240  -47.4585 C.3       3 GLC5        0.0000 
     38 CA        -94.9840    9.3050  -48.3360 C.3       9 GLL5        0.0000 
     39 CA        -94.4310   12.9430  -46.5810 C.3       6 GLP5        0.0000 
     40 CA        -93.7260   10.7900  -49.3740 C.3       3 GLC5        0.0000 
     41 CA        -92.4680   12.2750  -50.4120 C.3       6 GLP5        0.0000 
     42 CA        -95.7905    8.2815  -49.8305 C.3       3 GLC5        0.0000 
     43 CA        -96.5970    7.2580  -51.3250 C.3       6 GLP5        0.0000 
     44 CA        -93.4190   10.8208  -50.3317 C.3       3 GLC5        0.0000 
     45 CA        -94.1410    8.9760  -49.7020 C.3       9 GLL5        0.0000 
     46 CA        -95.4835    8.3123  -50.7883 C.3       3 GLC5        0.0000 
     47 CA        -94.5990    9.7570  -50.8010 C.3       9 GLL5        0.0000 
     48 CA        -96.5160   10.6103  -45.7370 C.3       3 GLC5        0.0000 
     49 CA        -97.8340   10.8440  -47.4320 C.3       9 GLL5        0.0000 
     50 CA        -95.2800   10.9720  -44.4130 C.3       6 GLP5        0.0000 
     51 CA        -93.6767    5.6133  -50.0250 C.3       3 GLC5        0.0000 
     52 CA        -94.2430    4.4890  -51.5990 C.3       6 GLP5        0.0000 
     53 CA        -91.4233    5.0860  -48.6295 C.3       3 GLC5        0.0000 
     54 CA        -92.6050    7.1520  -48.7390 C.3       9 GLL5        0.0000 
     55 CA        -90.9060    3.0090  -48.7770 C.3       6 GLP5        0.0000 
     56 CA        -91.1975    4.4737  -47.8012 C.3       3 GLC5        0.0000 
     57 CA        -90.9940    6.3470  -47.1150 C.3       9 GLL5        0.0000 
     58 CA        -90.6773    7.5981  -46.0855 C.3       3 GLC5        0.0000 
     59 CA        -89.7950    9.0510  -45.0680 C.3       6 GLP5        0.0000 
     60 CA        -92.1822    4.4603  -48.1908 C.3       3 GLC5        0.0000 
     61 CA        -99.0130    7.7040  -46.2215 C.3       3 GLC5        0.0000 
     62 CA        -99.9210    5.8650  -46.2870 C.3       6 GLP5        0.0000 
     63 CA        -97.1557   10.4428  -44.9480 C.3       3 GLC5        0.0000 
     64 CA        -98.5400    9.4330  -45.6220 C.3       9 GLL5        0.0000 
     65 CA       -100.8375   10.5233  -47.1628 C.3       3 GLC5        0.0000 
     66 CA        -99.5230   10.3940  -45.3440 C.3       9 GLL5        0.0000 
     67 CA       -102.4680    9.6490  -47.8980 C.3       6 GLP5        0.0000 
@<TRIPOS>BOND
@<TRIPOS>SUBSTRUCTURE
     1 ALC1        4 GROUP        1 X    ALC  0     ROOT ALC X 1
     2 SEC2        1 GROUP        1 X    SEC  0     **** SEC X 2
     3 GLC5       10 GROUP        1 X    GLC  0     **** GLC X 6
     4 ALP1        6 GROUP        1 Y    ALP  0     ROOT ALP Y 8
     5 SEP2        3 GROUP        1 Y    SEP  0     **** SEP Y 9
     6 GLP5       12 GROUP        1 Y    GLP  0     **** GLP Y 13
     7 ALL1        5 GROUP        1 Z    ALL  0     ROOT ALL Z 15
     8 SEL2        2 GROUP        1 Z    SEL  0     **** SEL Z 16
     9 GLL5       11 GROUP        1 Z    GLL  0     **** GLL Z 20
@<TRIPOS>SET

