#    Name: 3sqq_99Z_1_ligand
#    Modification time : Mon Mar 24 18:04:04 2014

@<TRIPOS>MOLECULE
3sqq_99Z_1_ligand
   42    44     1     0     0
SMALL
NO_CHARGES


@<TRIPOS>ATOM
      1 N01       -95.7030   10.6110  -50.3950 N.2       1 99Z456      0.0000 
      2 N02       -97.0260   11.1690  -48.5350 N.pl3     1 99Z456      0.0000 
      3 N03       -94.0870    9.7070  -52.0970 N.pl3     1 99Z456      0.0000 
      4 N04       -99.9650    9.3320  -42.8290 N.pl3     1 99Z456      0.0000 
      5 C05       -94.1410    8.9760  -49.7020 C.2       1 99Z456      0.0000 
      6 C06       -94.5990    9.7570  -50.8010 C.2       1 99Z456      0.0000 
      7 C07       -95.9800   10.4200  -49.0610 C.2       1 99Z456      0.0000 
      8 C08       -97.8340   10.8440  -47.4320 C.ar      1 99Z456      0.0000 
      9 C09       -93.0200    7.9930  -49.9040 C.2       1 99Z456      0.0000 
     10 C10       -92.6050    7.1520  -48.7390 C.ar      1 99Z456      0.0000 
     11 C11       -91.2760    7.1740  -48.2250 C.ar      1 99Z456      0.0000 
     12 C12       -90.9940    6.3470  -47.1150 C.ar      1 99Z456      0.0000 
     13 C13       -91.9840    5.5300  -46.5360 C.ar      1 99Z456      0.0000 
     14 C14       -93.3010    5.5000  -47.0460 C.ar      1 99Z456      0.0000 
     15 C15       -93.6160    6.3230  -48.1630 C.ar      1 99Z456      0.0000 
     16 C16       -97.6700    9.6530  -46.6900 C.ar      1 99Z456      0.0000 
     17 C17       -98.5400    9.4330  -45.6220 C.ar      1 99Z456      0.0000 
     18 C18       -99.5230   10.3940  -45.3440 C.ar      1 99Z456      0.0000 
     19 C19       -99.6730   11.5760  -46.0820 C.ar      1 99Z456      0.0000 
     20 C20       -98.8160   11.8100  -47.1420 C.ar      1 99Z456      0.0000 
     21 C21       -90.1750    8.0560  -48.8280 C.3       1 99Z456      0.0000 
     22 O22       -92.4920    7.8800  -51.0250 O.2       1 99Z456      0.0000 
     23 O23      -100.9730   11.3310  -43.2960 O.2       1 99Z456      0.0000 
     24 O24      -101.4580    9.0060  -44.4850 O.2       1 99Z456      0.0000 
     25 S25       -94.9840    9.3050  -48.3360 S.3       1 99Z456      0.0000 
     26 S26      -100.6370   10.1240  -44.0380 S.o2      1 99Z456      0.0000 
     27 H         -97.2466   12.1041  -49.0233 H         1 99Z456      0.0000 
     28 H         -93.3361    9.0642  -52.2490 H         1 99Z456      0.0000 
     29 H         -94.5147   10.3181  -52.7630 H         1 99Z456      0.0000 
     30 H         -99.6154    8.4194  -43.0410 H         1 99Z456      0.0000 
     31 H         -99.9435    9.8073  -41.9494 H         1 99Z456      0.0000 
     32 H         -90.0399    6.3429  -46.7208 H         1 99Z456      0.0000 
     33 H         -91.7450    4.9416  -45.7240 H         1 99Z456      0.0000 
     34 H         -94.0058    4.9098  -46.6307 H         1 99Z456      0.0000 
     35 H         -94.5535    6.3230  -48.5506 H         1 99Z456      0.0000 
     36 H         -96.9491    8.9925  -46.9299 H         1 99Z456      0.0000 
     37 H         -98.4658    8.5931  -45.0539 H         1 99Z456      0.0000 
     38 H        -100.4013   12.2441  -45.8358 H         1 99Z456      0.0000 
     39 H         -98.8841   12.6528  -47.7032 H         1 99Z456      0.0000 
     40 H         -89.3058    7.9467  -48.3457 H         1 99Z456      0.0000 
     41 H         -90.0069    7.8353  -49.7888 H         1 99Z456      0.0000 
     42 H         -90.4127    9.0265  -48.7874 H         1 99Z456      0.0000 
@<TRIPOS>BOND
     1    6    1 1    
     2    7    1 2    
     3    7    2 1    
     4    8    2 1    
     5   27    2 1    
     6    6    3 1    
     7   28    3 1    
     8   29    3 1    
     9   26    4 1    
    10   30    4 1    
    11   31    4 1    
    12    6    5 2    
    13    9    5 1    
    14   25    5 1    
    15   25    7 1    
    16   16    8 ar   
    17   20    8 ar   
    18   10    9 1    
    19   22    9 2    
    20   11   10 ar   
    21   15   10 ar   
    22   12   11 ar   
    23   21   11 1    
    24   13   12 ar   
    25   32   12 1    
    26   14   13 ar   
    27   33   13 1    
    28   15   14 ar   
    29   34   14 1    
    30   35   15 1    
    31   17   16 ar   
    32   36   16 1    
    33   18   17 ar   
    34   37   17 1    
    35   19   18 ar   
    36   26   18 1    
    37   20   19 ar   
    38   38   19 1    
    39   39   20 1    
    40   40   21 1    
    41   41   21 1    
    42   42   21 1    
    43   26   23 2    
    44   26   24 2    
@<TRIPOS>SUBSTRUCTURE
     1 99Z456      1 GROUP   
@<TRIPOS>SET

