#    Name: 1ii0_ADP_1_INTS_M
#    Modification time : Tue Mar 25 07:04:57 2014

@<TRIPOS>MOLECULE
1ii0_ADP_1_INTS_M
   66     0    15     0     0
SMALL
NO_CHARGES


@<TRIPOS>ATOM
      1 NZ         18.9485   81.6440   39.6970 N.4       3 LYC4        0.0000 
      2 NZ         20.4300   82.7140   40.2560 N.4      13 LYL4        0.0000 
      3 NZ         17.4670   80.5740   39.1380 N.4       8 LYP4        0.0000 
      4 N          19.7690   83.5765   39.3735 N.am      2 SEC2        0.0000 
      5 N          20.4300   82.7140   40.2560 N.am     12 SEL2        0.0000 
      6 N          19.1080   84.4390   38.4910 N.am      7 SEP2        0.0000 
      7 N          21.6850   83.4000   40.0240 N.am      2 SEC2        0.0000 
      8 N          22.9400   84.0860   39.7920 N.am      7 SEP2        0.0000 
      9 NZ         17.7890   81.5755   40.2450 N.4       3 LYC4        0.0000 
     10 NZ         18.1110   82.5770   41.3520 N.4      13 LYL4        0.0000 
     11 N          17.4630   83.4250   42.0090 N.am      2 SEC2        0.0000 
     12 N          18.1110   82.5770   41.3520 N.am     12 SEL2        0.0000 
     13 N          16.8150   84.2730   42.6660 N.am      7 SEP2        0.0000 
     14 N          17.5100   82.0955   42.4180 N.am      2 SEC2        0.0000 
     15 N          16.9090   81.6140   43.4840 N.am      7 SEP2        0.0000 
     16 N          17.7890   81.5755   40.2450 N.am      2 SEC2        0.0000 
     17 N          17.4670   80.5740   39.1380 N.am      7 SEP2        0.0000 
     18 NZ         18.6555   80.6630   40.4495 N.4       3 LYC4        0.0000 
     19 NZ         19.8440   80.7520   41.7610 N.4      13 LYL4        0.0000 
     20 Zn         20.7695   80.3485   41.7620 Zn        4 ZIC7        0.0000 
     21 Zn         19.8440   80.7520   41.7610 Zn       14 ZIL7        0.0000 
     22 Zn         21.6950   79.9450   41.7630 Zn        9 ZIP7        0.0000 
     23 N          19.4250   80.3410   43.1940 N.am      2 SEC2        0.0000 
     24 N          19.8440   80.7520   41.7610 N.am     12 SEL2        0.0000 
     25 N          19.0060   79.9300   44.6270 N.am      7 SEP2        0.0000 
     26 N          19.8405   82.3320   45.9650 N.am      2 SEC2        0.0000 
     27 N          20.0040   83.2300   44.9310 N.am     12 SEL2        0.0000 
     28 N          19.6770   81.4340   46.9990 N.am      7 SEP2        0.0000 
     29 N          20.1350   83.7415   46.1565 N.am      2 SEC2        0.0000 
     30 N          20.2660   84.2530   47.3820 N.am      7 SEP2        0.0000 
     31 CA         19.7155   86.1470   41.2600 C.3       5 GLC5        0.0000 
     32 CA         20.3210   86.6820   43.1780 C.3      15 GLL5        0.0000 
     33 CA         19.1100   85.6120   39.3420 C.3      10 GLP5        0.0000 
     34 CA         18.7045   85.3235   43.6185 C.3       5 GLC5        0.0000 
     35 CA         17.0880   83.9650   44.0590 C.3      10 GLP5        0.0000 
     36 N          15.9975   86.9945   46.2200 N.am      2 SEC2        0.0000 
     37 N          17.2030   87.2830   46.7340 N.am     12 SEL2        0.0000 
     38 N          14.7920   86.7060   45.7060 N.am      7 SEP2        0.0000 
     39 CA         14.5660   90.1190   47.1190 C.3       5 GLC5        0.0000 
     40 CA         16.3420   89.4790   47.9750 C.3      15 GLL5        0.0000 
     41 CA         12.7900   90.7590   46.2630 C.3      10 GLP5        0.0000 
     42 CA         15.2875   91.2475   48.4325 C.3       5 GLC5        0.0000 
     43 CA         14.2330   93.0160   48.8900 C.3      10 GLP5        0.0000 
     44 CA         16.6760   89.9220   49.9555 C.3       5 GLC5        0.0000 
     45 CA         17.0100   90.3650   51.9360 C.3      10 GLP5        0.0000 
     46 O          14.3050   88.1785   47.8925 O.2       1 ALC1        0.0000 
     47 O          15.0320   89.1970   48.2490 O.2      11 ALL1        0.0000 
     48 O          13.5780   87.1600   47.5360 O.2       6 ALP1        0.0000 
     49 N          16.5115   91.6550   49.2495 N.am      2 SEC2        0.0000 
     50 N          16.7680   90.7170   48.3410 N.am     12 SEL2        0.0000 
     51 N          16.2550   92.5930   50.1580 N.am      7 SEP2        0.0000 
     52 CA         16.9340   92.5275   47.1945 C.3       5 GLC5        0.0000 
     53 CA         18.0090   91.1520   48.0900 C.3      15 GLL5        0.0000 
     54 CA         15.8590   93.9030   46.2990 C.3      10 GLP5        0.0000 
     55 CA         17.9790   91.3175   49.8100 C.3       5 GLC5        0.0000 
     56 CA         17.9490   91.4830   51.5300 C.3      10 GLP5        0.0000 
     57 CA         19.0030   89.6505   49.4135 C.3       5 GLC5        0.0000 
     58 CA         19.9970   88.1490   50.7370 C.3      10 GLP5        0.0000 
     59 CA         22.7495   89.1238   47.0330 C.3       5 GLC5        0.0000 
     60 CA         20.6500   88.5260   46.0930 C.3      15 GLL5        0.0000 
     61 CA         24.3160   90.2750   47.8810 C.3      10 GLP5        0.0000 
     62 CA         20.3320   87.4112   47.9170 C.3       5 GLC5        0.0000 
     63 CA         21.7160   87.4190   46.2770 C.3      15 GLL5        0.0000 
     64 CA         19.4810   86.8500   49.6490 C.3      10 GLP5        0.0000 
     65 CA         18.5493   87.9560   48.5104 C.3       5 GLC5        0.0000 
     66 CA         17.2240   88.5550   47.2860 C.3      15 GLL5        0.0000 
@<TRIPOS>BOND
@<TRIPOS>SUBSTRUCTURE
     1 ALC1       46 GROUP        1 X    ALC  0     ROOT ALC X 1
     2 SEC2        4 GROUP        1 X    SEC  0     **** SEC X 2
     3 LYC4        1 GROUP        1 X    LYC  0     **** LYC X 4
     4 ZIC7       20 GROUP        1 X    ZIC  0     **** ZIC X 5
     5 GLC5       31 GROUP        1 X    GLC  0     **** GLC X 6
     6 ALP1       48 GROUP        1 Y    ALP  0     ROOT ALP Y 8
     7 SEP2        6 GROUP        1 Y    SEP  0     **** SEP Y 9
     8 LYP4        3 GROUP        1 Y    LYP  0     **** LYP Y 11
     9 ZIP7       22 GROUP        1 Y    ZIP  0     **** ZIP Y 12
    10 GLP5       33 GROUP        1 Y    GLP  0     **** GLP Y 13
    11 ALL1       47 GROUP        1 Z    ALL  0     ROOT ALL Z 15
    12 SEL2        5 GROUP        1 Z    SEL  0     **** SEL Z 16
    13 LYL4        2 GROUP        1 Z    LYL  0     **** LYL Z 18
    14 ZIL7       21 GROUP        1 Z    ZIL  0     **** ZIL Z 19
    15 GLL5       32 GROUP        1 Z    GLL  0     **** GLL Z 20
@<TRIPOS>SET

