#    Name: 1ii0_ADP_1_ligand
#    Modification time : Tue Mar 25 07:04:57 2014

@<TRIPOS>MOLECULE
1ii0_ADP_1_ligand
   39    41     1     0     0
SMALL
NO_CHARGES


@<TRIPOS>ATOM
      1 PB         19.6120   82.2090   41.3950 P.3       1 ADP590      0.0000 
      2 O1B        20.4300   82.7140   40.2560 O.co2     1 ADP590      0.0000 
      3 O2B        18.1110   82.5770   41.3520 O.co2     1 ADP590      0.0000 
      4 O3B        19.8440   80.7520   41.7610 O.co2     1 ADP590      0.0000 
      5 PA         20.6530   83.9100   43.8080 P.3       1 ADP590      0.0000 
      6 O1A        22.0510   83.4460   43.6570 O.co2     1 ADP590      0.0000 
      7 O2A        20.0040   83.2300   44.9310 O.co2     1 ADP590      0.0000 
      8 O3A        20.0270   83.0250   42.6310 O.3       1 ADP590      0.0000 
      9 O5'        20.9320   85.4030   43.3530 O.3       1 ADP590      0.0000 
     10 C5'        20.3210   86.6820   43.1780 C.3       1 ADP590      0.0000 
     11 C4'        21.4470   87.4930   43.7780 C.3       1 ADP590      0.0000 
     12 O4'        20.6080   88.3030   44.6820 O.3       1 ADP590      0.0000 
     13 C3'        22.4840   87.3330   44.8890 C.3       1 ADP590      0.0000 
     14 O3'        23.4410   88.4140   44.7390 O.3       1 ADP590      0.0000 
     15 C2'        21.7160   87.4190   46.2770 C.3       1 ADP590      0.0000 
     16 O2'        22.6060   87.3300   47.4260 O.3       1 ADP590      0.0000 
     17 C1'        20.6500   88.5260   46.0930 C.3       1 ADP590      0.0000 
     18 N9         19.1820   88.2180   46.3960 N.pl3     1 ADP590      0.0000 
     19 C8         18.3780   87.1720   46.2600 C.2       1 ADP590      0.0000 
     20 N7         17.2030   87.2830   46.7340 N.2       1 ADP590      0.0000 
     21 C5         17.2240   88.5550   47.2860 C.ar      1 ADP590      0.0000 
     22 C6         16.3420   89.4790   47.9750 C.ar      1 ADP590      0.0000 
     23 N6         15.0320   89.1970   48.2490 N.pl3     1 ADP590      0.0000 
     24 N1         16.7680   90.7170   48.3410 N.ar      1 ADP590      0.0000 
     25 C2         18.0090   91.1520   48.0900 C.ar      1 ADP590      0.0000 
     26 N3         18.8860   90.3390   47.4730 N.ar      1 ADP590      0.0000 
     27 C4         18.4520   89.1070   47.1130 C.ar      1 ADP590      0.0000 
     28 H          19.4625   86.8010   43.7671 H         1 ADP590      0.0000 
     29 H          20.2136   86.9410   42.1683 H         1 ADP590      0.0000 
     30 H          21.7957   88.2619   43.0829 H         1 ADP590      0.0000 
     31 H          22.9267   86.3796   44.8126 H         1 ADP590      0.0000 
     32 H          21.0917   86.4303   46.2267 H         1 ADP590      0.0000 
     33 H          20.9671   89.4234   46.3101 H         1 ADP590      0.0000 
     34 H          18.7179   86.3132   45.7837 H         1 ADP590      0.0000 
     35 H          14.4113   89.9803   48.2838 H         1 ADP590      0.0000 
     36 H          14.8098   88.2323   48.3905 H         1 ADP590      0.0000 
     37 H          18.2970   92.1133   48.3693 H         1 ADP590      0.0000 
     38 H          24.2885   88.0668   45.1406 H         1 ADP590      0.0000 
     39 H          23.5283   87.3879   47.0439 H         1 ADP590      0.0000 
@<TRIPOS>BOND
     1    2    1 ar   
     2    3    1 ar   
     3    4    1 ar   
     4    8    1 1    
     5    6    5 ar   
     6    7    5 ar   
     7    8    5 1    
     8    9    5 1    
     9   10    9 1    
    10   11   10 1    
    11   28   10 1    
    12   29   10 1    
    13   12   11 1    
    14   13   11 1    
    15   30   11 1    
    16   17   12 1    
    17   14   13 1    
    18   15   13 1    
    19   31   13 1    
    20   38   14 1    
    21   16   15 1    
    22   17   15 1    
    23   32   15 1    
    24   39   16 1    
    25   18   17 1    
    26   33   17 1    
    27   19   18 1    
    28   27   18 1    
    29   20   19 2    
    30   34   19 1    
    31   21   20 1    
    32   22   21 ar   
    33   27   21 ar   
    34   23   22 1    
    35   24   22 ar   
    36   35   23 1    
    37   36   23 1    
    38   25   24 ar   
    39   26   25 ar   
    40   37   25 1    
    41   27   26 ar   
@<TRIPOS>SUBSTRUCTURE
     1 ADP590      1 GROUP   
@<TRIPOS>SET

