#    Name: 1omz_UD2_1_INTS_M
#    Modification time : Mon Mar 24 20:20:23 2014

@<TRIPOS>MOLECULE
1omz_UD2_1_INTS_M
   77     0    15     0     0
SMALL
NO_CHARGES


@<TRIPOS>ATOM
      1 CA        -25.2145  -52.9210  -45.0660 C.3       5 GLC5        0.0000 
      2 CA        -24.2040  -54.4890  -44.3500 C.3      15 GLL5        0.0000 
      3 CA        -26.2250  -51.3530  -45.7820 C.3      10 GLP5        0.0000 
      4 CA        -21.7355  -56.4215  -37.0170 C.3       5 GLC5        0.0000 
      5 CA        -21.1630  -58.3170  -37.8420 C.3      15 GLL5        0.0000 
      6 CA        -22.3080  -54.5260  -36.1920 C.3      10 GLP5        0.0000 
      7 O         -22.3595  -58.8455  -40.2830 O.2       1 ALC1        0.0000 
      8 O         -22.1490  -57.6210  -39.9650 O.2      11 ALL1        0.0000 
      9 O         -22.5700  -60.0700  -40.6010 O.2       6 ALP1        0.0000 
     10 N         -26.1895  -58.1375  -41.2470 N.am      2 SEC2        0.0000 
     11 N         -24.9010  -57.9560  -40.7980 N.am     12 SEL2        0.0000 
     12 N         -27.4780  -58.3190  -41.6960 N.am      7 SEP2        0.0000 
     13 O         -24.6940  -59.4290  -41.0255 O.2       1 ALC1        0.0000 
     14 O         -24.9010  -57.9560  -40.7980 O.2      11 ALL1        0.0000 
     15 O         -24.4870  -60.9020  -41.2530 O.2       6 ALP1        0.0000 
     16 O         -23.7355  -59.0130  -40.6995 O.2       1 ALC1        0.0000 
     17 O         -26.7070  -54.7670  -42.4010 O.2       1 ALC1        0.0000 
     18 O         -25.2950  -55.2740  -41.6930 O.2      11 ALL1        0.0000 
     19 O         -28.1190  -54.2600  -43.1090 O.2       6 ALP1        0.0000 
     20 N         -22.7715  -53.8760  -41.4940 N.am      2 SEC2        0.0000 
     21 N         -22.5150  -55.0150  -42.6830 N.am     12 SEL2        0.0000 
     22 N         -23.0280  -52.7370  -40.3050 N.am      7 SEP2        0.0000 
     23 O         -24.5555  -53.6715  -46.8060 O.2       1 ALC1        0.0000 
     24 O         -23.5460  -54.4300  -45.6100 O.2      11 ALL1        0.0000 
     25 O         -25.5650  -52.9130  -48.0020 O.2       6 ALP1        0.0000 
     26 O         -25.8065  -59.7050  -51.5110 O.2       1 ALC1        0.0000 
     27 O         -24.8550  -59.4920  -50.5000 O.2      11 ALL1        0.0000 
     28 O         -26.7580  -59.9180  -52.5220 O.2       6 ALP1        0.0000 
     29 CA        -22.4700  -59.9325  -50.9590 C.3       5 GLC5        0.0000 
     30 CA        -22.8110  -58.6100  -49.5470 C.3      15 GLL5        0.0000 
     31 CA        -22.1290  -61.2550  -52.3710 C.3      10 GLP5        0.0000 
     32 CA        -24.7185  -58.1595  -47.5030 C.3       5 GLC5        0.0000 
     33 CA        -23.1200  -59.2720  -48.4220 C.3      15 GLL5        0.0000 
     34 CA        -26.3170  -57.0470  -46.5840 C.3      10 GLP5        0.0000 
     35 N         -27.3600  -60.6195  -48.2250 N.am      2 SEC2        0.0000 
     36 N         -26.2460  -60.8690  -49.2730 N.am     12 SEL2        0.0000 
     37 N         -28.4740  -60.3700  -47.1770 N.am      7 SEP2        0.0000 
     38 N         -27.5675  -61.0225  -49.8105 N.am      2 SEC2        0.0000 
     39 N         -28.8890  -61.1760  -50.3480 N.am      7 SEP2        0.0000 
     40 N         -24.4765  -58.4720  -52.8645 N.am      2 SEC2        0.0000 
     41 N         -23.4980  -58.1300  -51.7470 N.am     12 SEL2        0.0000 
     42 N         -25.4550  -58.8140  -53.9820 N.am      7 SEP2        0.0000 
     43 CA        -26.5575  -61.7835  -47.1240 C.3       5 GLC5        0.0000 
     44 CA        -24.5950  -60.7800  -47.0120 C.3      15 GLL5        0.0000 
     45 CA        -28.5200  -62.7870  -47.2360 C.3      10 GLP5        0.0000 
     46 CA        -25.4560  -58.9135  -46.7980 C.3       5 GLC5        0.0000 
     47 O         -22.6930  -63.7335  -46.4155 O.2       1 ALC1        0.0000 
     48 O         -23.5780  -63.0190  -47.2760 O.2      11 ALL1        0.0000 
     49 O         -21.8080  -64.4480  -45.5550 O.2       6 ALP1        0.0000 
     50 O         -22.9065  -64.4600  -47.2095 O.2       1 ALC1        0.0000 
     51 O         -22.2350  -65.9010  -47.1430 O.2       6 ALP1        0.0000 
     52 CA        -25.1625  -58.7370  -45.6625 C.3       5 GLC5        0.0000 
     53 CA        -24.0080  -60.4270  -44.7410 C.3      15 GLL5        0.0000 
     54 N         -23.5765  -63.9265  -43.7970 N.am      2 SEC2        0.0000 
     55 N         -24.3180  -62.8120  -44.5940 N.am     12 SEL2        0.0000 
     56 N         -22.8350  -65.0410  -43.0000 N.am      7 SEP2        0.0000 
     57 O         -24.9935  -63.8810  -45.1840 O.2       1 ALC1        0.0000 
     58 O         -24.3180  -62.8120  -44.5940 O.2      11 ALL1        0.0000 
     59 O         -25.6690  -64.9500  -45.7740 O.2       6 ALP1        0.0000 
     60 NZ        -19.7380  -61.3010  -44.5835 N.4       3 LYC4        0.0000 
     61 NZ        -19.9470  -59.8710  -43.8110 N.4      13 LYL4        0.0000 
     62 NZ        -18.4100  -62.7040  -46.0740 N.4       8 LYP4        0.0000 
     63 Zn        -19.1785  -59.8690  -43.1275 Zn        4 ZIC7        0.0000 
     64 Zn        -19.9470  -59.8710  -43.8110 Zn       14 ZIL7        0.0000 
     65 Zn        -18.4100  -59.8670  -42.4440 Zn        9 ZIP7        0.0000 
     66 N         -19.7380  -61.3010  -44.5835 N.am      2 SEC2        0.0000 
     67 N         -19.9470  -59.8710  -43.8110 N.am     12 SEL2        0.0000 
     68 N         -19.5290  -62.7310  -45.3560 N.am      7 SEP2        0.0000 
     69 NZ        -19.0110  -61.0155  -46.1575 N.4       3 LYC4        0.0000 
     70 NZ        -19.6120  -59.3270  -46.2410 N.4      13 LYL4        0.0000 
     71 Zn        -18.5260  -58.6260  -42.6235 Zn        4 ZIC7        0.0000 
     72 Zn        -18.6420  -57.3850  -42.8030 Zn       14 ZIL7        0.0000 
     73 CA        -25.6427  -56.0689  -44.3339 C.3       5 GLC5        0.0000 
     74 CA        -23.6270  -55.5920  -43.4640 C.3      15 GLL5        0.0000 
     75 CA        -27.1070  -56.9290  -44.9940 C.3      10 GLP5        0.0000 
     76 CA        -22.9591  -61.3321  -42.9206 C.3       5 GLC5        0.0000 
     77 CA        -22.6000  -62.3650  -41.2160 C.3      10 GLP5        0.0000 
@<TRIPOS>BOND
@<TRIPOS>SUBSTRUCTURE
     1 ALC1        7 GROUP        1 X    ALC  0     ROOT ALC X 1
     2 SEC2       10 GROUP        1 X    SEC  0     **** SEC X 2
     3 LYC4       60 GROUP        1 X    LYC  0     **** LYC X 4
     4 ZIC7       63 GROUP        1 X    ZIC  0     **** ZIC X 5
     5 GLC5        1 GROUP        1 X    GLC  0     **** GLC X 6
     6 ALP1        9 GROUP        1 Y    ALP  0     ROOT ALP Y 8
     7 SEP2       12 GROUP        1 Y    SEP  0     **** SEP Y 9
     8 LYP4       62 GROUP        1 Y    LYP  0     **** LYP Y 11
     9 ZIP7       65 GROUP        1 Y    ZIP  0     **** ZIP Y 12
    10 GLP5        3 GROUP        1 Y    GLP  0     **** GLP Y 13
    11 ALL1        8 GROUP        1 Z    ALL  0     ROOT ALL Z 15
    12 SEL2       11 GROUP        1 Z    SEL  0     **** SEL Z 16
    13 LYL4       61 GROUP        1 Z    LYL  0     **** LYL Z 18
    14 ZIL7       64 GROUP        1 Z    ZIL  0     **** ZIL Z 19
    15 GLL5        2 GROUP        1 Z    GLL  0     **** GLL Z 20
@<TRIPOS>SET

