#    Name: 1omz_UD2_1_ligand
#    Modification time : Mon Mar 24 20:20:23 2014

@<TRIPOS>MOLECULE
1omz_UD2_1_ligand
   64    66     1     0     0
SMALL
NO_CHARGES


@<TRIPOS>ATOM
      1 C1'       -21.8400  -55.9540  -41.7710 C.3       1 UD2405      0.0000 
      2 C2'       -22.8550  -56.6480  -40.8240 C.3       1 UD2405      0.0000 
      3 C3'       -23.9630  -57.3320  -41.6600 C.3       1 UD2405      0.0000 
      4 C4'       -24.6790  -56.2650  -42.5310 C.3       1 UD2405      0.0000 
      5 C5'       -23.6270  -55.5920  -43.4640 C.3       1 UD2405      0.0000 
      6 C6'       -24.2040  -54.4890  -44.3500 C.3       1 UD2405      0.0000 
      7 C7'       -21.3950  -57.2570  -38.9110 C.2       1 UD2405      0.0000 
      8 C8'       -21.1630  -58.3170  -37.8420 C.3       1 UD2405      0.0000 
      9 N2'       -22.1490  -57.6210  -39.9650 N.am      1 UD2405      0.0000 
     10 O1'       -20.9890  -56.9380  -42.3840 O.3       1 UD2405      0.0000 
     11 O3'       -24.9010  -57.9560  -40.7980 O.3       1 UD2405      0.0000 
     12 O4'       -25.2950  -55.2740  -41.6930 O.3       1 UD2405      0.0000 
     13 O5'       -22.5150  -55.0150  -42.6830 O.3       1 UD2405      0.0000 
     14 O6'       -23.5460  -54.4300  -45.6100 O.3       1 UD2405      0.0000 
     15 O7'       -20.8850  -56.1290  -38.7770 O.2       1 UD2405      0.0000 
     16 N1        -24.2940  -60.0630  -48.2840 N.am      1 UD2405      0.0000 
     17 C2        -25.2180  -60.2000  -49.3430 C.2       1 UD2405      0.0000 
     18 N3        -24.8550  -59.4920  -50.5000 N.am      1 UD2405      0.0000 
     19 C4        -23.6990  -58.6940  -50.6850 C.2       1 UD2405      0.0000 
     20 C5        -22.8110  -58.6100  -49.5470 C.2       1 UD2405      0.0000 
     21 C6        -23.1200  -59.2720  -48.4220 C.2       1 UD2405      0.0000 
     22 O2        -26.2460  -60.8690  -49.2730 O.2       1 UD2405      0.0000 
     23 O4        -23.4980  -58.1300  -51.7470 O.2       1 UD2405      0.0000 
     24 C1B       -24.5950  -60.7800  -47.0120 C.3       1 UD2405      0.0000 
     25 C2B       -23.4560  -61.7440  -46.6720 C.3       1 UD2405      0.0000 
     26 O2'       -23.5780  -63.0190  -47.2760 O.3       1 UD2405      0.0000 
     27 C3B       -23.4630  -61.7920  -45.1520 C.3       1 UD2405      0.0000 
     28 C4B       -24.0080  -60.4270  -44.7410 C.3       1 UD2405      0.0000 
     29 O4B       -24.6990  -59.8590  -45.9020 O.3       1 UD2405      0.0000 
     30 O3B       -24.3180  -62.8120  -44.5940 O.3       1 UD2405      0.0000 
     31 C5B       -22.9010  -59.4890  -44.3040 C.3       1 UD2405      0.0000 
     32 O5B       -21.9440  -59.3210  -45.3360 O.3       1 UD2405      0.0000 
     33 PA        -20.3930  -59.1220  -45.0210 P.3       1 UD2405      0.0000 
     34 O1A       -19.9470  -59.8710  -43.8110 O.co2     1 UD2405      0.0000 
     35 O2A       -19.6120  -59.3270  -46.2410 O.co2     1 UD2405      0.0000 
     36 O3A       -20.2220  -57.5900  -44.6800 O.3       1 UD2405      0.0000 
     37 PB        -19.7830  -56.7240  -43.4420 P.3       1 UD2405      0.0000 
     38 O1B       -18.6420  -57.3850  -42.8030 O.co2     1 UD2405      0.0000 
     39 O2B       -19.7750  -55.2880  -43.8690 O.co2     1 UD2405      0.0000 
     40 H         -21.2010  -55.3339  -41.0647 H         1 UD2405      0.0000 
     41 H         -23.3154  -55.8790  -40.2208 H         1 UD2405      0.0000 
     42 H         -23.4911  -58.0326  -42.3233 H         1 UD2405      0.0000 
     43 H         -25.3919  -56.7683  -43.1521 H         1 UD2405      0.0000 
     44 H         -23.2227  -56.3696  -44.1217 H         1 UD2405      0.0000 
     45 H         -24.1121  -53.5372  -43.7967 H         1 UD2405      0.0000 
     46 H         -25.2851  -54.6861  -44.4631 H         1 UD2405      0.0000 
     47 H         -22.2747  -58.6227  -40.2323 H         1 UD2405      0.0000 
     48 H         -25.5221  -59.5596  -51.3372 H         1 UD2405      0.0000 
     49 H         -21.9672  -58.0390  -49.6461 H         1 UD2405      0.0000 
     50 H         -22.4851  -59.2252  -47.5826 H         1 UD2405      0.0000 
     51 H         -25.4920  -61.3567  -47.1133 H         1 UD2405      0.0000 
     52 H         -22.5296  -61.2327  -46.9578 H         1 UD2405      0.0000 
     53 H         -22.4590  -61.8521  -44.8015 H         1 UD2405      0.0000 
     54 H         -24.7014  -60.5636  -43.9335 H         1 UD2405      0.0000 
     55 H         -22.4461  -59.9079  -43.3901 H         1 UD2405      0.0000 
     56 H         -23.3657  -58.5297  -44.0185 H         1 UD2405      0.0000 
     57 H         -20.6990  -59.1220  -38.2117 H         1 UD2405      0.0000 
     58 H         -20.5980  -57.9714  -37.0927 H         1 UD2405      0.0000 
     59 H         -22.0222  -58.6329  -37.4396 H         1 UD2405      0.0000 
     60 H         -24.8019  -58.9355  -40.9735 H         1 UD2405      0.0000 
     61 H         -26.1200  -54.9958  -42.1849 H         1 UD2405      0.0000 
     62 H         -24.1830  -53.9487  -46.2122 H         1 UD2405      0.0000 
     63 H         -22.6825  -63.4481  -47.1577 H         1 UD2405      0.0000 
     64 H         -24.6130  -63.3592  -45.3773 H         1 UD2405      0.0000 
@<TRIPOS>BOND
     1    2    1 1    
     2   10    1 1    
     3   13    1 1    
     4   40    1 1    
     5    3    2 1    
     6    9    2 1    
     7   41    2 1    
     8    4    3 1    
     9   11    3 1    
    10   42    3 1    
    11    5    4 1    
    12   12    4 1    
    13   43    4 1    
    14    6    5 1    
    15   13    5 1    
    16   44    5 1    
    17   14    6 1    
    18   45    6 1    
    19   46    6 1    
    20    8    7 1    
    21    9    7 am   
    22   15    7 2    
    23   57    8 1    
    24   58    8 1    
    25   59    8 1    
    26   47    9 1    
    27   37   10 1    
    28   60   11 1    
    29   61   12 1    
    30   62   14 1    
    31   17   16 1    
    32   21   16 1    
    33   24   16 1    
    34   18   17 1    
    35   22   17 2    
    36   19   18 1    
    37   48   18 1    
    38   20   19 1    
    39   23   19 2    
    40   21   20 2    
    41   49   20 1    
    42   50   21 1    
    43   25   24 1    
    44   29   24 1    
    45   51   24 1    
    46   26   25 1    
    47   27   25 1    
    48   52   25 1    
    49   63   26 1    
    50   28   27 1    
    51   30   27 1    
    52   53   27 1    
    53   29   28 1    
    54   31   28 1    
    55   54   28 1    
    56   64   30 1    
    57   32   31 1    
    58   55   31 1    
    59   56   31 1    
    60   33   32 1    
    61   34   33 ar   
    62   35   33 ar   
    63   36   33 1    
    64   37   36 1    
    65   38   37 ar   
    66   39   37 ar   
@<TRIPOS>SUBSTRUCTURE
     1 UD2405      1 GROUP   
@<TRIPOS>SET

