#    Name: 3tya_78H_1_INTS_M
#    Modification time : Mon Mar 24 21:09:14 2014

@<TRIPOS>MOLECULE
3tya_78H_1_INTS_M
   55     0     9     0     0
SMALL
NO_CHARGES


@<TRIPOS>ATOM
      1 N         -80.8120   87.7060   92.4250 N.am      2 SEC2        0.0000 
      2 N         -80.4530   86.4850   91.7260 N.am      8 SEL2        0.0000 
      3 N         -81.1710   88.9270   93.1240 N.am      5 SEP2        0.0000 
      4 O         -79.3780   84.2810   89.9615 O.2       1 ALC1        0.0000 
      5 O         -79.2490   84.6310   91.1590 O.2       7 ALL1        0.0000 
      6 O         -79.5070   83.9310   88.7640 O.2       4 ALP1        0.0000 
      7 CA        -75.7330   85.3455   92.8080 C.3       3 GLC5        0.0000 
      8 CA        -77.6290   85.0990   93.4110 C.3       9 GLL5        0.0000 
      9 CA        -73.8370   85.5920   92.2050 C.3       6 GLP5        0.0000 
     10 N         -80.0570   87.9785   93.5265 N.am      2 SEC2        0.0000 
     11 N         -78.9430   87.0300   93.9290 N.am      8 SEL2        0.0000 
     12 O         -75.8455   84.3600   95.4800 O.2       1 ALC1        0.0000 
     13 O         -76.8300   85.2960   94.4670 O.2       7 ALL1        0.0000 
     14 O         -74.8610   83.4240   96.4930 O.2       4 ALP1        0.0000 
     15 N         -76.7310   82.5695   92.9345 N.am      2 SEC2        0.0000 
     16 N         -77.3850   84.0450   92.6020 N.am      8 SEL2        0.0000 
     17 N         -76.0770   81.0940   93.2670 N.am      5 SEP2        0.0000 
     18 O         -76.8640   81.8515   90.8430 O.2       1 ALC1        0.0000 
     19 O         -77.8450   82.6470   90.6680 O.2       7 ALL1        0.0000 
     20 O         -75.8830   81.0560   91.0180 O.2       4 ALP1        0.0000 
     21 O         -78.6760   83.2890   89.7160 O.2       1 ALC1        0.0000 
     22 CA        -74.9820   87.3515   96.0885 C.3       3 GLC5        0.0000 
     23 CA        -76.8720   86.5450   95.2270 C.3       9 GLL5        0.0000 
     24 CA        -73.0920   88.1580   96.9500 C.3       6 GLP5        0.0000 
     25 CA        -75.3545   86.0685   93.7160 C.3       3 GLC5        0.0000 
     26 CA        -77.4180   88.9685   94.2435 C.3       3 GLC5        0.0000 
     27 CA        -78.5010   88.4540   95.8980 C.3       9 GLL5        0.0000 
     28 CA        -76.3350   89.4830   92.5890 C.3       6 GLP5        0.0000 
     29 CA        -80.2140   88.8230   95.1210 C.3       3 GLC5        0.0000 
     30 CA        -81.9270   89.1920   94.3440 C.3       6 GLP5        0.0000 
     31 CA        -82.1625   91.2120   96.0865 C.3       3 GLC5        0.0000 
     32 CA        -80.5080   91.9160   96.9940 C.3       9 GLL5        0.0000 
     33 CA        -83.8170   90.5080   95.1790 C.3       6 GLP5        0.0000 
     34 CA        -81.3395   91.5885   94.4675 C.3       3 GLC5        0.0000 
     35 CA        -79.8230   92.8520   94.8740 C.3       9 GLL5        0.0000 
     36 CA        -82.8560   90.3250   94.0610 C.3       6 GLP5        0.0000 
     37 CA        -82.4630   92.4180   95.6335 C.3       3 GLC5        0.0000 
     38 CA        -80.6010   92.9270   96.0280 C.3       9 GLL5        0.0000 
     39 CA        -84.3250   91.9090   95.2390 C.3       6 GLP5        0.0000 
     40 N         -83.1350   94.8315   96.0205 N.am      2 SEC2        0.0000 
     41 N         -81.6280   94.9820   95.3800 N.am      8 SEL2        0.0000 
     42 N         -84.6420   94.6810   96.6610 N.am      5 SEP2        0.0000 
     43 N         -82.4615   96.1080   95.5915 N.am      2 SEC2        0.0000 
     44 N         -83.2950   97.2340   95.8030 N.am      5 SEP2        0.0000 
     45 N         -83.4615   94.4340   96.9850 N.am      2 SEC2        0.0000 
     46 N         -82.2810   94.1870   97.3090 N.am      8 SEL2        0.0000 
     47 CA        -77.5830   86.1955   91.3085 C.3       3 GLC5        0.0000 
     48 CA        -78.6890   85.9710   93.1230 C.3       9 GLL5        0.0000 
     49 CA        -77.0070   86.8560   89.3500 C.3       6 GLP5        0.0000 
     50 CA        -79.3105   83.9030   93.8145 C.3       3 GLC5        0.0000 
     51 CA        -80.4620   82.2710   94.3620 C.3       6 GLP5        0.0000 
     52 CA        -80.1180   92.7480   92.9497 C.3       3 GLC5        0.0000 
     53 CA        -78.9570   91.7800   94.6850 C.3       9 GLL5        0.0000 
     54 CA        -80.8460   93.1800   91.1200 C.3       6 GLP5        0.0000 
     55 CA        -80.5158   90.2437   94.8991 C.3       3 GLC5        0.0000 
@<TRIPOS>BOND
@<TRIPOS>SUBSTRUCTURE
     1 ALC1        4 GROUP        1 X    ALC  0     ROOT ALC X 1
     2 SEC2        1 GROUP        1 X    SEC  0     **** SEC X 2
     3 GLC5        7 GROUP        1 X    GLC  0     **** GLC X 6
     4 ALP1        6 GROUP        1 Y    ALP  0     ROOT ALP Y 8
     5 SEP2        3 GROUP        1 Y    SEP  0     **** SEP Y 9
     6 GLP5        9 GROUP        1 Y    GLP  0     **** GLP Y 13
     7 ALL1        5 GROUP        1 Z    ALL  0     ROOT ALL Z 15
     8 SEL2        2 GROUP        1 Z    SEL  0     **** SEL Z 16
     9 GLL5        8 GROUP        1 Z    GLL  0     **** GLL Z 20
@<TRIPOS>SET

