#    Name: 3tya_78H_1_ligand
#    Modification time : Mon Mar 24 21:09:14 2014

@<TRIPOS>MOLECULE
3tya_78H_1_ligand
   36    38     1     0     0
SMALL
NO_CHARGES


@<TRIPOS>ATOM
      1 O4        -80.4530   86.4850   91.7260 O.2       1 78H801      0.0000 
      2 C4        -79.4920   85.7320   92.0040 C.2       1 78H801      0.0000 
      3 C5        -78.6890   85.9710   93.1230 C.2       1 78H801      0.0000 
      4 N3        -79.2490   84.6310   91.1590 N.am      1 78H801      0.0000 
      5 C9        -77.6290   85.0990   93.4110 C.2       1 78H801      0.0000 
      6 N5        -78.9430   87.0300   93.9290 N.2       1 78H801      0.0000 
      7 C2        -78.1550   83.8140   91.5200 C.2       1 78H801      0.0000 
      8 N8        -76.8300   85.2960   94.4670 N.pl3     1 78H801      0.0000 
      9 N1        -77.3850   84.0450   92.6020 N.2       1 78H801      0.0000 
     10 C6        -78.1760   87.2800   95.0120 C.2       1 78H801      0.0000 
     11 N2        -77.8450   82.6470   90.6680 N.pl3     1 78H801      0.0000 
     12 C7        -76.8720   86.5450   95.2270 C.3       1 78H801      0.0000 
     13 C10       -78.5010   88.4540   95.8980 C.3       1 78H801      0.0000 
     14 N11       -77.9660   89.7220   95.4020 N.pl3     1 78H801      0.0000 
     15 C15       -78.8630   90.7780   95.6430 C.ar      1 78H801      0.0000 
     16 C16       -79.6410   90.8440   96.8040 C.ar      1 78H801      0.0000 
     17 C17       -78.9570   91.7800   94.6850 C.ar      1 78H801      0.0000 
     18 C18       -80.5080   91.9160   96.9940 C.ar      1 78H801      0.0000 
     19 C19       -79.8230   92.8520   94.8740 C.ar      1 78H801      0.0000 
     20 C20       -80.6010   92.9270   96.0280 C.ar      1 78H801      0.0000 
     21 C21       -81.5360   94.0940   96.2140 C.2       1 78H801      0.0000 
     22 O22       -81.6280   94.9820   95.3800 O.co2     1 78H801      0.0000 
     23 O23       -82.2810   94.1870   97.3090 O.co2     1 78H801      0.0000 
     24 H         -79.8080   84.4410   90.3633 H         1 78H801      0.0000 
     25 H         -76.1525   84.5852   94.7940 H         1 78H801      0.0000 
     26 H         -77.4368   81.8602   91.1310 H         1 78H801      0.0000 
     27 H         -78.0686   82.7389   89.6976 H         1 78H801      0.0000 
     28 H         -76.0447   87.2063   94.9277 H         1 78H801      0.0000 
     29 H         -76.7567   86.3454   96.3032 H         1 78H801      0.0000 
     30 H         -78.1089   88.2453   96.9147 H         1 78H801      0.0000 
     31 H         -79.6036   88.5194   96.0032 H         1 78H801      0.0000 
     32 H         -77.1186   89.7915   94.9763 H         1 78H801      0.0000 
     33 H         -79.5703   90.1043   97.5097 H         1 78H801      0.0000 
     34 H         -78.3831   91.7294   93.8308 H         1 78H801      0.0000 
     35 H         -81.0835   91.9703   97.8437 H         1 78H801      0.0000 
     36 H         -79.8902   93.5909   94.1620 H         1 78H801      0.0000 
@<TRIPOS>BOND
     1    2    1 2    
     2    3    2 1    
     3    4    2 am   
     4    5    3 2    
     5    6    3 1    
     6    7    4 1    
     7   24    4 1    
     8    8    5 1    
     9    9    5 1    
    10   10    6 2    
    11    9    7 2    
    12   11    7 1    
    13   12    8 1    
    14   25    8 1    
    15   12   10 1    
    16   13   10 1    
    17   26   11 1    
    18   27   11 1    
    19   28   12 1    
    20   29   12 1    
    21   14   13 1    
    22   30   13 1    
    23   31   13 1    
    24   15   14 1    
    25   32   14 1    
    26   16   15 ar   
    27   17   15 ar   
    28   18   16 ar   
    29   33   16 1    
    30   19   17 ar   
    31   34   17 1    
    32   20   18 ar   
    33   35   18 1    
    34   20   19 ar   
    35   36   19 1    
    36   21   20 1    
    37   22   21 ar   
    38   23   21 ar   
@<TRIPOS>SUBSTRUCTURE
     1 78H801      1 GROUP   
@<TRIPOS>SET

