#    Name: 4ea1_3RX_1_INTS_M
#    Modification time : Tue Mar 25 10:47:43 2014

@<TRIPOS>MOLECULE
4ea1_3RX_1_INTS_M
   57     0     6     0     0
SMALL
NO_CHARGES


@<TRIPOS>ATOM
      1 CA          4.0550  -31.6980    9.1140 C.3       2 GLC5        0.0000 
      2 CA          4.0360  -29.9110    8.4190 C.3       6 GLL5        0.0000 
      3 CA          4.0740  -33.4850    9.8090 C.3       4 GLP5        0.0000 
      4 CA          3.9065  -31.1470    6.5930 C.3       2 GLC5        0.0000 
      5 CA          3.7770  -32.3830    4.7670 C.3       4 GLP5        0.0000 
      6 CA          1.8720  -26.7470    6.5025 C.3       2 GLC5        0.0000 
      7 CA          2.5800  -28.7810    6.5860 C.3       6 GLL5        0.0000 
      8 CA          1.1640  -24.7130    6.4190 C.3       4 GLP5        0.0000 
      9 CA          3.5115  -28.2580    4.6225 C.3       2 GLC5        0.0000 
     10 CA          4.4430  -27.7350    2.6590 C.3       4 GLP5        0.0000 
     11 CA          3.1785  -30.5820    5.6765 C.3       2 GLC5        0.0000 
     12 CA          0.5475  -25.2920   10.0185 C.3       2 GLC5        0.0000 
     13 CA         -1.1940  -25.9420    9.2920 C.3       6 GLL5        0.0000 
     14 CA          2.2890  -24.6420   10.7450 C.3       4 GLP5        0.0000 
     15 CA         -1.2225  -25.3625   11.4060 C.3       2 GLC5        0.0000 
     16 CA         -1.2510  -24.7830   13.5200 C.3       4 GLP5        0.0000 
     17 CA          0.8560  -26.6090    7.3415 C.3       2 GLC5        0.0000 
     18 CA          0.5480  -28.5050    8.2640 C.3       6 GLL5        0.0000 
     19 CA         -0.3710  -30.6130    8.9800 C.3       2 GLC5        0.0000 
     20 CA         -0.5350  -28.5400    9.2800 C.3       6 GLL5        0.0000 
     21 CA         -0.2070  -32.6860    8.6800 C.3       4 GLP5        0.0000 
     22 CA        -12.3255  -30.0005   14.4030 C.3       2 GLC5        0.0000 
     23 CA        -10.7700  -29.2180   13.1560 C.3       6 GLL5        0.0000 
     24 CA        -13.8810  -30.7830   15.6500 C.3       4 GLP5        0.0000 
     25 CA         -9.3970  -28.6450   14.8140 C.3       2 GLC5        0.0000 
     26 CA         -8.0240  -28.0720   16.4720 C.3       4 GLP5        0.0000 
     27 CA        -10.5025  -29.0490    8.4250 C.3       2 GLC5        0.0000 
     28 CA        -10.8370  -27.7290   10.0390 C.3       6 GLL5        0.0000 
     29 CA        -10.1680  -30.3690    6.8110 C.3       4 GLP5        0.0000 
     30 OD1        -8.5325  -30.2405    9.2095 O.co2     1 ASC3        0.0000 
     31 OD1        -8.4470  -29.1330   10.1390 O.co2     5 ASL3        0.0000 
     32 OD1        -8.6180  -31.3480    8.2800 O.co2     3 ASP3        0.0000 
     33 OD1        -8.3630  -29.1875    8.9130 O.co2     1 ASC3        0.0000 
     34 OD1        -8.2790  -29.2420    7.6870 O.co2     3 ASP3        0.0000 
     35 CA          3.3695  -27.3969    8.1646 C.3       2 GLC5        0.0000 
     36 CA          3.7540  -25.6000    8.9420 C.3       4 GLP5        0.0000 
     37 CA         -0.6818  -25.8878    7.5032 C.3       2 GLC5        0.0000 
     38 CA          0.0130  -25.0960    5.7480 C.3       4 GLP5        0.0000 
     39 CA          2.9153  -29.0441   10.2859 C.3       2 GLC5        0.0000 
     40 CA          1.6670  -29.1260    8.7490 C.3       6 GLL5        0.0000 
     41 CA          3.3020  -28.7220   12.1030 C.3       4 GLP5        0.0000 
     42 CA          2.4307  -27.2078    8.7243 C.3       2 GLC5        0.0000 
     43 CA         -6.6967  -29.5570   11.5215 C.3       2 GLC5        0.0000 
     44 CA         -6.3290  -27.8830    9.8950 C.3       6 GLL5        0.0000 
     45 CA         -6.7430  -30.5520   13.0210 C.3       4 GLP5        0.0000 
     46 CA         -1.2646  -28.7123   10.9378 C.3       2 GLC5        0.0000 
     47 CA         -1.5590  -27.4170    9.2250 C.3       6 GLL5        0.0000 
     48 CA         -1.1530  -29.3350   12.6310 C.3       4 GLP5        0.0000 
     49 CA        -11.3373  -30.3982    8.9850 C.3       2 GLC5        0.0000 
     50 CA        -11.2340  -29.9570   10.8890 C.3       6 GLL5        0.0000 
     51 CA        -11.1090  -31.4880    7.2370 C.3       4 GLP5        0.0000 
     52 CA        -10.6242  -31.6693   11.4977 C.3       2 GLC5        0.0000 
     53 CA        -10.5760  -33.5140   11.6090 C.3       4 GLP5        0.0000 
     54 CA         -8.2514  -29.8150   12.4872 C.3       2 GLC5        0.0000 
     55 CA        -10.1110  -29.6920   11.8840 C.3       6 GLL5        0.0000 
     56 CA          1.0764  -30.6578    7.5841 C.3       2 GLC5        0.0000 
     57 CA          0.2680  -32.3870    7.2790 C.3       4 GLP5        0.0000 
@<TRIPOS>BOND
@<TRIPOS>SUBSTRUCTURE
     1 ASC3       30 GROUP        1 X    ASC  0     ROOT ASC X 3
     2 GLC5        1 GROUP        1 X    GLC  0     **** GLC X 6
     3 ASP3       32 GROUP        1 Y    ASP  0     ROOT ASP Y 10
     4 GLP5        3 GROUP        1 Y    GLP  0     **** GLP Y 13
     5 ASL3       31 GROUP        1 Z    ASL  0     ROOT ASL Z 17
     6 GLL5        2 GROUP        1 Z    GLL  0     **** GLL Z 20
@<TRIPOS>SET

