#    Name: 4ea1_3RX_1_ligand
#    Modification time : Tue Mar 25 10:47:43 2014

@<TRIPOS>MOLECULE
4ea1_3RX_1_ligand
   60    62     1     0     0
SMALL
NO_CHARGES


@<TRIPOS>ATOM
      1 CAA         4.0360  -29.9110    8.4190 C.3       1 3RX301      0.0000 
      2 CAB         2.5800  -28.7810    6.5860 C.3       1 3RX301      0.0000 
      3 CAC        -1.1940  -25.9420    9.2920 C.3       1 3RX301      0.0000 
      4 CAD         1.6670  -29.1260    8.7490 C.2       1 3RX301      0.0000 
      5 CAE        -2.8760  -27.8610    9.1930 C.2       1 3RX301      0.0000 
      6 CAF         0.5480  -28.5050    8.2640 C.3       1 3RX301      0.0000 
      7 CAG        -4.0920  -27.2090    9.2230 C.3       1 3RX301      0.0000 
      8 CAH        -6.3290  -27.8830    9.8950 C.3       1 3RX301      0.0000 
      9 CAI        -6.9720  -29.2410   10.1490 C.3       1 3RX301      0.0000 
     10 CAJ        -0.5350  -28.5400    9.2800 C.3       1 3RX301      0.0000 
     11 CAK       -12.5360  -28.1060   11.8350 C.3       1 3RX301      0.0000 
     12 CAL       -10.7700  -29.2180   13.1560 C.3       1 3RX301      0.0000 
     13 CAM       -11.2340  -29.9570   10.8890 C.3       1 3RX301      0.0000 
     14 CAN       -10.4520  -26.9110   12.3410 C.3       1 3RX301      0.0000 
     15 CAO       -10.8370  -27.7290   10.0390 C.3       1 3RX301      0.0000 
     16 NAP        -4.9000  -27.9690   10.1810 N.3       1 3RX301      0.0000 
     17 NAQ        -8.4470  -29.1330   10.1390 N.4       1 3RX301      0.0000 
     18 CAR         2.7440  -29.3020    7.9580 C.2       1 3RX301      0.0000 
     19 CAS        -1.5590  -27.4170    9.2250 C.2       1 3RX301      0.0000 
     20 CAT       -11.4560  -27.9050   12.8680 C.3       1 3RX301      0.0000 
     21 CAU       -11.8970  -28.6600   10.5770 C.3       1 3RX301      0.0000 
     22 CAV       -10.1110  -29.6920   11.8840 C.3       1 3RX301      0.0000 
     23 CAW        -9.7970  -27.4450   11.0910 C.3       1 3RX301      0.0000 
     24 CAX        -9.0790  -28.7010   11.3870 C.3       1 3RX301      0.0000 
     25 H           1.6772  -29.4607    9.7349 H         1 3RX301      0.0000 
     26 H          -2.9653  -28.9800    9.1298 H         1 3RX301      0.0000 
     27 H           0.1622  -28.9853    7.3414 H         1 3RX301      0.0000 
     28 H           0.7320  -27.4429    8.0019 H         1 3RX301      0.0000 
     29 H          -4.5919  -27.2139    8.2556 H         1 3RX301      0.0000 
     30 H          -4.0054  -26.1805    9.5701 H         1 3RX301      0.0000 
     31 H          -6.8126  -27.1472   10.5375 H         1 3RX301      0.0000 
     32 H          -6.5035  -27.6083    8.8547 H         1 3RX301      0.0000 
     33 H          -6.6240  -29.6161   11.1165 H         1 3RX301      0.0000 
     34 H          -6.6356  -29.9365    9.3738 H         1 3RX301      0.0000 
     35 H          -0.0838  -28.5479   10.3050 H         1 3RX301      0.0000 
     36 H          -1.0837  -29.5135    9.2059 H         1 3RX301      0.0000 
     37 H         -13.0101  -27.1593   11.6118 H         1 3RX301      0.0000 
     38 H         -13.2711  -28.8084   12.2054 H         1 3RX301      0.0000 
     39 H         -11.5002  -29.9466   13.4813 H         1 3RX301      0.0000 
     40 H         -10.0210  -29.0768   13.9235 H         1 3RX301      0.0000 
     41 H         -10.8136  -30.3911    9.9905 H         1 3RX301      0.0000 
     42 H         -11.9426  -30.6454   11.3324 H         1 3RX301      0.0000 
     43 H          -9.6907  -26.7257   13.0993 H         1 3RX301      0.0000 
     44 H         -10.9553  -25.9707   12.1141 H         1 3RX301      0.0000 
     45 H         -11.3030  -26.7926    9.7246 H         1 3RX301      0.0000 
     46 H         -10.3606  -28.1866    9.1692 H         1 3RX301      0.0000 
     47 H         -11.8924  -27.5241   13.7683 H         1 3RX301      0.0000 
     48 H         -12.6460  -28.8142    9.8295 H         1 3RX301      0.0000 
     49 H          -9.6262  -30.6439   12.0985 H         1 3RX301      0.0000 
     50 H          -9.1085  -26.7127   10.7103 H         1 3RX301      0.0000 
     51 H          -8.3572  -28.5249   12.1461 H         1 3RX301      0.0000 
     52 H           4.7946  -29.2623    8.3590 H         1 3RX301      0.0000 
     53 H           3.9848  -30.2149    9.3703 H         1 3RX301      0.0000 
     54 H           4.2877  -30.7079    7.8699 H         1 3RX301      0.0000 
     55 H           3.2320  -28.0496    6.3861 H         1 3RX301      0.0000 
     56 H           2.7195  -29.4940    5.8988 H         1 3RX301      0.0000 
     57 H           1.6647  -28.4063    6.4379 H         1 3RX301      0.0000 
     58 H          -0.2036  -25.8049    9.3083 H         1 3RX301      0.0000 
     59 H          -1.5471  -25.4359    8.5051 H         1 3RX301      0.0000 
     60 H          -1.5639  -25.5047   10.1117 H         1 3RX301      0.0000 
@<TRIPOS>BOND
     1   18    1 1    
     2   52    1 1    
     3   53    1 1    
     4   54    1 1    
     5   18    2 1    
     6   55    2 1    
     7   56    2 1    
     8   57    2 1    
     9   19    3 1    
    10   58    3 1    
    11   59    3 1    
    12   60    3 1    
    13    6    4 1    
    14   18    4 2    
    15   25    4 1    
    16    7    5 1    
    17   19    5 2    
    18   26    5 1    
    19   10    6 1    
    20   27    6 1    
    21   28    6 1    
    22   16    7 1    
    23   29    7 1    
    24   30    7 1    
    25    9    8 1    
    26   16    8 1    
    27   31    8 1    
    28   32    8 1    
    29   17    9 1    
    30   33    9 1    
    31   34    9 1    
    32   19   10 1    
    33   35   10 1    
    34   36   10 1    
    35   20   11 1    
    36   21   11 1    
    37   37   11 1    
    38   38   11 1    
    39   20   12 1    
    40   22   12 1    
    41   39   12 1    
    42   40   12 1    
    43   21   13 1    
    44   22   13 1    
    45   41   13 1    
    46   42   13 1    
    47   20   14 1    
    48   23   14 1    
    49   43   14 1    
    50   44   14 1    
    51   21   15 1    
    52   23   15 1    
    53   45   15 1    
    54   46   15 1    
    55   24   17 1    
    56   47   20 1    
    57   48   21 1    
    58   24   22 1    
    59   49   22 1    
    60   24   23 1    
    61   50   23 1    
    62   51   24 1    
@<TRIPOS>SUBSTRUCTURE
     1 3RX301      1 GROUP   
@<TRIPOS>SET

