#    Name: 3fc6_LX2_2_INTS_M
#    Modification time : Tue Mar 25 03:32:26 2014

@<TRIPOS>MOLECULE
3fc6_LX2_2_INTS_M
  135     0     9     0     0
SMALL
NO_CHARGES


@<TRIPOS>ATOM
      1 CA         64.7695   42.4850   18.4055 C.3       3 GLC5        0.0000 
      2 CA         64.2520   44.1260   19.0610 C.3       9 GLL5        0.0000 
      3 CA         65.2870   40.8440   17.7500 C.3       6 GLP5        0.0000 
      4 CA         64.9025   42.9255   20.4015 C.3       3 GLC5        0.0000 
      5 CA         65.5530   41.7250   21.7420 C.3       6 GLP5        0.0000 
      6 CA         66.0485   43.8715   19.2095 C.3       3 GLC5        0.0000 
      7 CA         67.8450   43.6170   19.3580 C.3       6 GLP5        0.0000 
      8 CA         62.7000   44.1600   16.1795 C.3       3 GLC5        0.0000 
      9 CA         62.6680   45.0760   17.9800 C.3       9 GLL5        0.0000 
     10 CA         62.7320   43.2440   14.3790 C.3       6 GLP5        0.0000 
     11 CA         61.0100   44.7975   16.8125 C.3       3 GLC5        0.0000 
     12 CA         59.3520   44.5190   15.6450 C.3       6 GLP5        0.0000 
     13 CA         64.4555   46.4090   21.2470 C.3       3 GLC5        0.0000 
     14 CA         63.7520   46.1630   19.5050 C.3       9 GLL5        0.0000 
     15 CA         65.1590   46.6550   22.9890 C.3       6 GLP5        0.0000 
     16 CA         65.1005   47.6000   19.7090 C.3       3 GLC5        0.0000 
     17 CA         66.4490   49.0370   19.9130 C.3       6 GLP5        0.0000 
     18 CA         62.1720   42.8945   16.3825 C.3       3 GLC5        0.0000 
     19 CA         61.6120   42.5450   18.3860 C.3       9 GLL5        0.0000 
     20 CA         60.1230   41.1460   17.9105 C.3       3 GLC5        0.0000 
     21 CA         58.6340   39.7470   17.4350 C.3       6 GLP5        0.0000 
     22 CA         60.4820   43.5320   17.0155 C.3       3 GLC5        0.0000 
     23 CA         63.4495   41.6945   18.0680 C.3       3 GLC5        0.0000 
     24 CA         59.1835   40.6790   19.0665 C.3       3 GLC5        0.0000 
     25 CA         59.7330   41.6110   20.6980 C.3       9 GLL5        0.0000 
     26 CA         62.4600   39.4980   20.4975 C.3       3 GLC5        0.0000 
     27 CA         60.9330   39.9390   22.0720 C.3       9 GLL5        0.0000 
     28 CA         63.9870   39.0570   18.9230 C.3       6 GLP5        0.0000 
     29 CA         65.7915   36.8980   22.0110 C.3       3 GLC5        0.0000 
     30 CA         64.3050   37.7000   22.9390 C.3       9 GLL5        0.0000 
     31 CA         67.2780   36.0960   21.0830 C.3       6 GLP5        0.0000 
     32 CA         66.2260   36.6855   23.6340 C.3       3 GLC5        0.0000 
     33 CA         64.2740   36.7030   23.9120 C.3       9 GLL5        0.0000 
     34 CA         68.1780   36.6680   23.3560 C.3       6 GLP5        0.0000 
     35 CA         65.0530   37.6160   25.5830 C.3       3 GLC5        0.0000 
     36 CA         65.8320   38.5290   27.2540 C.3       6 GLP5        0.0000 
     37 CA         61.0405   37.7825   26.5125 C.3       3 GLC5        0.0000 
     38 CA         62.1310   37.5540   24.6570 C.3       9 GLL5        0.0000 
     39 CA         59.9500   38.0110   28.3680 C.3       6 GLP5        0.0000 
     40 CA         58.2285   38.7455   20.2520 C.3       3 GLC5        0.0000 
     41 CA         58.4780   39.8780   21.9110 C.3       9 GLL5        0.0000 
     42 CA         57.9790   37.6130   18.5930 C.3       6 GLP5        0.0000 
     43 CA         59.5095   38.0345   21.7775 C.3       3 GLC5        0.0000 
     44 CA         60.5410   36.1910   21.6440 C.3       6 GLP5        0.0000 
     45 CA         56.4510   42.7230   21.7965 C.3       3 GLC5        0.0000 
     46 CA         57.2830   40.8130   22.0590 C.3       9 GLL5        0.0000 
     47 CA         55.6190   44.6330   21.5340 C.3       6 GLP5        0.0000 
     48 CA         56.5105   39.3230   24.4560 C.3       3 GLC5        0.0000 
     49 CA         56.7230   40.6380   23.4640 C.3       9 GLL5        0.0000 
     50 CA         56.2980   38.0080   25.4480 C.3       6 GLP5        0.0000 
     51 CA         53.5820   39.1485   28.4775 C.3       3 GLC5        0.0000 
     52 CA         53.9210   41.1280   27.5580 C.3       9 GLL5        0.0000 
     53 CA         53.2430   37.1690   29.3970 C.3       6 GLP5        0.0000 
     54 CA         56.6930   40.0530   28.6645 C.3       3 GLC5        0.0000 
     55 CA         55.3030   41.2860   27.4180 C.3       9 GLL5        0.0000 
     56 CA         58.0830   38.8200   29.9110 C.3       6 GLP5        0.0000 
     57 CA         53.3590   40.9355   22.2590 C.3       3 GLC5        0.0000 
     58 CA         52.7740   41.1690   24.1450 C.3       9 GLL5        0.0000 
     59 CA         53.9440   40.7020   20.3730 C.3       6 GLP5        0.0000 
     60 CA         50.2620   42.4200   24.0250 C.3       3 GLC5        0.0000 
     61 CA         51.5650   41.0000   24.8060 C.3       9 GLL5        0.0000 
     62 CA         48.9590   43.8400   23.2440 C.3       6 GLP5        0.0000 
     63 CA         50.1140   39.8160   24.3015 C.3       3 GLC5        0.0000 
     64 CA         48.6630   38.6320   23.7970 C.3       6 GLP5        0.0000 
     65 CA         49.2680   40.0840   26.0055 C.3       3 GLC5        0.0000 
     66 CA         50.7120   40.8020   27.1550 C.3       9 GLL5        0.0000 
     67 CA         47.8240   39.3660   24.8560 C.3       6 GLP5        0.0000 
     68 NZ         50.1585   39.1530   29.5105 N.4       2 LYC4        0.0000 
     69 NZ         49.6010   38.9350   28.0970 N.4       8 LYL4        0.0000 
     70 NZ         51.8900   38.8040   30.6700 N.4       5 LYP4        0.0000 
     71 N          48.7820   39.9790   28.7065 N.am      1 SEC2        0.0000 
     72 N          49.6010   38.9350   28.0970 N.am      7 SEL2        0.0000 
     73 N          47.9630   41.0230   29.3160 N.am      4 SEP2        0.0000 
     74 N          50.7940   38.3880   28.9255 N.am      1 SEC2        0.0000 
     75 N          51.9870   37.8410   29.7540 N.am      4 SEP2        0.0000 
     76 N          50.1585   39.1530   29.5105 N.am      1 SEC2        0.0000 
     77 N          50.7160   39.3710   30.9240 N.am      4 SEP2        0.0000 
     78 NZ         50.7940   38.3880   28.9255 N.4       2 LYC4        0.0000 
     79 NZ         51.2680   38.5320   26.7380 N.4       8 LYL4        0.0000 
     80 N          50.6570   37.4825   26.0230 N.am      1 SEC2        0.0000 
     81 N          51.2680   38.5320   26.7380 N.am      7 SEL2        0.0000 
     82 N          50.0460   36.4330   25.3080 N.am      4 SEP2        0.0000 
     83 CA         62.2525   46.8920   20.2718 C.3       3 GLC5        0.0000 
     84 CA         63.2580   44.9890   19.1680 C.3       9 GLL5        0.0000 
     85 CA         61.0000   48.2080   21.2070 C.3       6 GLP5        0.0000 
     86 CA         64.4159   45.4449   17.4301 C.3       3 GLC5        0.0000 
     87 CA         65.3500   45.4000   15.8340 C.3       6 GLP5        0.0000 
     88 CA         62.7062   46.6754   17.5747 C.3       3 GLC5        0.0000 
     89 CA         62.0550   47.7530   16.1100 C.3       6 GLP5        0.0000 
     90 CA         62.2740   45.7140   23.7605 C.3       3 GLC5        0.0000 
     91 CA         62.2160   45.1060   21.4730 C.3       9 GLL5        0.0000 
     92 CA         62.7720   46.5800   25.5720 C.3       6 GLP5        0.0000 
     93 CA         63.4675   45.7515   22.4690 C.3       3 GLC5        0.0000 
     94 CA         61.3360   44.5900   22.4250 C.3       9 GLL5        0.0000 
     95 CA         59.6325   44.5712   23.5847 C.3       3 GLC5        0.0000 
     96 CA         58.3280   45.1120   24.8640 C.3       6 GLP5        0.0000 
     97 CA         58.5569   43.7021   21.0310 C.3       3 GLC5        0.0000 
     98 CA         60.5380   43.4710   22.1860 C.3       9 GLL5        0.0000 
     99 CA         56.9620   45.0250   20.9260 C.3       6 GLP5        0.0000 
    100 CA         60.7645   37.9607   22.2275 C.3       3 GLC5        0.0000 
    101 CA         59.9002   40.3455   27.4633 C.3       3 GLC5        0.0000 
    102 CA         60.6760   42.0030   26.3660 C.3       9 GLL5        0.0000 
    103 CA         59.2340   39.2390   28.9750 C.3       6 GLP5        0.0000 
    104 CA         62.4460   44.6822   25.5527 C.3       3 GLC5        0.0000 
    105 CA         61.7090   42.8930   26.0860 C.3       9 GLL5        0.0000 
    106 CA         59.5614   43.2918   26.2679 C.3       3 GLC5        0.0000 
    107 CA         57.9850   44.4110   26.5170 C.3       6 GLP5        0.0000 
    108 CA         62.8274   42.2930   27.3133 C.3       3 GLC5        0.0000 
    109 CA         63.7930   42.0240   29.0230 C.3       6 GLP5        0.0000 
    110 CA         64.0555   41.2747   25.0727 C.3       3 GLC5        0.0000 
    111 CA         62.5310   42.6760   24.9810 C.3       9 GLL5        0.0000 
    112 CA         65.6860   40.4240   25.5760 C.3       6 GLP5        0.0000 
    113 CA         63.8840   38.6058   20.9027 C.3       3 GLC5        0.0000 
    114 CA         63.2570   38.6090   22.8260 C.3       9 GLL5        0.0000 
    115 CA         63.9947   36.0958   21.6578 C.3       3 GLC5        0.0000 
    116 CA         63.7000   34.9900   19.8900 C.3       6 GLP5        0.0000 
    117 CA         64.5974   39.2820   24.3375 C.3       3 GLC5        0.0000 
    118 CA         61.7952   35.8970   25.7892 C.3       3 GLC5        0.0000 
    119 CA         60.9340   34.6980   26.8630 C.3       6 GLP5        0.0000 
    120 CA         63.5088   37.8110   26.1863 C.3       3 GLC5        0.0000 
    121 CA         63.1820   36.6380   24.7740 C.3       9 GLL5        0.0000 
    122 CA         64.3610   38.5260   27.6570 C.3       6 GLP5        0.0000 
    123 CA         57.5392   38.8658   23.2920 C.3       3 GLC5        0.0000 
    124 CA         57.1980   37.3860   24.5990 C.3       6 GLP5        0.0000 
    125 CA         55.4735   40.7138   21.5673 C.3       3 GLC5        0.0000 
    126 CA         53.8550   43.0180   26.1887 C.3       3 GLC5        0.0000 
    127 CA         54.2120   44.9280   25.4030 C.3       6 GLP5        0.0000 
    128 CA         54.9000   41.6405   29.3495 C.3       3 GLC5        0.0000 
    129 CA         55.1880   42.0740   31.2110 C.3       6 GLP5        0.0000 
    130 CA         54.8988   43.1367   26.0935 C.3       3 GLC5        0.0000 
    131 CA         56.6836   42.8736   26.5091 C.3       3 GLC5        0.0000 
    132 CA         55.0550   41.3680   25.0190 C.3       9 GLL5        0.0000 
    133 CA         53.8924   43.0786   25.0120 C.3       3 GLC5        0.0000 
    134 CA         52.5877   38.9492   24.2617 C.3       3 GLC5        0.0000 
    135 CA         53.0060   36.8140   24.0480 C.3       6 GLP5        0.0000 
@<TRIPOS>BOND
@<TRIPOS>SUBSTRUCTURE
     1 SEC2       71 GROUP        1 X    SEC  0     ROOT SEC X 2
     2 LYC4       68 GROUP        1 X    LYC  0     **** LYC X 4
     3 GLC5        1 GROUP        1 X    GLC  0     **** GLC X 6
     4 SEP2       73 GROUP        1 Y    SEP  0     ROOT SEP Y 9
     5 LYP4       70 GROUP        1 Y    LYP  0     **** LYP Y 11
     6 GLP5        3 GROUP        1 Y    GLP  0     **** GLP Y 13
     7 SEL2       72 GROUP        1 Z    SEL  0     ROOT SEL Z 16
     8 LYL4       69 GROUP        1 Z    LYL  0     **** LYL Z 18
     9 GLL5        2 GROUP        1 Z    GLL  0     **** GLL Z 20
@<TRIPOS>SET

