#    Name: 3fc6_LX2_2_ligand
#    Modification time : Tue Mar 25 03:32:26 2014

@<TRIPOS>MOLECULE
3fc6_LX2_2_ligand
   76    80     1     0     0
SMALL
NO_CHARGES


@<TRIPOS>ATOM
      1 F40        64.2520   44.1260   19.0610 F         1 LX21        0.0000 
      2 C37        63.2580   44.9890   19.1680 C.3       1 LX21        0.0000 
      3 F38        62.6680   45.0760   17.9800 F         1 LX21        0.0000 
      4 F39        63.7520   46.1630   19.5050 F         1 LX21        0.0000 
      5 C34        62.3110   44.4990   20.2390 C.ar      1 LX21        0.0000 
      6 C35        61.4710   43.3110   19.9900 C.ar      1 LX21        0.0000 
      7 CL36       61.6120   42.5450   18.3860 Cl        1 LX21        0.0000 
      8 C33        62.2160   45.1060   21.4730 C.ar      1 LX21        0.0000 
      9 C32        61.3360   44.5900   22.4250 C.ar      1 LX21        0.0000 
     10 C31        60.5380   43.4710   22.1860 C.ar      1 LX21        0.0000 
     11 C30        60.6030   42.8240   20.9620 C.ar      1 LX21        0.0000 
     12 C29        59.7330   41.6110   20.6980 C.3       1 LX21        0.0000 
     13 N14        59.6930   40.6760   21.8230 N.4       1 LX21        0.0000 
     14 C15        60.9330   39.9390   22.0720 C.3       1 LX21        0.0000 
     15 C16        61.0430   39.5220   23.5500 C.3       1 LX21        0.0000 
     16 C23        61.2740   40.6950   24.4270 C.ar      1 LX21        0.0000 
     17 C24        60.4570   40.9010   25.5370 C.ar      1 LX21        0.0000 
     18 C25        60.6760   42.0030   26.3660 C.ar      1 LX21        0.0000 
     19 C26        61.7090   42.8930   26.0860 C.ar      1 LX21        0.0000 
     20 C27        62.5310   42.6760   24.9810 C.ar      1 LX21        0.0000 
     21 C28        62.3190   41.5750   24.1580 C.ar      1 LX21        0.0000 
     22 C17        62.1680   38.5510   23.6920 C.ar      1 LX21        0.0000 
     23 C18        63.2570   38.6090   22.8260 C.ar      1 LX21        0.0000 
     24 C19        64.3050   37.7000   22.9390 C.ar      1 LX21        0.0000 
     25 C20        64.2740   36.7030   23.9120 C.ar      1 LX21        0.0000 
     26 C21        63.1820   36.6380   24.7740 C.ar      1 LX21        0.0000 
     27 C22        62.1310   37.5540   24.6570 C.ar      1 LX21        0.0000 
     28 C13        58.4780   39.8780   21.9110 C.3       1 LX21        0.0000 
     29 C12        57.2830   40.8130   22.0590 C.3       1 LX21        0.0000 
     30 C11        56.7230   40.6380   23.4640 C.3       1 LX21        0.0000 
     31 O10        55.6090   41.4790   23.7660 O.3       1 LX21        0.0000 
     32 C9         55.0550   41.3680   25.0190 C.ar      1 LX21        0.0000 
     33 C8         53.6880   41.2110   25.1750 C.ar      1 LX21        0.0000 
     34 C44        53.0750   41.0880   26.3910 C.ar      1 LX21        0.0000 
     35 C43        53.9210   41.1280   27.5580 C.ar      1 LX21        0.0000 
     36 C42        55.3030   41.2860   27.4180 C.ar      1 LX21        0.0000 
     37 C41        55.8680   41.4050   26.1500 C.ar      1 LX21        0.0000 
     38 C7         52.7740   41.1690   24.1450 C.2       1 LX21        0.0000 
     39 C6         51.5650   41.0000   24.8060 C.2       1 LX21        0.0000 
     40 N5         51.7600   40.9690   26.1510 N.pl3     1 LX21        0.0000 
     41 C4         50.7120   40.8020   27.1550 C.3       1 LX21        0.0000 
     42 C2         50.5110   39.3170   27.3480 C.2       1 LX21        0.0000 
     43 O1         49.6010   38.9350   28.0970 O.co2     1 LX21        0.0000 
     44 O3         51.2680   38.5320   26.7380 O.co2     1 LX21        0.0000 
     45 H          62.7839   45.9301   21.6969 H         1 LX21        0.0000 
     46 H          61.2721   45.0618   23.3563 H         1 LX21        0.0000 
     47 H          59.9038   43.1298   22.9194 H         1 LX21        0.0000 
     48 H          60.1118   41.1038   19.7895 H         1 LX21        0.0000 
     49 H          58.7119   41.9632   20.4540 H         1 LX21        0.0000 
     50 H          59.6123   41.4001   22.7743 H         1 LX21        0.0000 
     51 H          61.8087   40.5516   21.8284 H         1 LX21        0.0000 
     52 H          60.9782   39.0301   21.4609 H         1 LX21        0.0000 
     53 H          60.1202   39.0314   23.8252 H         1 LX21        0.0000 
     54 H          59.6963   40.2454   25.7456 H         1 LX21        0.0000 
     55 H          60.0724   42.1556   27.1838 H         1 LX21        0.0000 
     56 H          61.8660   43.7071   26.6908 H         1 LX21        0.0000 
     57 H          63.2957   43.3326   24.7752 H         1 LX21        0.0000 
     58 H          62.9337   41.4103   23.3506 H         1 LX21        0.0000 
     59 H          63.2871   39.3348   22.0917 H         1 LX21        0.0000 
     60 H          65.1103   37.7642   22.2985 H         1 LX21        0.0000 
     61 H          65.0380   36.0325   23.9913 H         1 LX21        0.0000 
     62 H          63.1453   35.9120   25.5032 H         1 LX21        0.0000 
     63 H          61.3242   37.4838   25.2954 H         1 LX21        0.0000 
     64 H          58.5049   39.2155   22.7754 H         1 LX21        0.0000 
     65 H          58.3358   39.2785   21.0126 H         1 LX21        0.0000 
     66 H          56.5295   40.5519   21.3344 H         1 LX21        0.0000 
     67 H          57.6042   41.8324   21.9222 H         1 LX21        0.0000 
     68 H          57.5620   40.8102   24.1806 H         1 LX21        0.0000 
     69 H          56.4567   39.5602   23.5843 H         1 LX21        0.0000 
     70 H          53.4918   41.0392   28.4786 H         1 LX21        0.0000 
     71 H          55.9012   41.3142   28.2528 H         1 LX21        0.0000 
     72 H          56.8838   41.5200   26.0489 H         1 LX21        0.0000 
     73 H          52.9214   41.2358   23.2413 H         1 LX21        0.0000 
     74 H          50.7100   40.9173   24.3569 H         1 LX21        0.0000 
     75 H          49.7805   41.2423   26.8203 H         1 LX21        0.0000 
     76 H          51.0063   41.2427   28.0998 H         1 LX21        0.0000 
@<TRIPOS>BOND
     1    2    1 1    
     2    3    2 1    
     3    4    2 1    
     4    5    2 1    
     5    6    5 ar   
     6    8    5 ar   
     7    7    6 1    
     8   11    6 ar   
     9    9    8 ar   
    10   45    8 1    
    11   10    9 ar   
    12   46    9 1    
    13   11   10 ar   
    14   47   10 1    
    15   12   11 1    
    16   13   12 1    
    17   48   12 1    
    18   49   12 1    
    19   14   13 1    
    20   28   13 1    
    21   50   13 1    
    22   15   14 1    
    23   51   14 1    
    24   52   14 1    
    25   16   15 1    
    26   22   15 1    
    27   53   15 1    
    28   17   16 ar   
    29   21   16 ar   
    30   18   17 ar   
    31   54   17 1    
    32   19   18 ar   
    33   55   18 1    
    34   20   19 ar   
    35   56   19 1    
    36   21   20 ar   
    37   57   20 1    
    38   58   21 1    
    39   23   22 ar   
    40   27   22 ar   
    41   24   23 ar   
    42   59   23 1    
    43   25   24 ar   
    44   60   24 1    
    45   26   25 ar   
    46   61   25 1    
    47   27   26 ar   
    48   62   26 1    
    49   63   27 1    
    50   29   28 1    
    51   64   28 1    
    52   65   28 1    
    53   30   29 1    
    54   66   29 1    
    55   67   29 1    
    56   31   30 1    
    57   68   30 1    
    58   69   30 1    
    59   32   31 1    
    60   33   32 ar   
    61   37   32 ar   
    62   34   33 ar   
    63   38   33 1    
    64   35   34 ar   
    65   40   34 1    
    66   36   35 ar   
    67   70   35 1    
    68   37   36 ar   
    69   71   36 1    
    70   72   37 1    
    71   39   38 2    
    72   73   38 1    
    73   40   39 1    
    74   74   39 1    
    75   41   40 1    
    76   42   41 1    
    77   75   41 1    
    78   76   41 1    
    79   43   42 ar   
    80   44   42 ar   
@<TRIPOS>SUBSTRUCTURE
     1 LX21        1 GROUP   
@<TRIPOS>SET

