#    Name: 1m51_TSX_1_INTS_M
#    Modification time : Mon Apr  7 14:27:16 2014

@<TRIPOS>MOLECULE
1m51_TSX_1_INTS_M
   47     0     6     0     0
SMALL
NO_CHARGES


@<TRIPOS>ATOM
      1 N          36.7590   38.4775   35.2860 N.am      1 SEC2        0.0000 
      2 N          37.0340   39.3300   34.0690 N.am      5 SEL2        0.0000 
      3 N          36.4840   37.6250   36.5030 N.am      3 SEP2        0.0000 
      4 CA         36.2230   39.8620   30.3025 C.3       2 GLC5        0.0000 
      5 CA         35.2460   39.6580   32.1950 C.3       6 GLL5        0.0000 
      6 CA         37.2000   40.0660   28.4100 C.3       4 GLP5        0.0000 
      7 CA         34.7415   40.9865   33.8485 C.3       2 GLC5        0.0000 
      8 CA         34.2370   42.3150   35.5020 C.3       4 GLP5        0.0000 
      9 CA         32.5490   37.4440   31.7005 C.3       2 GLC5        0.0000 
     10 CA         32.8080   39.1790   31.9170 C.3       6 GLL5        0.0000 
     11 CA         32.2900   35.7090   31.4840 C.3       4 GLP5        0.0000 
     12 CA         30.7795   38.4010   32.1460 C.3       2 GLC5        0.0000 
     13 CA         28.7510   37.6230   32.3750 C.3       4 GLP5        0.0000 
     14 CA         37.7045   42.1830   35.3985 C.3       2 GLC5        0.0000 
     15 CA         39.0810   40.8890   34.9830 C.3       6 GLL5        0.0000 
     16 CA         36.3280   43.4770   35.8140 C.3       4 GLP5        0.0000 
     17 CA         39.2930   38.1855   33.8965 C.3       2 GLC5        0.0000 
     18 CA         40.2060   39.9490   34.4560 C.3       6 GLL5        0.0000 
     19 CA         38.3800   36.4220   33.3370 C.3       4 GLP5        0.0000 
     20 CA         39.6300   37.4135   34.8870 C.3       2 GLC5        0.0000 
     21 CA         40.8800   38.4050   36.4370 C.3       6 GLL5        0.0000 
     22 CA         37.6230   42.7020   30.1815 C.3       2 GLC5        0.0000 
     23 CA         37.3950   42.8590   32.2500 C.3       6 GLL5        0.0000 
     24 CA         37.8510   42.5450   28.1130 C.3       4 GLP5        0.0000 
     25 N          34.2825   42.9230   31.5035 N.am      1 SEC2        0.0000 
     26 N          35.5300   42.2790   30.9240 N.am      5 SEL2        0.0000 
     27 N          33.0350   43.5670   32.0830 N.am      3 SEP2        0.0000 
     28 N          34.4575   41.8650   30.1090 N.am      1 SEC2        0.0000 
     29 N          33.3850   41.4510   29.2940 N.am      3 SEP2        0.0000 
     30 CA         40.6215   44.2950   31.5135 C.3       2 GLC5        0.0000 
     31 CA         39.6100   45.6860   32.5210 C.3       6 GLL5        0.0000 
     32 CA         41.6330   42.9040   30.5060 C.3       4 GLP5        0.0000 
     33 CA         40.6375   47.0475   32.6260 C.3       2 GLC5        0.0000 
     34 CA         41.6650   48.4090   32.7310 C.3       4 GLP5        0.0000 
     35 CA         32.7275   41.1800   32.6162 C.3       2 GLC5        0.0000 
     36 CA         33.8140   39.8250   32.5280 C.3       6 GLL5        0.0000 
     37 CA         32.1440   42.8580   33.0100 C.3       4 GLP5        0.0000 
     38 CA         34.0665   38.3551   33.6871 C.3       2 GLC5        0.0000 
     39 CA         34.4640   37.2500   35.2350 C.3       4 GLP5        0.0000 
     40 CA         40.2943   41.1755   33.0007 C.3       2 GLC5        0.0000 
     41 CA         40.9450   41.9320   31.2820 C.3       4 GLP5        0.0000 
     42 CA         35.9363   48.4780   32.2440 C.3       2 GLC5        0.0000 
     43 CA         37.9330   47.5730   32.9620 C.3       6 GLL5        0.0000 
     44 CA         34.2490   48.9710   31.0490 C.3       4 GLP5        0.0000 
     45 CA         39.1260   48.6067   32.1893 C.3       2 GLC5        0.0000 
     46 CA         37.3140   48.3970   33.9160 C.3       6 GLL5        0.0000 
     47 CA         40.3950   49.4600   30.8200 C.3       4 GLP5        0.0000 
@<TRIPOS>BOND
@<TRIPOS>SUBSTRUCTURE
     1 SEC2        1 GROUP        1 X    SEC  0     ROOT SEC X 2
     2 GLC5        4 GROUP        1 X    GLC  0     **** GLC X 6
     3 SEP2        3 GROUP        1 Y    SEP  0     ROOT SEP Y 9
     4 GLP5        6 GROUP        1 Y    GLP  0     **** GLP Y 13
     5 SEL2        2 GROUP        1 Z    SEL  0     ROOT SEL Z 16
     6 GLL5        5 GROUP        1 Z    GLL  0     **** GLL Z 20
@<TRIPOS>SET

