#    Name: 1m51_TSX_1_ligand
#    Modification time : Mon Apr  7 14:27:16 2014

@<TRIPOS>MOLECULE
1m51_TSX_1_ligand
   52    54     1     0     0
SMALL
NO_CHARGES


@<TRIPOS>ATOM
      1 O13        37.0340   39.3300   34.0690 O.2       1 TSX1001     0.0000 
      2 C5         37.1400   40.4010   33.5010 C.2       1 TSX1001     0.0000 
      3 N4         36.2240   40.7180   32.4980 N.am      1 TSX1001     0.0000 
      4 C31        35.2460   39.6580   32.1950 C.3       1 TSX1001     0.0000 
      5 C32        33.8140   39.8250   32.5280 C.2       1 TSX1001     0.0000 
      6 C33        32.8080   39.1790   31.9170 C.2       1 TSX1001     0.0000 
      7 N6         38.1410   41.2270   33.9000 N.am      1 TSX1001     0.0000 
      8 C41        39.0810   40.8890   34.9830 C.3       1 TSX1001     0.0000 
      9 C42        40.2060   39.9490   34.4560 C.3       1 TSX1001     0.0000 
     10 C43        41.2930   39.5840   35.5170 C.3       1 TSX1001     0.0000 
     11 C44        40.8800   38.4050   36.4370 C.3       1 TSX1001     0.0000 
     12 C7         38.2540   42.4850   33.2590 C.2       1 TSX1001     0.0000 
     13 N12        39.1700   43.4230   33.5300 N.2       1 TSX1001     0.0000 
     14 C8         37.3950   42.8590   32.2500 C.2       1 TSX1001     0.0000 
     15 C3         36.2910   41.9140   31.8230 C.2       1 TSX1001     0.0000 
     16 O12        35.5300   42.2790   30.9240 O.2       1 TSX1001     0.0000 
     17 N9         37.7050   44.0890   31.8070 N.pl3     1 TSX1001     0.0000 
     18 C11        38.8510   44.3900   32.6400 C.2       1 TSX1001     0.0000 
     19 C14        39.6100   45.6860   32.5210 C.3       1 TSX1001     0.0000 
     20 C21        38.8670   46.6470   33.4400 C.ar      1 TSX1001     0.0000 
     21 C22        37.9330   47.5730   32.9620 C.ar      1 TSX1001     0.0000 
     22 C23        37.3140   48.3970   33.9160 C.ar      1 TSX1001     0.0000 
     23 C24        37.6520   48.2720   35.2860 C.ar      1 TSX1001     0.0000 
     24 C25        38.5820   47.3420   35.7290 C.ar      1 TSX1001     0.0000 
     25 C26        39.1950   46.5180   34.7890 C.ar      1 TSX1001     0.0000 
     26 N          37.0680   49.0560   36.3250 N.am      1 TSX1001     0.0000 
     27 C          36.5170   50.2780   36.1330 C.2       1 TSX1001     0.0000 
     28 O          36.4540   50.8550   35.0450 O.2       1 TSX1001     0.0000 
     29 C4         35.9530   50.9380   37.3690 C.3       1 TSX1001     0.0000 
     30 H          35.6111   38.6839   32.6744 H         1 TSX1001     0.0000 
     31 H          35.3245   39.4038   31.0808 H         1 TSX1001     0.0000 
     32 H          33.6263   40.5122   33.3081 H         1 TSX1001     0.0000 
     33 H          38.5717   40.3723   35.7974 H         1 TSX1001     0.0000 
     34 H          39.5577   41.7850   35.3825 H         1 TSX1001     0.0000 
     35 H          40.6991   40.4332   33.6033 H         1 TSX1001     0.0000 
     36 H          39.7476   39.0205   34.0921 H         1 TSX1001     0.0000 
     37 H          41.4875   40.4653   36.1336 H         1 TSX1001     0.0000 
     38 H          42.2158   39.3207   34.9937 H         1 TSX1001     0.0000 
     39 H          37.3501   44.6276   31.1814 H         1 TSX1001     0.0000 
     40 H          39.5689   46.0468   31.5191 H         1 TSX1001     0.0000 
     41 H          40.6097   45.5611   32.8684 H         1 TSX1001     0.0000 
     42 H          37.7148   47.6464   31.9869 H         1 TSX1001     0.0000 
     43 H          36.6192   49.0883   33.6275 H         1 TSX1001     0.0000 
     44 H          38.8118   47.2626   36.7170 H         1 TSX1001     0.0000 
     45 H          39.8841   45.8198   35.0863 H         1 TSX1001     0.0000 
     46 H          37.0806   48.6316   37.2931 H         1 TSX1001     0.0000 
     47 H          41.5912   38.1893   37.1061 H         1 TSX1001     0.0000 
     48 H          40.0465   38.6090   36.9506 H         1 TSX1001     0.0000 
     49 H          40.7057   37.5700   35.9150 H         1 TSX1001     0.0000 
     50 H          36.6547   51.0803   38.0671 H         1 TSX1001     0.0000 
     51 H          35.5575   51.8333   37.1643 H         1 TSX1001     0.0000 
     52 H          35.2308   50.3872   37.7874 H         1 TSX1001     0.0000 
@<TRIPOS>BOND
     1    2    1 2    
     2    3    2 am   
     3    7    2 am   
     4    4    3 1    
     5   15    3 am   
     6    5    4 1    
     7   30    4 1    
     8   31    4 1    
     9    6    5 2    
    10   32    5 1    
    11    8    7 1    
    12   12    7 1    
    13    9    8 1    
    14   33    8 1    
    15   34    8 1    
    16   10    9 1    
    17   35    9 1    
    18   36    9 1    
    19   11   10 1    
    20   37   10 1    
    21   38   10 1    
    22   47   11 1    
    23   48   11 1    
    24   49   11 1    
    25   13   12 1    
    26   14   12 2    
    27   18   13 2    
    28   15   14 1    
    29   17   14 1    
    30   16   15 2    
    31   18   17 1    
    32   39   17 1    
    33   19   18 1    
    34   20   19 1    
    35   40   19 1    
    36   41   19 1    
    37   21   20 ar   
    38   25   20 ar   
    39   22   21 ar   
    40   42   21 1    
    41   23   22 ar   
    42   43   22 1    
    43   24   23 ar   
    44   26   23 1    
    45   25   24 ar   
    46   44   24 1    
    47   45   25 1    
    48   27   26 am   
    49   46   26 1    
    50   28   27 2    
    51   29   27 1    
    52   50   29 1    
    53   51   29 1    
    54   52   29 1    
@<TRIPOS>SUBSTRUCTURE
     1 TSX1001     1 GROUP   
@<TRIPOS>SET

