#    Name: 2b36_5PP_1_INTS_M
#    Modification time : Mon Mar 24 19:50:04 2014

@<TRIPOS>MOLECULE
2b36_5PP_1_INTS_M
   55     0     9     0     0
SMALL
NO_CHARGES


@<TRIPOS>ATOM
      1 N          14.9125    8.7840   10.2650 N.am      2 SEC2        0.0000 
      2 N          14.1830    9.6720    9.7680 N.am      8 SEL2        0.0000 
      3 N          15.6420    7.8960   10.7620 N.am      5 SEP2        0.0000 
      4 O          14.1540    9.2765    8.4495 O.2       1 ALC1        0.0000 
      5 O          14.1830    9.6720    9.7680 O.2       7 ALL1        0.0000 
      6 O          14.1250    8.8810    7.1310 O.2       4 ALP1        0.0000 
      7 CA         18.4490   11.7215    7.3655 C.3       3 GLC5        0.0000 
      8 CA         17.9310   10.8460    9.2440 C.3       9 GLL5        0.0000 
      9 CA         18.9670   12.5970    5.4870 C.3       6 GLP5        0.0000 
     10 CA         19.8585   12.0005    7.6085 C.3       3 GLC5        0.0000 
     11 CA         19.2780   10.6920    8.9370 C.3       9 GLL5        0.0000 
     12 CA         20.4390   13.3090    6.2800 C.3       6 GLP5        0.0000 
     13 CA         20.1930    9.9435   13.2690 C.3       3 GLC5        0.0000 
     14 CA         19.8200   10.6650   11.2930 C.3       9 GLL5        0.0000 
     15 CA         20.5660    9.2220   15.2450 C.3       6 GLP5        0.0000 
     16 CA         11.9840    9.9975    8.6130 C.3       3 GLC5        0.0000 
     17 CA         13.0890   11.7030    9.1670 C.3       9 GLL5        0.0000 
     18 CA         10.8790    8.2920    8.0590 C.3       6 GLP5        0.0000 
     19 CA         10.4895   13.0190    7.9660 C.3       3 GLC5        0.0000 
     20 CA         11.8620   13.8730    8.8690 C.3       9 GLL5        0.0000 
     21 CA          9.1170   12.1650    7.0630 C.3       6 GLP5        0.0000 
     22 CA         10.4030   14.7500    9.8500 C.3       3 GLC5        0.0000 
     23 CA          8.9440   15.6270   10.8310 C.3       6 GLP5        0.0000 
     24 CA         10.9955   12.8410    6.7550 C.3       3 GLC5        0.0000 
     25 CA         11.9990   14.1100    7.3450 C.3       9 GLL5        0.0000 
     26 CA          9.9920   11.5720    6.1650 C.3       6 GLP5        0.0000 
     27 CA         13.1425   12.9865    6.1795 C.3       3 GLC5        0.0000 
     28 CA         14.2860   11.8630    5.0140 C.3       6 GLP5        0.0000 
     29 CA         12.0600   17.7675    6.9635 C.3       3 GLC5        0.0000 
     30 CA         12.2480   15.5420    6.8870 C.3       9 GLL5        0.0000 
     31 CA         11.8720   19.9930    7.0400 C.3       6 GLP5        0.0000 
     32 CA         10.1360   16.0650    6.3420 C.3       3 GLC5        0.0000 
     33 CA          8.0240   16.5880    5.7970 C.3       6 GLP5        0.0000 
     34 CA         14.8150   16.6075    3.8405 C.3       3 GLC5        0.0000 
     35 CA         14.6920   15.8900    5.8940 C.3       9 GLL5        0.0000 
     36 CA         14.9380   17.3250    1.7870 C.3       6 GLP5        0.0000 
     37 CA         15.1783    9.6830   11.0715 C.3       3 GLC5        0.0000 
     38 CA         15.2420   11.6490   10.3420 C.3       9 GLL5        0.0000 
     39 CA         15.6360    8.0540   12.1720 C.3       6 GLP5        0.0000 
     40 CA         16.8180    9.4657   11.6328 C.3       3 GLC5        0.0000 
     41 CA         17.5280   10.9510   10.5850 C.3       9 GLL5        0.0000 
     42 CA         18.3292    8.9560    8.4477 C.3       3 GLC5        0.0000 
     43 CA         18.0540    7.1430    7.8050 C.3       6 GLP5        0.0000 
     44 CA         20.0768    8.4892   10.9467 C.3       3 GLC5        0.0000 
     45 CA         20.2190   10.6000    9.9640 C.3       9 GLL5        0.0000 
     46 CA         20.1340    6.3460   11.2650 C.3       6 GLP5        0.0000 
     47 CA         21.2551    9.3268    9.7589 C.3       3 GLC5        0.0000 
     48 CA         22.7260    7.9980    9.1460 C.3       6 GLP5        0.0000 
     49 CA         12.5794   15.2576   10.2915 C.3       3 GLC5        0.0000 
     50 CA         14.0010   13.7190   10.1610 C.3       9 GLL5        0.0000 
     51 CA         12.4620   16.8800   11.2700 C.3       6 GLP5        0.0000 
     52 CA         14.1122   13.8018    5.3955 C.3       3 GLC5        0.0000 
     53 CA         13.1850   15.5910    5.6600 C.3       9 GLL5        0.0000 
     54 CA         14.1958   17.6698    5.7195 C.3       3 GLC5        0.0000 
     55 CA         14.4530   19.5990    5.6620 C.3       6 GLP5        0.0000 
@<TRIPOS>BOND
@<TRIPOS>SUBSTRUCTURE
     1 ALC1        4 GROUP        1 X    ALC  0     ROOT ALC X 1
     2 SEC2        1 GROUP        1 X    SEC  0     **** SEC X 2
     3 GLC5        7 GROUP        1 X    GLC  0     **** GLC X 6
     4 ALP1        6 GROUP        1 Y    ALP  0     ROOT ALP Y 8
     5 SEP2        3 GROUP        1 Y    SEP  0     **** SEP Y 9
     6 GLP5        9 GROUP        1 Y    GLP  0     **** GLP Y 13
     7 ALL1        5 GROUP        1 Z    ALL  0     ROOT ALL Z 15
     8 SEL2        2 GROUP        1 Z    SEL  0     **** SEL Z 16
     9 GLL5        8 GROUP        1 Z    GLL  0     **** GLL Z 20
@<TRIPOS>SET

