#    Name: 2b36_5PP_1_ligand
#    Modification time : Mon Mar 24 19:50:04 2014

@<TRIPOS>MOLECULE
2b36_5PP_1_ligand
   39    40     1     0     0
SMALL
NO_CHARGES


@<TRIPOS>ATOM
      1 O17        14.1830    9.6720    9.7680 O.3       1 5PP290      0.0000 
      2 C6         14.1990   10.9750    9.6000 C.ar      1 5PP290      0.0000 
      3 C5         15.2420   11.6490   10.3420 C.ar      1 5PP290      0.0000 
      4 O7         16.1890   10.8180   10.8950 O.3       1 5PP290      0.0000 
      5 C8         17.5280   10.9510   10.5850 C.ar      1 5PP290      0.0000 
      6 C13        17.9310   10.8460    9.2440 C.ar      1 5PP290      0.0000 
      7 C12        19.2780   10.6920    8.9370 C.ar      1 5PP290      0.0000 
      8 C11        20.2190   10.6000    9.9640 C.ar      1 5PP290      0.0000 
      9 C10        19.8200   10.6650   11.2930 C.ar      1 5PP290      0.0000 
     10 C9         18.4720   10.8040   11.6020 C.ar      1 5PP290      0.0000 
     11 C4         15.0950   13.0010   10.6580 C.ar      1 5PP290      0.0000 
     12 C3         14.0010   13.7190   10.1610 C.ar      1 5PP290      0.0000 
     13 C2         13.0620   13.0760    9.3530 C.ar      1 5PP290      0.0000 
     14 C1         13.0890   11.7030    9.1670 C.ar      1 5PP290      0.0000 
     15 C14        11.8620   13.8730    8.8690 C.3       1 5PP290      0.0000 
     16 C15        11.9990   14.1100    7.3450 C.3       1 5PP290      0.0000 
     17 C16        12.2480   15.5420    6.8870 C.3       1 5PP290      0.0000 
     18 C17        13.1850   15.5910    5.6600 C.3       1 5PP290      0.0000 
     19 C18        14.6920   15.8900    5.8940 C.3       1 5PP290      0.0000 
     20 H          17.2291   10.8835    8.4982 H         1 5PP290      0.0000 
     21 H          19.5828   10.6457    7.9578 H         1 5PP290      0.0000 
     22 H          21.2165   10.4830    9.7314 H         1 5PP290      0.0000 
     23 H          20.5177   10.6106   12.0443 H         1 5PP290      0.0000 
     24 H          18.1662   10.7988   12.5853 H         1 5PP290      0.0000 
     25 H          15.7865   13.4687   11.2531 H         1 5PP290      0.0000 
     26 H          13.8918   14.7106   10.3900 H         1 5PP290      0.0000 
     27 H          12.3050   11.2227    8.7169 H         1 5PP290      0.0000 
     28 H          11.8289   14.8293    9.3684 H         1 5PP290      0.0000 
     29 H          10.9534   13.3209    9.0551 H         1 5PP290      0.0000 
     30 H          11.0751   13.7281    6.8527 H         1 5PP290      0.0000 
     31 H          12.8230   13.4612    6.9683 H         1 5PP290      0.0000 
     32 H          12.7037   16.1106    7.6984 H         1 5PP290      0.0000 
     33 H          11.2995   16.0105    6.6221 H         1 5PP290      0.0000 
     34 H          12.7885   16.3520    4.9436 H         1 5PP290      0.0000 
     35 H          13.1058   14.6173    5.1167 H         1 5PP290      0.0000 
     36 H          15.1192   15.2053    6.4845 H         1 5PP290      0.0000 
     37 H          15.2063   15.8994    5.0364 H         1 5PP290      0.0000 
     38 H          14.8309   16.7797    6.3289 H         1 5PP290      0.0000 
     39 H          14.1798    9.2919    8.8430 H         1 5PP290      0.0000 
@<TRIPOS>BOND
     1    2    1 1    
     2   39    1 1    
     3    3    2 ar   
     4   14    2 ar   
     5    4    3 1    
     6   11    3 ar   
     7    5    4 1    
     8    6    5 ar   
     9   10    5 ar   
    10    7    6 ar   
    11   20    6 1    
    12    8    7 ar   
    13   21    7 1    
    14    9    8 ar   
    15   22    8 1    
    16   10    9 ar   
    17   23    9 1    
    18   24   10 1    
    19   12   11 ar   
    20   25   11 1    
    21   13   12 ar   
    22   26   12 1    
    23   14   13 ar   
    24   15   13 1    
    25   27   14 1    
    26   16   15 1    
    27   28   15 1    
    28   29   15 1    
    29   17   16 1    
    30   30   16 1    
    31   31   16 1    
    32   18   17 1    
    33   32   17 1    
    34   33   17 1    
    35   19   18 1    
    36   34   18 1    
    37   35   18 1    
    38   36   19 1    
    39   37   19 1    
    40   38   19 1    
@<TRIPOS>SUBSTRUCTURE
     1 5PP290      1 GROUP   
@<TRIPOS>SET

