#    Name: 1um0_FMN_3_INTS_M
#    Modification time : Tue Mar 25 06:40:34 2014

@<TRIPOS>MOLECULE
1um0_FMN_3_INTS_M
   49     0    12     0     0
SMALL
NO_CHARGES


@<TRIPOS>ATOM
      1 CA         57.4615    3.8295   35.4505 C.3       4 GLC5        0.0000 
      2 CA         58.2610    5.2400   35.8890 C.3      12 GLL5        0.0000 
      3 CA         56.6620    2.4190   35.0120 C.3       8 GLP5        0.0000 
      4 CA         59.8555    4.7250   36.2790 C.3       4 GLC5        0.0000 
      5 CA         61.4500    4.2100   36.6690 C.3       8 GLP5        0.0000 
      6 CA         57.4210    4.5390   33.2110 C.3       4 GLC5        0.0000 
      7 CA         56.4240    6.0920   34.4680 C.3      12 GLL5        0.0000 
      8 CA         58.4180    2.9860   31.9540 C.3       8 GLP5        0.0000 
      9 CA         54.4855    4.9485   31.3140 C.3       4 GLC5        0.0000 
     10 CA         55.5980    6.8040   31.7750 C.3      12 GLL5        0.0000 
     11 CA         53.3730    3.0930   30.8530 C.3       8 GLP5        0.0000 
     12 CA         55.3755    9.6845   31.9855 C.3       4 GLC5        0.0000 
     13 CA         56.5560    8.0420   31.6260 C.3      12 GLL5        0.0000 
     14 CA         54.1950   11.3270   32.3450 C.3       8 GLP5        0.0000 
     15 O          56.4010    9.6865   29.7905 O.2       1 ALC1        0.0000 
     16 O          55.8090    9.2320   31.2270 O.2       9 ALL1        0.0000 
     17 O          56.9930   10.1410   28.3540 O.2       5 ALP1        0.0000 
     18 CA         59.0825    8.2905   32.0775 C.3       4 GLC5        0.0000 
     19 CA         58.7460    6.7620   30.8650 C.3      12 GLL5        0.0000 
     20 CA         59.4190    9.8190   33.2900 C.3       8 GLP5        0.0000 
     21 CA         61.7485    7.1120   29.5735 C.3       4 GLC5        0.0000 
     22 CA         59.7450    6.7050   29.6840 C.3      12 GLL5        0.0000 
     23 CA         63.7520    7.5190   29.4630 C.3       8 GLP5        0.0000 
     24 N          59.5160    4.0150   28.2035 N.am      2 SEC2        0.0000 
     25 N          59.4740    5.5430   28.8750 N.am     10 SEL2        0.0000 
     26 N          59.5580    2.4870   27.5320 N.am      6 SEP2        0.0000 
     27 NZ         59.5955    3.6580   26.9980 N.4       3 LYC4        0.0000 
     28 NZ         59.6330    4.8290   26.4640 N.4      11 LYL4        0.0000 
     29 NZ         59.5580    2.4870   27.5320 N.4       7 LYP4        0.0000 
     30 N          59.5955    3.6580   26.9980 N.am      2 SEC2        0.0000 
     31 N          59.6330    4.8290   26.4640 N.am     10 SEL2        0.0000 
     32 NZ         58.4705    4.0545   27.4640 N.4       3 LYC4        0.0000 
     33 NZ         57.3830    5.6220   27.3960 N.4      11 LYL4        0.0000 
     34 N          58.0545    7.8350   26.9870 N.am      2 SEC2        0.0000 
     35 N          59.3180    7.2830   27.0210 N.am     10 SEL2        0.0000 
     36 N          56.7910    8.3870   26.9530 N.am      6 SEP2        0.0000 
     37 CA         54.8457    4.6348   37.8450 C.3       4 GLC5        0.0000 
     38 CA         56.5830    5.9500   38.3830 C.3      12 GLL5        0.0000 
     39 CA         53.6820    3.0450   38.0730 C.3       8 GLP5        0.0000 
     40 CA         56.5575    4.2409   35.2173 C.3       4 GLC5        0.0000 
     41 CA         56.0780    6.2060   36.9660 C.3      12 GLL5        0.0000 
     42 CA         54.3370    5.0684   34.2270 C.3       4 GLC5        0.0000 
     43 CA         53.0880    3.6670   33.8130 C.3       8 GLP5        0.0000 
     44 CA         58.2555    8.8648   32.1822 C.3       4 GLC5        0.0000 
     45 CA         55.8623    8.3075   29.7084 C.3       4 GLC5        0.0000 
     46 CA         57.6280    7.7790   30.5230 C.3      12 GLL5        0.0000 
     47 CA         54.8720    9.0140   28.3050 C.3       8 GLP5        0.0000 
     48 CA         59.3942    5.0202   30.6427 C.3       4 GLC5        0.0000 
     49 CA         59.5430    3.3070   31.0110 C.3       8 GLP5        0.0000 
@<TRIPOS>BOND
@<TRIPOS>SUBSTRUCTURE
     1 ALC1       15 GROUP        1 X    ALC  0     ROOT ALC X 1
     2 SEC2       24 GROUP        1 X    SEC  0     **** SEC X 2
     3 LYC4       27 GROUP        1 X    LYC  0     **** LYC X 4
     4 GLC5        1 GROUP        1 X    GLC  0     **** GLC X 6
     5 ALP1       17 GROUP        1 Y    ALP  0     ROOT ALP Y 8
     6 SEP2       26 GROUP        1 Y    SEP  0     **** SEP Y 9
     7 LYP4       29 GROUP        1 Y    LYP  0     **** LYP Y 11
     8 GLP5        3 GROUP        1 Y    GLP  0     **** GLP Y 13
     9 ALL1       16 GROUP        1 Z    ALL  0     ROOT ALL Z 15
    10 SEL2       25 GROUP        1 Z    SEL  0     **** SEL Z 16
    11 LYL4       28 GROUP        1 Z    LYL  0     **** LYL Z 18
    12 GLL5        2 GROUP        1 Z    GLL  0     **** GLL Z 20
@<TRIPOS>SET

