#    Name: 1um0_FMN_3_ligand
#    Modification time : Tue Mar 25 06:40:35 2014

@<TRIPOS>MOLECULE
1um0_FMN_3_ligand
   50    52     1     0     0
SMALL
NO_CHARGES


@<TRIPOS>ATOM
      1 N1         52.8060    7.0730   31.4880 N.2       1 FMN3400     0.0000 
      2 C2         51.4760    7.3270   31.2880 C.2       1 FMN3400     0.0000 
      3 O2         50.9380    7.2570   30.1600 O.2       1 FMN3400     0.0000 
      4 N3         50.6560    7.6860   32.3920 N.am      1 FMN3400     0.0000 
      5 C4         51.1240    7.8090   33.7450 C.2       1 FMN3400     0.0000 
      6 O4         50.3920    8.1280   34.7100 O.2       1 FMN3400     0.0000 
      7 C4A        52.5470    7.5300   33.9320 C.2       1 FMN3400     0.0000 
      8 N5         53.1190    7.5910   35.1760 N.2       1 FMN3400     0.0000 
      9 C5A        54.3530    7.0180   35.4040 C.ar      1 FMN3400     0.0000 
     10 C6         54.7940    6.7920   36.7360 C.ar      1 FMN3400     0.0000 
     11 C7         56.0780    6.2060   36.9660 C.ar      1 FMN3400     0.0000 
     12 C7M        56.5830    5.9500   38.3830 C.3       1 FMN3400     0.0000 
     13 C8         56.8860    5.8610   35.7880 C.ar      1 FMN3400     0.0000 
     14 C8M        58.2610    5.2400   35.8890 C.3       1 FMN3400     0.0000 
     15 C9         56.4240    6.0920   34.4680 C.ar      1 FMN3400     0.0000 
     16 C9A        55.1430    6.6770   34.2240 C.ar      1 FMN3400     0.0000 
     17 N10        54.6980    6.8790   32.9870 N.pl3     1 FMN3400     0.0000 
     18 C10        53.3540    7.1600   32.7470 C.2       1 FMN3400     0.0000 
     19 C1'        55.5980    6.8040   31.7750 C.3       1 FMN3400     0.0000 
     20 C2'        56.5560    8.0420   31.6260 C.3       1 FMN3400     0.0000 
     21 O2'        55.8090    9.2320   31.2270 O.3       1 FMN3400     0.0000 
     22 C3'        57.6280    7.7790   30.5230 C.3       1 FMN3400     0.0000 
     23 O3'        56.9200    7.2200   29.3990 O.3       1 FMN3400     0.0000 
     24 C4'        58.7460    6.7620   30.8650 C.3       1 FMN3400     0.0000 
     25 O4'        59.4930    7.0390   32.0800 O.3       1 FMN3400     0.0000 
     26 C5'        59.7450    6.7050   29.6840 C.3       1 FMN3400     0.0000 
     27 O5'        59.4740    5.5430   28.8750 O.3       1 FMN3400     0.0000 
     28 P          58.8970    5.7500   27.3640 P.3       1 FMN3400     0.0000 
     29 O1P        59.6330    4.8290   26.4640 O.co2     1 FMN3400     0.0000 
     30 O2P        57.3830    5.6220   27.3960 O.co2     1 FMN3400     0.0000 
     31 O3P        59.3180    7.2830   27.0210 O.co2     1 FMN3400     0.0000 
     32 H          49.6412    7.8749   32.2138 H         1 FMN3400     0.0000 
     33 H          54.2043    7.0435   37.5217 H         1 FMN3400     0.0000 
     34 H          57.0160    5.8365   33.6700 H         1 FMN3400     0.0000 
     35 H          54.9939    6.7385   30.8607 H         1 FMN3400     0.0000 
     36 H          56.2234    5.9031   31.8254 H         1 FMN3400     0.0000 
     37 H          57.0635    8.1947   32.5510 H         1 FMN3400     0.0000 
     38 H          58.0734    8.7108   30.2410 H         1 FMN3400     0.0000 
     39 H          58.2864    5.7691   30.9151 H         1 FMN3400     0.0000 
     40 H          60.7518    6.6788   30.1065 H         1 FMN3400     0.0000 
     41 H          59.6334    7.6302   29.1145 H         1 FMN3400     0.0000 
     42 H          57.4945    5.5388   38.3838 H         1 FMN3400     0.0000 
     43 H          56.6422    6.7950   38.9145 H         1 FMN3400     0.0000 
     44 H          55.9810    5.3293   38.8853 H         1 FMN3400     0.0000 
     45 H          58.6603    5.0731   34.9875 H         1 FMN3400     0.0000 
     46 H          58.8982    5.8277   36.3875 H         1 FMN3400     0.0000 
     47 H          58.2377    4.3616   36.3664 H         1 FMN3400     0.0000 
     48 H          56.1735    9.4771   30.3286 H         1 FMN3400     0.0000 
     49 H          57.5580    6.5676   28.9899 H         1 FMN3400     0.0000 
     50 H          60.4243    6.7300   31.8872 H         1 FMN3400     0.0000 
@<TRIPOS>BOND
     1    2    1 1    
     2   18    1 2    
     3    3    2 2    
     4    4    2 am   
     5    5    4 am   
     6   32    4 1    
     7    6    5 2    
     8    7    5 1    
     9    8    7 2    
    10   18    7 1    
    11    9    8 1    
    12   10    9 ar   
    13   16    9 ar   
    14   11   10 ar   
    15   33   10 1    
    16   12   11 1    
    17   13   11 ar   
    18   42   12 1    
    19   43   12 1    
    20   44   12 1    
    21   14   13 1    
    22   15   13 ar   
    23   45   14 1    
    24   46   14 1    
    25   47   14 1    
    26   16   15 ar   
    27   34   15 1    
    28   17   16 1    
    29   18   17 1    
    30   19   17 1    
    31   20   19 1    
    32   35   19 1    
    33   36   19 1    
    34   21   20 1    
    35   22   20 1    
    36   37   20 1    
    37   48   21 1    
    38   23   22 1    
    39   24   22 1    
    40   38   22 1    
    41   49   23 1    
    42   25   24 1    
    43   26   24 1    
    44   39   24 1    
    45   50   25 1    
    46   27   26 1    
    47   40   26 1    
    48   41   26 1    
    49   28   27 1    
    50   29   28 ar   
    51   30   28 ar   
    52   31   28 ar   
@<TRIPOS>SUBSTRUCTURE
     1 FMN3400     1 GROUP   
@<TRIPOS>SET

