#    Name: 1bpw_NAD_4_INTS_M
#    Modification time : Mon Mar 24 19:43:11 2014

@<TRIPOS>MOLECULE
1bpw_NAD_4_INTS_M
   94     0     9     0     0
SMALL
NO_CHARGES


@<TRIPOS>ATOM
      1 N          31.5580   -3.9680  -16.5150 N.am      2 SEC2        0.0000 
      2 N          31.9800   -2.8090  -16.4220 N.am      8 SEL2        0.0000 
      3 N          31.1360   -5.1270  -16.6080 N.am      5 SEP2        0.0000 
      4 N          32.4180   -3.3495  -15.4455 N.am      2 SEC2        0.0000 
      5 N          32.8560   -3.8900  -14.4690 N.am      5 SEP2        0.0000 
      6 CA         29.0025   -0.4175  -16.2530 C.3       3 GLC5        0.0000 
      7 CA         30.7620    0.9560  -16.4740 C.3       9 GLL5        0.0000 
      8 CA         27.2430   -1.7910  -16.0320 C.3       6 GLP5        0.0000 
      9 CA         30.0665    0.6980  -13.8205 C.3       3 GLC5        0.0000 
     10 CA         30.8170    1.9610  -15.2920 C.3       9 GLL5        0.0000 
     11 CA         29.3160   -0.5650  -12.3490 C.3       6 GLP5        0.0000 
     12 N          32.1470    5.3110  -14.4370 N.am      2 SEC2        0.0000 
     13 N          31.2850    4.3170  -15.0670 N.am      8 SEL2        0.0000 
     14 N          33.0090    6.3050  -13.8070 N.am      5 SEP2        0.0000 
     15 O          29.9290    4.1900  -15.3495 O.2       1 ALC1        0.0000 
     16 O          31.2850    4.3170  -15.0670 O.2       7 ALL1        0.0000 
     17 O          28.5730    4.0630  -15.6320 O.2       4 ALP1        0.0000 
     18 N          33.4720    4.9780  -14.3095 N.am      2 SEC2        0.0000 
     19 N          33.9350    3.6510  -14.8120 N.am      8 SEL2        0.0000 
     20 CA         31.3270    2.6240  -12.6570 C.3       3 GLC5        0.0000 
     21 CA         32.6420    1.9720  -13.7530 C.3       9 GLL5        0.0000 
     22 CA         30.0120    3.2760  -11.5610 C.3       6 GLP5        0.0000 
     23 CA         30.9790    0.7035  -13.0510 C.3       3 GLC5        0.0000 
     24 CA         32.3270    1.9915   -9.1055 C.3       3 GLC5        0.0000 
     25 CA         33.9540    0.8280   -9.5730 C.3       9 GLL5        0.0000 
     26 CA         30.7000    3.1550   -8.6380 C.3       6 GLP5        0.0000 
     27 CA         34.1975    2.6205   -9.2555 C.3       3 GLC5        0.0000 
     28 CA         34.4410    4.4130   -8.9380 C.3       6 GLP5        0.0000 
     29 CA         35.1435    1.6285   -7.9470 C.3       3 GLC5        0.0000 
     30 CA         36.3330    2.4290   -6.3210 C.3       6 GLP5        0.0000 
     31 CA         32.4600   -0.4350   -9.1565 C.3       3 GLC5        0.0000 
     32 CA         30.9660   -1.6980   -8.7400 C.3       6 GLP5        0.0000 
     33 CA         34.2365   -0.4140   -7.9635 C.3       3 GLC5        0.0000 
     34 CA         34.5190   -1.6560   -6.3540 C.3       6 GLP5        0.0000 
     35 N          31.1195    0.6100  -21.2570 N.am      2 SEC2        0.0000 
     36 N          31.8920   -0.4910  -20.2660 N.am      8 SEL2        0.0000 
     37 N          30.3470    1.7110  -22.2480 N.am      5 SEP2        0.0000 
     38 CA         28.6825   -0.5625  -22.5435 C.3       3 GLC5        0.0000 
     39 CA         28.0410   -1.6870  -20.8450 C.3       9 GLL5        0.0000 
     40 CA         29.3240    0.5620  -24.2420 C.3       6 GLP5        0.0000 
     41 CA         27.1225   -1.6010  -22.4320 C.3       3 GLC5        0.0000 
     42 CA         26.2040   -1.5150  -24.0190 C.3       6 GLP5        0.0000 
     43 CA         27.2565   -2.1665  -17.9295 C.3       3 GLC5        0.0000 
     44 CA         27.2700   -2.5420  -19.8270 C.3       9 GLL5        0.0000 
     45 CA         27.9940   -3.8685  -18.3220 C.3       3 GLC5        0.0000 
     46 CA         28.7180   -5.1950  -16.8170 C.3       6 GLP5        0.0000 
     47 CA         26.1350   -2.2290  -21.6430 C.3       3 GLC5        0.0000 
     48 CA         25.0000   -1.9160  -23.4590 C.3       6 GLP5        0.0000 
     49 O          26.5265   -6.1320  -20.6400 O.2       1 ALC1        0.0000 
     50 O          26.9100   -5.0300  -19.9240 O.2       7 ALL1        0.0000 
     51 O          26.1430   -7.2340  -21.3560 O.2       4 ALP1        0.0000 
     52 O          24.1015   -5.5855  -21.1345 O.2       1 ALC1        0.0000 
     53 O          24.0750   -4.5590  -20.2540 O.2       7 ALL1        0.0000 
     54 O          24.1280   -6.6120  -22.0150 O.2       4 ALP1        0.0000 
     55 CA         26.0950   -2.1940  -17.5145 C.3       3 GLC5        0.0000 
     56 CA         24.9470   -2.5970  -18.9970 C.3       9 GLL5        0.0000 
     57 CA         22.0585   -2.8815  -19.2425 C.3       3 GLC5        0.0000 
     58 CA         22.6390   -2.2590  -17.7520 C.3       9 GLL5        0.0000 
     59 CA         21.4780   -3.5040  -20.7330 C.3       6 GLP5        0.0000 
     60 CA         21.1030   -1.7085  -15.4570 C.3       3 GLC5        0.0000 
     61 CA         21.4260   -1.4880  -17.5250 C.3       9 GLL5        0.0000 
     62 CA         20.7800   -1.9290  -13.3890 C.3       6 GLP5        0.0000 
     63 N          18.6115   -1.3380  -14.7455 N.am      2 SEC2        0.0000 
     64 N          19.4990   -1.1140  -15.9610 N.am      8 SEL2        0.0000 
     65 N          17.7240   -1.5620  -13.5300 N.am      5 SEP2        0.0000 
     66 O          21.3715   -4.2545  -16.2820 O.2       1 ALC1        0.0000 
     67 O          20.3760   -3.2950  -16.0300 O.2       7 ALL1        0.0000 
     68 O          22.3670   -5.2140  -16.5340 O.2       4 ALP1        0.0000 
     69 CA         24.8225    0.9085  -18.8815 C.3       3 GLC5        0.0000 
     70 CA         23.3890   -0.5850  -19.5450 C.3       9 GLL5        0.0000 
     71 CA         26.2560    2.4020  -18.2180 C.3       6 GLP5        0.0000 
     72 CA         30.6438    2.8860  -13.5075 C.3       3 GLC5        0.0000 
     73 CA         33.0022    4.1813  -13.3592 C.3       3 GLC5        0.0000 
     74 CA         33.1600    6.0830  -12.3450 C.3       6 GLP5        0.0000 
     75 CA         36.1505    1.2138  -11.9377 C.3       3 GLC5        0.0000 
     76 CA         34.8400   -0.1580  -11.9310 C.3       9 GLL5        0.0000 
     77 CA         37.7930    2.2400  -12.2160 C.3       6 GLP5        0.0000 
     78 CA         33.5115   -1.2343  -12.0568 C.3       3 GLC5        0.0000 
     79 CA         32.5150   -2.6560  -12.4540 C.3       6 GLP5        0.0000 
     80 CA         25.1645   -3.3802  -22.0038 C.3       3 GLC5        0.0000 
     81 CA         26.5300   -3.6940  -20.5120 C.3       9 GLL5        0.0000 
     82 CA         24.5780   -3.2300  -23.6080 C.3       6 GLP5        0.0000 
     83 CA         24.3297   -4.9005  -18.9530 C.3       3 GLC5        0.0000 
     84 CA         24.9720   -3.3670  -20.2870 C.3       9 GLL5        0.0000 
     85 CA         23.7000   -6.8190  -18.2640 C.3       6 GLP5        0.0000 
     86 CA         23.2188   -3.2430  -20.1875 C.3       3 GLC5        0.0000 
     87 CA         22.8417   -0.5882  -16.7542 C.3       3 GLC5        0.0000 
     88 CA         23.6510    0.6970  -15.8700 C.3       6 GLP5        0.0000 
     89 CA         20.8072   -1.5425  -19.1280 C.3       3 GLC5        0.0000 
     90 CA         20.3050   -2.2060  -20.3420 C.3       6 GLP5        0.0000 
     91 CA         21.5448   -1.2045  -19.8855 C.3       3 GLC5        0.0000 
     92 CA         22.1800    0.1790  -19.3130 C.3       9 GLL5        0.0000 
     93 CA         23.0944    0.1909  -17.5232 C.3       3 GLC5        0.0000 
     94 CA         21.1930   -0.2700  -18.3030 C.3       9 GLL5        0.0000 
@<TRIPOS>BOND
@<TRIPOS>SUBSTRUCTURE
     1 ALC1       15 GROUP        1 X    ALC  0     ROOT ALC X 1
     2 SEC2        1 GROUP        1 X    SEC  0     **** SEC X 2
     3 GLC5        6 GROUP        1 X    GLC  0     **** GLC X 6
     4 ALP1       17 GROUP        1 Y    ALP  0     ROOT ALP Y 8
     5 SEP2        3 GROUP        1 Y    SEP  0     **** SEP Y 9
     6 GLP5        8 GROUP        1 Y    GLP  0     **** GLP Y 13
     7 ALL1       16 GROUP        1 Z    ALL  0     ROOT ALL Z 15
     8 SEL2        2 GROUP        1 Z    SEL  0     **** SEL Z 16
     9 GLL5        7 GROUP        1 Z    GLL  0     **** GLL Z 20
@<TRIPOS>SET

