#    Name: 1bpw_NAD_4_ligand
#    Modification time : Mon Mar 24 19:43:11 2014

@<TRIPOS>MOLECULE
1bpw_NAD_4_ligand
   70    74     1     0     0
SMALL
NO_CHARGES


@<TRIPOS>ATOM
      1 PA         31.8480   -1.4670  -17.1280 P.3       1 NAD504      0.0000 
      2 O1A        31.9800   -2.8090  -16.4220 O.co2     1 NAD504      0.0000 
      3 O2A        33.0930   -0.8290  -17.7980 O.co2     1 NAD504      0.0000 
      4 O5B        31.1450   -0.3630  -16.0360 O.3       1 NAD504      0.0000 
      5 C5B        30.7620    0.9560  -16.4740 C.3       1 NAD504      0.0000 
      6 C4B        30.8170    1.9610  -15.2920 C.3       1 NAD504      0.0000 
      7 O4B        31.3410    1.3160  -14.0390 O.3       1 NAD504      0.0000 
      8 C3B        31.7340    3.0310  -15.6160 C.3       1 NAD504      0.0000 
      9 O3B        31.2850    4.3170  -15.0670 O.3       1 NAD504      0.0000 
     10 C2B        33.0470    2.5870  -14.9940 C.3       1 NAD504      0.0000 
     11 O2B        33.9350    3.6510  -14.8120 O.3       1 NAD504      0.0000 
     12 C1B        32.6420    1.9720  -13.7530 C.3       1 NAD504      0.0000 
     13 N9A        33.6250    1.0200  -13.2600 N.pl3     1 NAD504      0.0000 
     14 C8A        34.4450    0.1600  -14.0190 C.2       1 NAD504      0.0000 
     15 N7A        35.2170   -0.5890  -13.1230 N.2       1 NAD504      0.0000 
     16 C5A        34.8400   -0.1580  -11.9310 C.ar      1 NAD504      0.0000 
     17 C6A        35.3980   -0.6840  -10.7750 C.ar      1 NAD504      0.0000 
     18 N6A        36.3320   -1.6470  -10.8180 N.pl3     1 NAD504      0.0000 
     19 N1A        34.9410   -0.1750   -9.5690 N.ar      1 NAD504      0.0000 
     20 C2A        33.9540    0.8280   -9.5730 C.ar      1 NAD504      0.0000 
     21 N3A        33.4350    1.3130  -10.7780 N.ar      1 NAD504      0.0000 
     22 C4A        33.8970    0.7960  -11.9660 C.ar      1 NAD504      0.0000 
     23 O3         30.7030   -1.5830  -18.2540 O.3       1 NAD504      0.0000 
     24 PN         30.4650   -0.7270  -19.6510 P.3       1 NAD504      0.0000 
     25 O1N        31.8920   -0.4910  -20.2660 O.co2     1 NAD504      0.0000 
     26 O2N        29.5180    0.5280  -19.3470 O.co2     1 NAD504      0.0000 
     27 O5D        29.5390   -1.8840  -20.6500 O.3       1 NAD504      0.0000 
     28 C5D        28.0410   -1.6870  -20.8450 C.3       1 NAD504      0.0000 
     29 C4D        27.2700   -2.5420  -19.8270 C.3       1 NAD504      0.0000 
     30 O4D        26.1950   -1.7080  -19.0860 O.3       1 NAD504      0.0000 
     31 C3D        26.5300   -3.6940  -20.5120 C.3       1 NAD504      0.0000 
     32 O3D        26.9100   -5.0300  -19.9240 O.3       1 NAD504      0.0000 
     33 C2D        24.9720   -3.3670  -20.2870 C.3       1 NAD504      0.0000 
     34 O2D        24.0750   -4.5590  -20.2540 O.3       1 NAD504      0.0000 
     35 C1D        24.9470   -2.5970  -18.9970 C.3       1 NAD504      0.0000 
     36 N1N        23.6380   -1.8030  -18.7750 N.pl3     1 NAD504      0.0000 
     37 C2N        22.6390   -2.2590  -17.7520 C.ar      1 NAD504      0.0000 
     38 C3N        21.4260   -1.4880  -17.5250 C.ar      1 NAD504      0.0000 
     39 C7N        20.3330   -1.9500  -16.4240 C.2       1 NAD504      0.0000 
     40 O7N        19.4990   -1.1140  -15.9610 O.2       1 NAD504      0.0000 
     41 N7N        20.3760   -3.2950  -16.0300 N.am      1 NAD504      0.0000 
     42 C4N        21.1930   -0.2700  -18.3030 C.ar      1 NAD504      0.0000 
     43 C5N        22.1800    0.1790  -19.3130 C.ar      1 NAD504      0.0000 
     44 C6N        23.3890   -0.5850  -19.5450 C.ar      1 NAD504      0.0000 
     45 H          29.7399    0.9720  -16.8680 H         1 NAD504      0.0000 
     46 H          31.4307    1.3345  -17.2548 H         1 NAD504      0.0000 
     47 H          29.8369    2.3407  -15.1170 H         1 NAD504      0.0000 
     48 H          31.8770    3.0846  -16.6759 H         1 NAD504      0.0000 
     49 H          33.4472    1.8153  -15.6498 H         1 NAD504      0.0000 
     50 H          32.4628    2.7497  -13.0120 H         1 NAD504      0.0000 
     51 H          34.4653    0.1042  -14.9558 H         1 NAD504      0.0000 
     52 H          36.6168   -1.9434  -11.7296 H         1 NAD504      0.0000 
     53 H          36.6596   -1.9820   -9.9346 H         1 NAD504      0.0000 
     54 H          33.6132    1.2059   -8.6789 H         1 NAD504      0.0000 
     55 H          27.7614   -1.9907  -21.8466 H         1 NAD504      0.0000 
     56 H          27.7886   -0.6442  -20.6951 H         1 NAD504      0.0000 
     57 H          27.9416   -2.9452  -19.1014 H         1 NAD504      0.0000 
     58 H          26.7059   -3.6509  -21.5554 H         1 NAD504      0.0000 
     59 H          24.7000   -2.6863  -21.0863 H         1 NAD504      0.0000 
     60 H          25.0998   -3.2895  -18.1826 H         1 NAD504      0.0000 
     61 H          22.8252   -3.0950  -17.2369 H         1 NAD504      0.0000 
     62 H          19.7102   -3.5721  -15.3372 H         1 NAD504      0.0000 
     63 H          21.0688   -3.8621  -16.4755 H         1 NAD504      0.0000 
     64 H          20.3592    0.2715  -18.1567 H         1 NAD504      0.0000 
     65 H          21.9965    1.0205  -19.8328 H         1 NAD504      0.0000 
     66 H          24.0582   -0.2837  -20.2318 H         1 NAD504      0.0000 
     67 H          30.3628    4.1430  -14.7215 H         1 NAD504      0.0000 
     68 H          34.8181    3.2215  -14.6233 H         1 NAD504      0.0000 
     69 H          26.5409   -5.7072  -20.5605 H         1 NAD504      0.0000 
     70 H          24.3554   -5.1155  -21.0361 H         1 NAD504      0.0000 
@<TRIPOS>BOND
     1    2    1 ar   
     2    3    1 ar   
     3    4    1 1    
     4   23    1 1    
     5    5    4 1    
     6    6    5 1    
     7   45    5 1    
     8   46    5 1    
     9    7    6 1    
    10    8    6 1    
    11   47    6 1    
    12   12    7 1    
    13    9    8 1    
    14   10    8 1    
    15   48    8 1    
    16   67    9 1    
    17   11   10 1    
    18   12   10 1    
    19   49   10 1    
    20   68   11 1    
    21   13   12 1    
    22   50   12 1    
    23   14   13 1    
    24   22   13 1    
    25   15   14 2    
    26   51   14 1    
    27   16   15 1    
    28   17   16 ar   
    29   22   16 ar   
    30   18   17 1    
    31   19   17 ar   
    32   52   18 1    
    33   53   18 1    
    34   20   19 ar   
    35   21   20 ar   
    36   54   20 1    
    37   22   21 ar   
    38   24   23 1    
    39   25   24 ar   
    40   26   24 ar   
    41   27   24 1    
    42   28   27 1    
    43   29   28 1    
    44   55   28 1    
    45   56   28 1    
    46   30   29 1    
    47   31   29 1    
    48   57   29 1    
    49   35   30 1    
    50   32   31 1    
    51   33   31 1    
    52   58   31 1    
    53   69   32 1    
    54   34   33 1    
    55   35   33 1    
    56   59   33 1    
    57   70   34 1    
    58   36   35 1    
    59   60   35 1    
    60   37   36 ar   
    61   44   36 ar   
    62   38   37 ar   
    63   61   37 1    
    64   39   38 1    
    65   42   38 ar   
    66   40   39 2    
    67   41   39 am   
    68   62   41 1    
    69   63   41 1    
    70   43   42 ar   
    71   64   42 1    
    72   44   43 ar   
    73   65   43 1    
    74   66   44 1    
@<TRIPOS>SUBSTRUCTURE
     1 NAD504      1 GROUP   
@<TRIPOS>SET

