#    Name: 4ara_C56_1_INTS_M
#    Modification time : Tue Mar 25 06:02:47 2014

@<TRIPOS>MOLECULE
4ara_C56_1_INTS_M
   49     0     6     0     0
SMALL
NO_CHARGES


@<TRIPOS>ATOM
      1 CA         35.4185   25.5605   12.1060 C.3       2 GLC5        0.0000 
      2 CA         33.9140   25.2190   11.2320 C.3       6 GLL5        0.0000 
      3 CA         36.9230   25.9020   12.9800 C.3       4 GLP5        0.0000 
      4 CA         33.1945   26.2265   12.9895 C.3       2 GLC5        0.0000 
      5 CA         32.4750   27.2340   14.7470 C.3       4 GLP5        0.0000 
      6 CA         32.5035   25.9605   10.4510 C.3       2 GLC5        0.0000 
      7 CA         31.0930   26.7020    9.6700 C.3       4 GLP5        0.0000 
      8 CA         37.3600   22.6770    7.7310 C.3       2 GLC5        0.0000 
      9 CA         36.3660   24.1690    7.2730 C.3       6 GLL5        0.0000 
     10 CA         38.3540   21.1850    8.1890 C.3       4 GLP5        0.0000 
     11 CA         36.4825   21.5905    7.0410 C.3       2 GLC5        0.0000 
     12 CA         35.8290   22.5700    5.5750 C.3       6 GLL5        0.0000 
     13 CA         37.1360   20.6110    8.5070 C.3       4 GLP5        0.0000 
     14 N          31.8710   19.6730    5.2315 N.am      1 SEC2        0.0000 
     15 N          31.7990   20.7170    6.0450 N.am      5 SEL2        0.0000 
     16 N          31.9430   18.6290    4.4180 N.am      3 SEP2        0.0000 
     17 CA         29.4855   24.8345   11.1480 C.3       2 GLC5        0.0000 
     18 CA         29.1870   23.2480   12.3060 C.3       6 GLL5        0.0000 
     19 CA         29.7840   26.4210    9.9900 C.3       4 GLP5        0.0000 
     20 CA         27.2665   22.7505   15.8420 C.3       2 GLC5        0.0000 
     21 CA         27.9610   22.2320   14.3610 C.3       6 GLL5        0.0000 
     22 CA         26.5720   23.2690   17.3230 C.3       4 GLP5        0.0000 
     23 CA         26.5530   21.4995   16.0440 C.3       2 GLC5        0.0000 
     24 CA         27.4530   20.8030   14.5250 C.3       6 GLL5        0.0000 
     25 CA         25.6530   22.1960   17.5630 C.3       4 GLP5        0.0000 
     26 CA         31.7575   17.1915   12.3155 C.3       2 GLC5        0.0000 
     27 CA         30.6140   18.8700   11.8460 C.3       6 GLL5        0.0000 
     28 CA         32.9010   15.5130   12.7850 C.3       4 GLP5        0.0000 
     29 CA         31.9140   18.2395   10.5595 C.3       2 GLC5        0.0000 
     30 CA         33.2140   17.6090    9.2730 C.3       4 GLP5        0.0000 
     31 CA         29.5415   18.8630    9.9750 C.3       2 GLC5        0.0000 
     32 CA         28.4690   18.8560    8.1040 C.3       4 GLP5        0.0000 
     33 CA         31.9055   24.1700    7.8877 C.3       2 GLC5        0.0000 
     34 CA         31.9140   22.6630    9.4820 C.3       6 GLL5        0.0000 
     35 CA         31.3460   25.2280    6.1770 C.3       4 GLP5        0.0000 
     36 CA         32.7638   24.2390    7.2142 C.3       2 GLC5        0.0000 
     37 CA         34.1080   23.6420    8.8460 C.3       6 GLL5        0.0000 
     38 CA         31.9733   23.5838    7.0340 C.3       2 GLC5        0.0000 
     39 CA         33.1490   21.9700    7.4410 C.3       6 GLL5        0.0000 
     40 CA         27.7800   22.4228   11.4960 C.3       2 GLC5        0.0000 
     41 CA         26.3410   22.1360   10.1030 C.3       4 GLP5        0.0000 
     42 CA         26.6845   21.1161   12.4118 C.3       2 GLC5        0.0000 
     43 CA         28.1630   20.0070   13.4280 C.3       6 GLL5        0.0000 
     44 CA         25.4340   21.4700   10.8880 C.3       4 GLP5        0.0000 
     45 CA         30.8175   18.3203   14.0032 C.3       2 GLC5        0.0000 
     46 CA         30.5340   19.9950   12.8690 C.3       6 GLL5        0.0000 
     47 CA         31.0610   17.2080   15.6490 C.3       4 GLP5        0.0000 
     48 CA         32.4400   19.5063   12.4618 C.3       2 GLC5        0.0000 
     49 CA         34.3060   19.5800   12.5660 C.3       4 GLP5        0.0000 
@<TRIPOS>BOND
@<TRIPOS>SUBSTRUCTURE
     1 SEC2       14 GROUP        1 X    SEC  0     ROOT SEC X 2
     2 GLC5        1 GROUP        1 X    GLC  0     **** GLC X 6
     3 SEP2       16 GROUP        1 Y    SEP  0     ROOT SEP Y 9
     4 GLP5        3 GROUP        1 Y    GLP  0     **** GLP Y 13
     5 SEL2       15 GROUP        1 Z    SEL  0     ROOT SEL Z 16
     6 GLL5        2 GROUP        1 Z    GLL  0     **** GLL Z 20
@<TRIPOS>SET

