#    Name: 4ara_C56_1_ligand
#    Modification time : Tue Mar 25 06:02:48 2014

@<TRIPOS>MOLECULE
4ara_C56_1_ligand
   52    53     1     0     0
SMALL
NO_CHARGES


@<TRIPOS>ATOM
      1 O16        29.8760   21.6360   10.1220 O.2       1 C56600      0.0000 
      2 C15        30.6870   22.5270   10.3670 C.2       1 C56600      0.0000 
      3 C2         31.9140   22.6630    9.4820 C.ar      1 C56600      0.0000 
      4 C3         33.0160   23.5610    9.7150 C.ar      1 C56600      0.0000 
      5 O13        32.9010   24.3180   10.8320 O.3       1 C56600      0.0000 
      6 C14        33.9140   25.2190   11.2320 C.3       1 C56600      0.0000 
      7 C4         34.1080   23.6420    8.8460 C.ar      1 C56600      0.0000 
      8 C5         34.2550   22.8580    7.6570 C.ar      1 C56600      0.0000 
      9 N10        35.4040   23.1030    6.8940 N.3       1 C56600      0.0000 
     10 C12        36.3660   24.1690    7.2730 C.3       1 C56600      0.0000 
     11 C11        35.8290   22.5700    5.5750 C.3       1 C56600      0.0000 
     12 C6         33.1490   21.9700    7.4410 C.ar      1 C56600      0.0000 
     13 N7         32.9420   21.0030    6.3370 N.pl3     1 C56600      0.0000 
     14 O9         33.8560   20.3320    5.9120 O.2       1 C56600      0.0000 
     15 O8         31.7990   20.7170    6.0450 O.2       1 C56600      0.0000 
     16 C1         32.0520   21.9090    8.3410 C.ar      1 C56600      0.0000 
     17 N17        30.4170   23.3790   11.4710 N.am      1 C56600      0.0000 
     18 C18        29.1870   23.2480   12.3060 C.3       1 C56600      0.0000 
     19 C05        29.2510   22.1710   13.4720 C.3       1 C56600      0.0000 
     20 C06        27.9610   22.2320   14.3610 C.3       1 C56600      0.0000 
     21 C07        27.4530   20.8030   14.5250 C.3       1 C56600      0.0000 
     22 C08        28.1630   20.0070   13.4280 C.3       1 C56600      0.0000 
     23 N09        29.2830   20.8110   12.8330 N.4       1 C56600      0.0000 
     24 C10        30.5340   19.9950   12.8690 C.3       1 C56600      0.0000 
     25 C13        30.6140   18.8700   11.8460 C.3       1 C56600      0.0000 
     26 H          34.8805   24.3203    9.0687 H         1 C56600      0.0000 
     27 H          31.2814   21.2159    8.0958 H         1 C56600      0.0000 
     28 H          31.0751   24.1229   11.7286 H         1 C56600      0.0000 
     29 H          28.3155   22.9819   11.6736 H         1 C56600      0.0000 
     30 H          28.9359   24.2181   12.7814 H         1 C56600      0.0000 
     31 H          30.0971   22.3360   14.0548 H         1 C56600      0.0000 
     32 H          27.2292   22.8300   13.8585 H         1 C56600      0.0000 
     33 H          28.2232   22.6437   15.3136 H         1 C56600      0.0000 
     34 H          26.4012   20.7729   14.3655 H         1 C56600      0.0000 
     35 H          27.7348   20.4267   15.4798 H         1 C56600      0.0000 
     36 H          27.4381   19.7498   12.6550 H         1 C56600      0.0000 
     37 H          28.5550   19.0856   13.8598 H         1 C56600      0.0000 
     38 H          28.9899   20.9441   11.7535 H         1 C56600      0.0000 
     39 H          30.6591   19.5539   13.8840 H         1 C56600      0.0000 
     40 H          31.4148   20.6613   12.7253 H         1 C56600      0.0000 
     41 H          34.7813   24.7511   11.4018 H         1 C56600      0.0000 
     42 H          34.0880   25.9152   10.5356 H         1 C56600      0.0000 
     43 H          33.6712   25.7009   12.0739 H         1 C56600      0.0000 
     44 H          36.7540   24.0133    8.1814 H         1 C56600      0.0000 
     45 H          37.1320   24.2229    6.6324 H         1 C56600      0.0000 
     46 H          35.9337   25.0706    7.2896 H         1 C56600      0.0000 
     47 H          36.7114   22.9444    5.2900 H         1 C56600      0.0000 
     48 H          35.9239   21.5746    5.5897 H         1 C56600      0.0000 
     49 H          35.1706   22.7910    4.8555 H         1 C56600      0.0000 
     50 H          31.4727   18.3627   11.9183 H         1 C56600      0.0000 
     51 H          29.8725   18.2092   11.9619 H         1 C56600      0.0000 
     52 H          30.5554   19.2150   10.9092 H         1 C56600      0.0000 
@<TRIPOS>BOND
     1    2    1 2    
     2    3    2 1    
     3   17    2 am   
     4    4    3 ar   
     5   16    3 ar   
     6    5    4 1    
     7    7    4 ar   
     8    6    5 1    
     9   41    6 1    
    10   42    6 1    
    11   43    6 1    
    12    8    7 ar   
    13   26    7 1    
    14    9    8 1    
    15   12    8 ar   
    16   10    9 1    
    17   11    9 1    
    18   44   10 1    
    19   45   10 1    
    20   46   10 1    
    21   47   11 1    
    22   48   11 1    
    23   49   11 1    
    24   13   12 1    
    25   16   12 ar   
    26   14   13 2    
    27   15   13 2    
    28   27   16 1    
    29   18   17 1    
    30   28   17 1    
    31   19   18 1    
    32   29   18 1    
    33   30   18 1    
    34   20   19 1    
    35   23   19 1    
    36   31   19 1    
    37   21   20 1    
    38   32   20 1    
    39   33   20 1    
    40   22   21 1    
    41   34   21 1    
    42   35   21 1    
    43   23   22 1    
    44   36   22 1    
    45   37   22 1    
    46   24   23 1    
    47   38   23 1    
    48   25   24 1    
    49   39   24 1    
    50   40   24 1    
    51   50   25 1    
    52   51   25 1    
    53   52   25 1    
@<TRIPOS>SUBSTRUCTURE
     1 C56600      1 GROUP   
@<TRIPOS>SET

