#    Name: 3p2k_SAM_3_INTS_M
#    Modification time : Tue Mar 25 05:51:22 2014

@<TRIPOS>MOLECULE
3p2k_SAM_3_INTS_M
   76     0     9     0     0
SMALL
NO_CHARGES


@<TRIPOS>ATOM
      1 O          52.4050  -15.8485   55.4195 O.2       1 ALC1        0.0000 
      2 O          51.6360  -15.4720   56.1980 O.2       7 ALL1        0.0000 
      3 O          53.1740  -16.2250   54.6410 O.2       4 ALP1        0.0000 
      4 N          47.7125  -18.1700   55.6965 N.am      2 SEC2        0.0000 
      5 N          48.3310  -16.9550   55.6980 N.am      8 SEL2        0.0000 
      6 N          47.0940  -19.3850   55.6950 N.am      5 SEP2        0.0000 
      7 CA         49.1605  -15.9850   53.0155 C.3       3 GLC5        0.0000 
      8 CA         49.9490  -14.9060   54.5400 C.3       9 GLL5        0.0000 
      9 CA         48.3720  -17.0640   51.4910 C.3       6 GLP5        0.0000 
     10 CA         48.6940  -12.8765   56.1360 C.3       3 GLC5        0.0000 
     11 CA         49.9030  -13.4020   54.4500 C.3       9 GLL5        0.0000 
     12 CA         47.4850  -12.3510   57.8220 C.3       6 GLP5        0.0000 
     13 CA         49.0100  -12.0135   51.1265 C.3       3 GLC5        0.0000 
     14 CA         49.0270  -12.9570   52.9410 C.3       9 GLL5        0.0000 
     15 CA         48.9930  -11.0700   49.3120 C.3       6 GLP5        0.0000 
     16 CA         52.0275  -13.5545   51.6790 C.3       3 GLC5        0.0000 
     17 CA         49.9180  -13.7940   51.6010 C.3       9 GLL5        0.0000 
     18 CA         54.1370  -13.3150   51.7570 C.3       6 GLP5        0.0000 
     19 CA         49.0555  -12.9605   50.2295 C.3       3 GLC5        0.0000 
     20 CA         48.1930  -12.1270   48.8580 C.3       6 GLP5        0.0000 
     21 CA         49.0810  -10.6840   51.3820 C.3       3 GLC5        0.0000 
     22 CA         49.7820  -11.3540   52.7260 C.3       9 GLL5        0.0000 
     23 CA         48.3800  -10.0140   50.0380 C.3       6 GLP5        0.0000 
     24 CA         50.3230  -10.1545   51.9565 C.3       3 GLC5        0.0000 
     25 CA         50.0950  -10.7700   54.0740 C.3       9 GLL5        0.0000 
     26 CA         50.5510   -9.5390   49.8390 C.3       6 GLP5        0.0000 
     27 CA         48.6735   -9.9160   52.1645 C.3       3 GLC5        0.0000 
     28 CA         48.9670   -9.8180   54.2910 C.3       9 GLL5        0.0000 
     29 N          48.9605   -9.8100   56.5125 N.am      2 SEC2        0.0000 
     30 N          48.4540  -10.2190   55.5220 N.am      8 SEL2        0.0000 
     31 N          49.4670   -9.4010   57.5030 N.am      5 SEP2        0.0000 
     32 O          48.3495   -8.9045   56.5930 O.2       1 ALC1        0.0000 
     33 O          48.4540  -10.2190   55.5220 O.2       7 ALL1        0.0000 
     34 O          48.2450   -7.5900   57.6640 O.2       4 ALP1        0.0000 
     35 N          49.2125   -8.5315   56.4110 N.am      2 SEC2        0.0000 
     36 N          48.9580   -7.6620   55.3190 N.am      8 SEL2        0.0000 
     37 CA         51.9330   -9.6205   56.1710 C.3       3 GLC5        0.0000 
     38 CA         51.0260   -8.7220   54.6550 C.3       9 GLL5        0.0000 
     39 CA         52.8400  -10.5190   57.6870 C.3       6 GLP5        0.0000 
     40 N          53.8955   -5.1955   52.1155 N.am      2 SEC2        0.0000 
     41 N          53.0370   -6.2160   52.9020 N.am      8 SEL2        0.0000 
     42 N          54.7540   -4.1750   51.3290 N.am      5 SEP2        0.0000 
     43 CA         54.1775   -3.7815   56.1450 C.3       3 GLC5        0.0000 
     44 CA         54.3870   -5.1460   54.7020 C.3       9 GLL5        0.0000 
     45 CA         53.9680   -2.4170   57.5880 C.3       6 GLP5        0.0000 
     46 CA         56.2500   -5.2890   55.6950 C.3       3 GLC5        0.0000 
     47 CA         58.1130   -5.4320   56.6880 C.3       6 GLP5        0.0000 
     48 O          55.7385   -3.3100   54.6375 O.2       1 ALC1        0.0000 
     49 O          55.0180   -4.2790   53.8970 O.2       7 ALL1        0.0000 
     50 O          56.4590   -2.3410   55.3780 O.2       4 ALP1        0.0000 
     51 O          55.2490   -2.5680   53.9970 O.2       1 ALC1        0.0000 
     52 O          55.4800   -0.8570   54.0970 O.2       4 ALP1        0.0000 
     53 O          54.8860   -4.2270   52.6130 O.2       1 ALC1        0.0000 
     54 O          54.7540   -4.1750   51.3290 O.2       4 ALP1        0.0000 
     55 N          55.4960   -4.7750   57.0370 N.am      2 SEC2        0.0000 
     56 N          54.6390   -5.1700   56.0540 N.am      8 SEL2        0.0000 
     57 N          56.3530   -4.3800   58.0200 N.am      5 SEP2        0.0000 
     58 CA         52.2805   -5.8185   57.2160 C.3       3 GLC5        0.0000 
     59 CA         53.9600   -6.0640   56.8650 C.3       9 GLL5        0.0000 
     60 CA         50.6010   -5.5730   57.5670 C.3       6 GLP5        0.0000 
     61 CA         54.1395   -4.6595   57.8260 C.3       3 GLC5        0.0000 
     62 CA         54.3190   -3.2550   58.7870 C.3       6 GLP5        0.0000 
     63 CA         56.0365   -5.7480   56.7765 C.3       3 GLC5        0.0000 
     64 CA         52.8165   -8.7220   56.3385 C.3       3 GLC5        0.0000 
     65 CA         52.7930   -6.9250   54.9900 C.3       9 GLL5        0.0000 
     66 CA         51.6970   -6.2490   56.2785 C.3       3 GLC5        0.0000 
     67 CA         54.2750   -8.4300   54.9725 C.3       3 GLC5        0.0000 
     68 CA         55.7570   -9.9350   54.9550 C.3       6 GLP5        0.0000 
     69 CA         48.9222  -15.2198   51.8810 C.3       3 GLC5        0.0000 
     70 CA         50.4525   -7.0728   56.0255 C.3       3 GLC5        0.0000 
     71 CA         49.5820   -8.4230   54.3130 C.3       9 GLL5        0.0000 
     72 CA         52.3435   -4.9112   55.6813 C.3       3 GLC5        0.0000 
     73 CA         53.4630   -6.0330   54.1710 C.3       9 GLL5        0.0000 
     74 CA         50.7620   -4.2330   56.9260 C.3       6 GLP5        0.0000 
     75 CA         55.0330   -7.0808   53.6628 C.3       3 GLC5        0.0000 
     76 CA         56.1410   -8.5720   52.8890 C.3       6 GLP5        0.0000 
@<TRIPOS>BOND
@<TRIPOS>SUBSTRUCTURE
     1 ALC1        1 GROUP        1 X    ALC  0     ROOT ALC X 1
     2 SEC2        4 GROUP        1 X    SEC  0     **** SEC X 2
     3 GLC5        7 GROUP        1 X    GLC  0     **** GLC X 6
     4 ALP1        3 GROUP        1 Y    ALP  0     ROOT ALP Y 8
     5 SEP2        6 GROUP        1 Y    SEP  0     **** SEP Y 9
     6 GLP5        9 GROUP        1 Y    GLP  0     **** GLP Y 13
     7 ALL1        2 GROUP        1 Z    ALL  0     ROOT ALL Z 15
     8 SEL2        5 GROUP        1 Z    SEL  0     **** SEL Z 16
     9 GLL5        8 GROUP        1 Z    GLL  0     **** GLL Z 20
@<TRIPOS>SET

