#    Name: 3p2k_SAM_3_ligand
#    Modification time : Tue Mar 25 05:51:22 2014

@<TRIPOS>MOLECULE
3p2k_SAM_3_ligand
   50    52     1     0     0
SMALL
NO_CHARGES


@<TRIPOS>ATOM
      1 N          51.6360  -15.4720   56.1980 N.4       1 SAM6735     0.0000 
      2 CA         50.1710  -15.4620   55.9240 C.3       1 SAM6735     0.0000 
      3 C          49.5720  -16.8330   55.6980 C.2       1 SAM6735     0.0000 
      4 O          50.3060  -17.7940   55.4470 O.co2     1 SAM6735     0.0000 
      5 OXT        48.3310  -16.9550   55.6980 O.co2     1 SAM6735     0.0000 
      6 CB         49.9490  -14.9060   54.5400 C.3       1 SAM6735     0.0000 
      7 CG         49.9030  -13.4020   54.4500 C.3       1 SAM6735     0.0000 
      8 SD         49.0270  -12.9570   52.9410 S.3       1 SAM6735     0.0000 
      9 CE         49.9180  -13.7940   51.6010 C.3       1 SAM6735     0.0000 
     10 C5'        49.7820  -11.3540   52.7260 C.3       1 SAM6735     0.0000 
     11 C4'        50.0950  -10.7700   54.0740 C.3       1 SAM6735     0.0000 
     12 O4'        51.2750   -9.9760   54.0270 O.3       1 SAM6735     0.0000 
     13 C3'        48.9670   -9.8180   54.2910 C.3       1 SAM6735     0.0000 
     14 O3'        48.4540  -10.2190   55.5220 O.3       1 SAM6735     0.0000 
     15 C2'        49.5820   -8.4230   54.3130 C.3       1 SAM6735     0.0000 
     16 O2'        48.9580   -7.6620   55.3190 O.3       1 SAM6735     0.0000 
     17 C1'        51.0260   -8.7220   54.6550 C.3       1 SAM6735     0.0000 
     18 N9         51.9380   -7.6520   54.2000 N.pl3     1 SAM6735     0.0000 
     19 C8         52.1020   -7.2090   52.9080 C.2       1 SAM6735     0.0000 
     20 N7         53.0370   -6.2160   52.9020 N.2       1 SAM6735     0.0000 
     21 C5         53.4630   -6.0330   54.1710 C.ar      1 SAM6735     0.0000 
     22 C6         54.3870   -5.1460   54.7020 C.ar      1 SAM6735     0.0000 
     23 N6         55.0180   -4.2790   53.8970 N.pl3     1 SAM6735     0.0000 
     24 N1         54.6390   -5.1700   56.0540 N.ar      1 SAM6735     0.0000 
     25 C2         53.9600   -6.0640   56.8650 C.ar      1 SAM6735     0.0000 
     26 N3         53.0330   -6.9360   56.3190 N.ar      1 SAM6735     0.0000 
     27 C4         52.7930   -6.9250   54.9900 C.ar      1 SAM6735     0.0000 
     28 H          49.6089  -14.9263   56.5993 H         1 SAM6735     0.0000 
     29 H          48.9999  -15.3205   54.1335 H         1 SAM6735     0.0000 
     30 H          50.7514  -15.2829   53.8677 H         1 SAM6735     0.0000 
     31 H          50.8474  -12.9485   54.3082 H         1 SAM6735     0.0000 
     32 H          49.3158  -12.9420   55.1992 H         1 SAM6735     0.0000 
     33 H          49.0416  -10.8166   52.1838 H         1 SAM6735     0.0000 
     34 H          50.6420  -11.5761   52.1413 H         1 SAM6735     0.0000 
     35 H          50.0882  -11.4984   54.8044 H         1 SAM6735     0.0000 
     36 H          48.2918   -9.9080   53.4934 H         1 SAM6735     0.0000 
     37 H          49.5284   -8.0230   53.3483 H         1 SAM6735     0.0000 
     38 H          51.0784   -8.8318   55.7332 H         1 SAM6735     0.0000 
     39 H          51.6330   -7.5470   52.1423 H         1 SAM6735     0.0000 
     40 H          55.1579   -4.5770   52.9528 H         1 SAM6735     0.0000 
     41 H          55.2921   -3.4119   54.3129 H         1 SAM6735     0.0000 
     42 H          54.1455   -6.0804   57.8800 H         1 SAM6735     0.0000 
     43 H          51.8304  -15.5474   57.1760 H         1 SAM6735     0.0000 
     44 H          52.0927  -16.2396   55.7483 H         1 SAM6735     0.0000 
     45 H          52.0800  -14.6364   55.8745 H         1 SAM6735     0.0000 
     46 H          50.8729  -13.5013   51.5504 H         1 SAM6735     0.0000 
     47 H          49.9217  -14.7868   51.7209 H         1 SAM6735     0.0000 
     48 H          49.5067  -13.6081   50.7087 H         1 SAM6735     0.0000 
     49 H          47.7604   -9.5351   55.7483 H         1 SAM6735     0.0000 
     50 H          49.6704   -7.0476   55.6580 H         1 SAM6735     0.0000 
@<TRIPOS>BOND
     1    2    1 1    
     2   43    1 1    
     3   44    1 1    
     4   45    1 1    
     5    3    2 1    
     6    6    2 1    
     7   28    2 1    
     8    4    3 ar   
     9    5    3 ar   
    10    7    6 1    
    11   29    6 1    
    12   30    6 1    
    13    8    7 1    
    14   31    7 1    
    15   32    7 1    
    16    9    8 1    
    17   10    8 1    
    18   46    9 1    
    19   47    9 1    
    20   48    9 1    
    21   11   10 1    
    22   33   10 1    
    23   34   10 1    
    24   12   11 1    
    25   13   11 1    
    26   35   11 1    
    27   17   12 1    
    28   14   13 1    
    29   15   13 1    
    30   36   13 1    
    31   49   14 1    
    32   16   15 1    
    33   17   15 1    
    34   37   15 1    
    35   50   16 1    
    36   18   17 1    
    37   38   17 1    
    38   19   18 1    
    39   27   18 1    
    40   20   19 2    
    41   39   19 1    
    42   21   20 1    
    43   22   21 ar   
    44   27   21 ar   
    45   23   22 1    
    46   24   22 ar   
    47   40   23 1    
    48   41   23 1    
    49   25   24 ar   
    50   26   25 ar   
    51   42   25 1    
    52   27   26 ar   
@<TRIPOS>SUBSTRUCTURE
     1 SAM6735     1 GROUP   
@<TRIPOS>SET

