#    Name: 3qwi_CUE_3_INTS_M
#    Modification time : Tue Mar 25 10:19:19 2014

@<TRIPOS>MOLECULE
3qwi_CUE_3_INTS_M
   39     0     9     0     0
SMALL
NO_CHARGES


@<TRIPOS>ATOM
      1 N          11.7035   -4.6785    4.8645 N.am      2 SEC2        0.0000 
      2 N          13.0970   -5.4880    4.3580 N.am      8 SEL2        0.0000 
      3 N          10.3100   -3.8690    5.3710 N.am      5 SEP2        0.0000 
      4 N          13.2445   -4.2750    3.1425 N.am      2 SEC2        0.0000 
      5 N          13.3920   -3.0620    1.9270 N.am      5 SEP2        0.0000 
      6 O          14.2585  -12.1550    0.6390 O.2       1 ALC1        0.0000 
      7 O          14.4240  -11.9490    2.2930 O.2       7 ALL1        0.0000 
      8 O          14.0930  -12.3610   -1.0150 O.2       4 ALP1        0.0000 
      9 CA         20.0628   -2.9785    2.7865 C.3       3 GLC5        0.0000 
     10 CA         19.0400   -4.0260    3.7090 C.3       9 GLL5        0.0000 
     11 CA         21.4330   -2.4640    1.5710 C.3       6 GLP5        0.0000 
     12 CA         20.4087   -3.3735    5.2745 C.3       3 GLC5        0.0000 
     13 CA         22.1250   -3.2540    6.5470 C.3       6 GLP5        0.0000 
     14 CA         20.1487   -6.0483    3.6418 C.3       3 GLC5        0.0000 
     15 CA         21.5880   -7.4720    3.7160 C.3       6 GLP5        0.0000 
     16 CA         14.4770   -9.9995    0.9355 C.3       3 GLC5        0.0000 
     17 CA         14.4950  -10.6400    2.6710 C.3       9 GLL5        0.0000 
     18 CA         15.0310   -9.6910   -1.0310 C.3       6 GLP5        0.0000 
     19 CA         12.0028   -9.3635    1.9148 C.3       3 GLC5        0.0000 
     20 CA         13.3510   -9.9760    3.1330 C.3       9 GLL5        0.0000 
     21 CA         10.6210   -9.4240    0.5010 C.3       6 GLP5        0.0000 
     22 CA         15.6648   -3.4995    2.8708 C.3       3 GLC5        0.0000 
     23 CA         16.3230   -4.2700    4.3230 C.3       9 GLL5        0.0000 
     24 CA         14.6760   -3.3250    1.2780 C.3       6 GLP5        0.0000 
     25 CA         16.5830   -9.0120    4.5045 C.3       3 GLC5        0.0000 
     26 CA         15.7660   -8.6170    2.9830 C.3       9 GLL5        0.0000 
     27 CA         17.4290   -8.7380    6.2190 C.3       6 GLP5        0.0000 
     28 CA         16.7358  -11.3622    3.2395 C.3       3 GLC5        0.0000 
     29 CA         15.7080   -9.9550    2.5970 C.3       9 GLL5        0.0000 
     30 CA         18.3700  -12.4270    3.8450 C.3       6 GLP5        0.0000 
     31 CA         17.0585   -7.3340    4.9073 C.3       3 GLC5        0.0000 
     32 CA         17.0170   -5.3320    3.7190 C.3       9 GLL5        0.0000 
     33 CA         16.1240   -8.0132    4.9123 C.3       3 GLC5        0.0000 
     34 CA         15.0070   -6.6330    3.7630 C.3       9 GLL5        0.0000 
     35 CA         15.5910   -8.5875    1.1890 C.3       3 GLC5        0.0000 
     36 CA         14.6310   -7.9440    3.4480 C.3       9 GLL5        0.0000 
     37 CA         15.9980   -8.5600   -0.7410 C.3       6 GLP5        0.0000 
     38 CA         15.2617   -4.8033    2.4786 C.3       3 GLC5        0.0000 
     39 CA         16.3590   -6.5280    3.4720 C.3       9 GLL5        0.0000 
@<TRIPOS>BOND
@<TRIPOS>SUBSTRUCTURE
     1 ALC1        6 GROUP        1 X    ALC  0     ROOT ALC X 1
     2 SEC2        1 GROUP        1 X    SEC  0     **** SEC X 2
     3 GLC5        9 GROUP        1 X    GLC  0     **** GLC X 6
     4 ALP1        8 GROUP        1 Y    ALP  0     ROOT ALP Y 8
     5 SEP2        3 GROUP        1 Y    SEP  0     **** SEP Y 9
     6 GLP5       11 GROUP        1 Y    GLP  0     **** GLP Y 13
     7 ALL1        7 GROUP        1 Z    ALL  0     ROOT ALL Z 15
     8 SEL2        2 GROUP        1 Z    SEL  0     **** SEL Z 16
     9 GLL5       10 GROUP        1 Z    GLL  0     **** GLL Z 20
@<TRIPOS>SET

