#    Name: 3qwi_CUE_3_ligand
#    Modification time : Tue Mar 25 10:19:19 2014

@<TRIPOS>MOLECULE
3qwi_CUE_3_ligand
   28    31     1     0     0
SMALL
NO_CHARGES


@<TRIPOS>ATOM
      1 OAA        13.0970   -5.4880    4.3580 O.2       1 CUE272      0.0000 
      2 OAB        18.9960   -1.7940    4.5650 O.3       1 CUE272      0.0000 
      3 OAC        14.4240  -11.9490    2.2930 O.3       1 CUE272      0.0000 
      4 CAD        19.0400   -4.0260    3.7090 C.ar      1 CUE272      0.0000 
      5 CAE        13.3510   -9.9760    3.1330 C.ar      1 CUE272      0.0000 
      6 CAF        18.3790   -5.2230    3.4260 C.ar      1 CUE272      0.0000 
      7 CAG        13.4180   -8.6300    3.5240 C.ar      1 CUE272      0.0000 
      8 CAH        16.9840   -3.0780    4.6040 C.ar      1 CUE272      0.0000 
      9 CAI        15.7080   -9.9550    2.5970 C.ar      1 CUE272      0.0000 
     10 OAJ        14.9950   -4.3610    4.6400 O.3       1 CUE272      0.0000 
     11 OAK        16.8050   -7.7380    3.0080 O.3       1 CUE272      0.0000 
     12 CAL        18.3450   -2.9600    4.2950 C.ar      1 CUE272      0.0000 
     13 CAM        14.4950  -10.6400    2.6710 C.ar      1 CUE272      0.0000 
     14 CAN        14.3290   -5.5010    4.2580 C.2       1 CUE272      0.0000 
     15 CAO        16.3230   -4.2700    4.3230 C.ar      1 CUE272      0.0000 
     16 CAP        15.7660   -8.6170    2.9830 C.ar      1 CUE272      0.0000 
     17 CAQ        17.0170   -5.3320    3.7190 C.ar      1 CUE272      0.0000 
     18 CAR        14.6310   -7.9440    3.4480 C.ar      1 CUE272      0.0000 
     19 CAS        16.3590   -6.5280    3.4720 C.2       1 CUE272      0.0000 
     20 CAT        15.0070   -6.6330    3.7630 C.2       1 CUE272      0.0000 
     21 H          20.0374   -3.9248    3.4880 H         1 CUE272      0.0000 
     22 H          12.4555  -10.4778    3.1863 H         1 CUE272      0.0000 
     23 H          18.8825   -6.0067    3.0115 H         1 CUE272      0.0000 
     24 H          12.5766   -8.1550    3.8640 H         1 CUE272      0.0000 
     25 H          16.4856   -2.2953    5.0309 H         1 CUE272      0.0000 
     26 H          16.5493  -10.4322    2.2615 H         1 CUE272      0.0000 
     27 H          18.4639   -1.3634    5.2940 H         1 CUE272      0.0000 
     28 H          14.3304  -11.9261    1.2977 H         1 CUE272      0.0000 
@<TRIPOS>BOND
     1   14    1 2    
     2   12    2 1    
     3   27    2 1    
     4   13    3 1    
     5   28    3 1    
     6    6    4 ar   
     7   12    4 ar   
     8   21    4 1    
     9    7    5 ar   
    10   13    5 ar   
    11   22    5 1    
    12   17    6 ar   
    13   23    6 1    
    14   18    7 ar   
    15   24    7 1    
    16   12    8 ar   
    17   15    8 ar   
    18   25    8 1    
    19   13    9 ar   
    20   16    9 ar   
    21   26    9 1    
    22   14   10 1    
    23   15   10 1    
    24   16   11 1    
    25   19   11 1    
    26   20   14 1    
    27   17   15 ar   
    28   18   16 ar   
    29   19   17 1    
    30   20   18 1    
    31   20   19 2    
@<TRIPOS>SUBSTRUCTURE
     1 CUE272      1 GROUP   
@<TRIPOS>SET

