#    Name: 3ahe_THD_1_INTS_M
#    Modification time : Tue Mar 25 11:56:34 2014

@<TRIPOS>MOLECULE
3ahe_THD_1_INTS_M
   77     0    15     0     0
SMALL
NO_CHARGES


@<TRIPOS>ATOM
      1 CA         58.9375   49.9460    8.3830 C.3       5 GLC5        0.0000 
      2 CA         58.4340   48.2350    7.2040 C.3      15 GLL5        0.0000 
      3 CA         59.4410   51.6570    9.5620 C.3      10 GLP5        0.0000 
      4 CA         57.7155   50.5610    8.1105 C.3       5 GLC5        0.0000 
      5 CA         57.5010   49.1580    6.4560 C.3      15 GLL5        0.0000 
      6 CA         57.9300   51.9640    9.7650 C.3      10 GLP5        0.0000 
      7 N          57.8160   49.4530    9.2050 N.am      2 SEC2        0.0000 
      8 N          58.4500   48.2480    8.5520 N.am     12 SEL2        0.0000 
      9 N          57.1820   50.6580    9.8580 N.am      7 SEP2        0.0000 
     10 CA         59.6260   49.0650    9.9700 C.3       5 GLC5        0.0000 
     11 CA         59.3090   47.3520    9.2020 C.3      15 GLL5        0.0000 
     12 CA         59.9430   50.7780   10.7380 C.3      10 GLP5        0.0000 
     13 O          58.1830   47.6360   11.3740 O.2       1 ALC1        0.0000 
     14 O          59.2630   47.3280   10.5630 O.2      11 ALL1        0.0000 
     15 O          57.1030   47.9440   12.1850 O.2       6 ALP1        0.0000 
     16 CA         63.1855   44.5935    9.6135 C.3       5 GLC5        0.0000 
     17 CA         61.2090   45.3820    9.1470 C.3      15 GLL5        0.0000 
     18 CA         65.1620   43.8050   10.0800 C.3      10 GLP5        0.0000 
     19 CA         63.5100   44.9330   10.8425 C.3       5 GLC5        0.0000 
     20 CA         61.8580   46.0610   11.6050 C.3      15 GLL5        0.0000 
     21 CA         62.7620   47.7705   14.4175 C.3       5 GLC5        0.0000 
     22 CA         63.1660   47.1660   12.3200 C.3      15 GLL5        0.0000 
     23 CA         62.3580   48.3750   16.5150 C.3      10 GLP5        0.0000 
     24 CA         65.7410   46.5360   10.8035 C.3       5 GLC5        0.0000 
     25 CA         65.1800   48.2650   10.8890 C.3      15 GLL5        0.0000 
     26 CA         66.3020   44.8070   10.7180 C.3      10 GLP5        0.0000 
     27 N          65.8675   53.1650   10.3660 N.am      2 SEC2        0.0000 
     28 N          64.8900   52.4800   11.4900 N.am     12 SEL2        0.0000 
     29 N          66.8450   53.8500    9.2420 N.am      7 SEP2        0.0000 
     30 N          64.5135   53.0560   10.1785 N.am      2 SEC2        0.0000 
     31 N          64.1370   53.6320    8.8670 N.am      7 SEP2        0.0000 
     32 Zn         68.2095   52.6360   12.1115 Zn        4 ZIC7        0.0000 
     33 Zn         67.3900   52.3690   11.5000 Zn       14 ZIL7        0.0000 
     34 Zn         69.0290   52.9030   12.7230 Zn        9 ZIP7        0.0000 
     35 N          67.1175   53.1095   10.3710 N.am      2 SEC2        0.0000 
     36 N          67.3900   52.3690   11.5000 N.am     12 SEL2        0.0000 
     37 NZ         68.8750   50.0855   14.0410 N.4       3 LYC4        0.0000 
     38 NZ         68.3910   51.3280   14.0440 N.4      13 LYL4        0.0000 
     39 NZ         69.3590   48.8430   14.0380 N.4       8 LYP4        0.0000 
     40 Zn         68.7100   52.1155   13.3835 Zn        4 ZIC7        0.0000 
     41 Zn         68.3910   51.3280   14.0440 Zn       14 ZIL7        0.0000 
     42 N          69.1535   52.2595   15.0525 N.am      2 SEC2        0.0000 
     43 N          68.3910   51.3280   14.0440 N.am     12 SEL2        0.0000 
     44 N          69.9160   53.1910   16.0610 N.am      7 SEP2        0.0000 
     45 N          68.8750   50.0855   14.0410 N.am      2 SEC2        0.0000 
     46 N          69.3590   48.8430   14.0380 N.am      7 SEP2        0.0000 
     47 N          66.4440   52.8165   16.7695 N.am      2 SEC2        0.0000 
     48 N          66.8130   52.6470   15.5450 N.am     12 SEL2        0.0000 
     49 N          66.0750   52.9860   17.9940 N.am      7 SEP2        0.0000 
     50 N          68.3645   52.9190   15.8030 N.am      2 SEC2        0.0000 
     51 NZ         68.0495   49.4485   14.7015 N.4       3 LYC4        0.0000 
     52 NZ         66.7400   50.0540   15.3650 N.4      13 LYL4        0.0000 
     53 N          65.4205   49.7470   15.5305 N.am      2 SEC2        0.0000 
     54 N          66.7400   50.0540   15.3650 N.am     12 SEL2        0.0000 
     55 N          64.1010   49.4400   15.6960 N.am      7 SEP2        0.0000 
     56 N          68.0495   49.4485   14.7015 N.am      2 SEC2        0.0000 
     57 CA         60.8885   46.7695   15.6010 C.3       5 GLC5        0.0000 
     58 CA         60.4000   46.0020   13.9250 C.3      15 GLL5        0.0000 
     59 CA         61.3770   47.5370   17.2770 C.3      10 GLP5        0.0000 
     60 N          58.6220   46.7095   15.0605 N.am      2 SEC2        0.0000 
     61 N          59.1420   46.6920   13.7400 N.am     12 SEL2        0.0000 
     62 N          58.1020   46.7270   16.3810 N.am      7 SEP2        0.0000 
     63 O          59.3745   47.6630   13.8875 O.2       1 ALC1        0.0000 
     64 O          59.1420   46.6920   13.7400 O.2      11 ALL1        0.0000 
     65 O          59.6070   48.6340   14.0350 O.2       6 ALP1        0.0000 
     66 CA         56.0607   48.9138    7.4725 C.3       5 GLC5        0.0000 
     67 CA         54.1540   49.1310    8.1150 C.3      10 GLP5        0.0000 
     68 CA         64.9175   46.0575   11.1472 C.3       5 GLC5        0.0000 
     69 CA         64.2855   45.2755    9.5880 C.3       5 GLC5        0.0000 
     70 CA         63.1740   46.7590    9.8250 C.3      15 GLL5        0.0000 
     71 CA         63.1748   49.6625   10.8602 C.3       5 GLC5        0.0000 
     72 CA         61.3300   50.3640   10.5940 C.3      10 GLP5        0.0000 
     73 CA         66.6842   49.1175   10.0473 C.3       5 GLC5        0.0000 
     74 CA         64.8590   49.6570   11.3640 C.3      15 GLL5        0.0000 
     75 CA         68.3490   49.2740    8.9680 C.3      10 GLP5        0.0000 
     76 CA         62.1772   48.6115   10.8699 C.3       5 GLC5        0.0000 
     77 CA         63.9000   47.4500   10.8330 C.3      15 GLL5        0.0000 
@<TRIPOS>BOND
@<TRIPOS>SUBSTRUCTURE
     1 ALC1       13 GROUP        1 X    ALC  0     ROOT ALC X 1
     2 SEC2        7 GROUP        1 X    SEC  0     **** SEC X 2
     3 LYC4       37 GROUP        1 X    LYC  0     **** LYC X 4
     4 ZIC7       32 GROUP        1 X    ZIC  0     **** ZIC X 5
     5 GLC5        1 GROUP        1 X    GLC  0     **** GLC X 6
     6 ALP1       15 GROUP        1 Y    ALP  0     ROOT ALP Y 8
     7 SEP2        9 GROUP        1 Y    SEP  0     **** SEP Y 9
     8 LYP4       39 GROUP        1 Y    LYP  0     **** LYP Y 11
     9 ZIP7       34 GROUP        1 Y    ZIP  0     **** ZIP Y 12
    10 GLP5        3 GROUP        1 Y    GLP  0     **** GLP Y 13
    11 ALL1       14 GROUP        1 Z    ALL  0     ROOT ALL Z 15
    12 SEL2        8 GROUP        1 Z    SEL  0     **** SEL Z 16
    13 LYL4       38 GROUP        1 Z    LYL  0     **** LYL Z 18
    14 ZIL7       33 GROUP        1 Z    ZIL  0     **** ZIL Z 19
    15 GLL5        2 GROUP        1 Z    GLL  0     **** GLL Z 20
@<TRIPOS>SET

