#    Name: 3ahe_THD_1_ligand
#    Modification time : Tue Mar 25 11:56:34 2014

@<TRIPOS>MOLECULE
3ahe_THD_1_ligand
   49    50     1     0     0
SMALL
NO_CHARGES


@<TRIPOS>ATOM
      1 N1'        59.2780   47.4210    6.5280 N.ar      1 THD827      0.0000 
      2 C2'        58.4340   48.2350    7.2040 C.ar      1 THD827      0.0000 
      3 CM2        57.5010   49.1580    6.4560 C.3       1 THD827      0.0000 
      4 N3'        58.4500   48.2480    8.5520 N.ar      1 THD827      0.0000 
      5 C4'        59.3090   47.3520    9.2020 C.ar      1 THD827      0.0000 
      6 N4'        59.2630   47.3280   10.5630 N.pl3     1 THD827      0.0000 
      7 C5'        60.1950   46.4530    8.5040 C.ar      1 THD827      0.0000 
      8 C6'        60.1260   46.5530    7.1220 C.ar      1 THD827      0.0000 
      9 C7'        61.2090   45.3820    9.1470 C.3       1 THD827      0.0000 
     10 N3         62.0550   46.0260   10.2190 N.pl3     1 THD827      0.0000 
     11 C2         61.8580   46.0610   11.6050 C.2       1 THD827      0.0000 
     12 S1         63.1660   47.1660   12.3200 S.3       1 THD827      0.0000 
     13 C5         63.9000   47.4500   10.8330 C.2       1 THD827      0.0000 
     14 C4         63.1740   46.7590    9.8250 C.2       1 THD827      0.0000 
     15 CM4        63.6440   46.7330    8.3670 C.3       1 THD827      0.0000 
     16 C6         65.1800   48.2650   10.8890 C.3       1 THD827      0.0000 
     17 C7         64.8590   49.6570   11.3640 C.3       1 THD827      0.0000 
     18 O7         66.0970   50.3410   11.3380 O.3       1 THD827      0.0000 
     19 PA         66.1010   51.7780   11.9230 P.3       1 THD827      0.0000 
     20 O1A        64.8900   52.4800   11.4900 O.co2     1 THD827      0.0000 
     21 O2A        67.3900   52.3690   11.5000 O.co2     1 THD827      0.0000 
     22 O3A        65.8670   51.6700   13.4870 O.3       1 THD827      0.0000 
     23 PB         67.0420   51.4060   14.5940 P.3       1 THD827      0.0000 
     24 O1B        68.3910   51.3280   14.0440 O.co2     1 THD827      0.0000 
     25 O2B        66.8130   52.6470   15.5450 O.co2     1 THD827      0.0000 
     26 O3B        66.7400   50.0540   15.3650 O.co2     1 THD827      0.0000 
     27 C8         60.9740   45.2830   12.6470 C.2       1 THD827      0.0000 
     28 O9         60.1460   44.2990   12.0730 O.3       1 THD827      0.0000 
     29 C9         60.4000   46.0020   13.9250 C.3       1 THD827      0.0000 
     30 O10        59.1420   46.6920   13.7400 O.3       1 THD827      0.0000 
     31 H          60.1063   47.0568   11.0271 H         1 THD827      0.0000 
     32 H          58.3900   47.5837   10.9783 H         1 THD827      0.0000 
     33 H          60.7447   45.9419    6.5468 H         1 THD827      0.0000 
     34 H          61.8250   45.0051    8.3413 H         1 THD827      0.0000 
     35 H          60.6071   44.5818    9.5568 H         1 THD827      0.0000 
     36 H          65.6220   48.3070    9.8987 H         1 THD827      0.0000 
     37 H          65.8757   47.7933   11.5755 H         1 THD827      0.0000 
     38 H          64.4473   49.5934   12.3607 H         1 THD827      0.0000 
     39 H          64.1366   50.0922   10.6890 H         1 THD827      0.0000 
     40 H          61.1961   46.6977   14.2770 H         1 THD827      0.0000 
     41 H          60.3213   45.2204   14.7153 H         1 THD827      0.0000 
     42 H          58.0009   49.8012    5.8760 H         1 THD827      0.0000 
     43 H          56.8758   48.6522    5.8616 H         1 THD827      0.0000 
     44 H          56.9381   49.7014    7.0787 H         1 THD827      0.0000 
     45 H          64.4556   47.3005    8.2282 H         1 THD827      0.0000 
     46 H          63.8788   45.8078    8.0689 H         1 THD827      0.0000 
     47 H          62.9394   47.0718    7.7435 H         1 THD827      0.0000 
     48 H          60.7468   43.7758   11.4686 H         1 THD827      0.0000 
     49 H          59.3616   47.6622   13.8423 H         1 THD827      0.0000 
@<TRIPOS>BOND
     1    2    1 ar   
     2    8    1 ar   
     3    3    2 1    
     4    4    2 ar   
     5   42    3 1    
     6   43    3 1    
     7   44    3 1    
     8    5    4 ar   
     9    6    5 1    
    10    7    5 ar   
    11   31    6 1    
    12   32    6 1    
    13    8    7 ar   
    14    9    7 1    
    15   33    8 1    
    16   10    9 1    
    17   34    9 1    
    18   35    9 1    
    19   11   10 1    
    20   14   10 1    
    21   12   11 1    
    22   27   11 2    
    23   13   12 1    
    24   14   13 2    
    25   16   13 1    
    26   15   14 1    
    27   45   15 1    
    28   46   15 1    
    29   47   15 1    
    30   17   16 1    
    31   36   16 1    
    32   37   16 1    
    33   18   17 1    
    34   38   17 1    
    35   39   17 1    
    36   19   18 1    
    37   20   19 ar   
    38   21   19 ar   
    39   22   19 1    
    40   23   22 1    
    41   24   23 ar   
    42   25   23 ar   
    43   26   23 ar   
    44   28   27 1    
    45   29   27 1    
    46   48   28 1    
    47   30   29 1    
    48   40   29 1    
    49   41   29 1    
    50   49   30 1    
@<TRIPOS>SUBSTRUCTURE
     1 THD827      1 GROUP   
@<TRIPOS>SET

