#    Name: 2i51_FMN_1_INTS_M
#    Modification time : Tue Mar 25 17:27:53 2014

@<TRIPOS>MOLECULE
2i51_FMN_1_INTS_M
   76     0    12     0     0
SMALL
NO_CHARGES


@<TRIPOS>ATOM
      1 N          38.8780   62.2820    4.5560 N.am      2 SEC2        0.0000 
      2 N          39.0890   61.5270    5.6070 N.am     10 SEL2        0.0000 
      3 N          38.6670   63.0370    3.5050 N.am      6 SEP2        0.0000 
      4 N          38.6040   63.1185    5.6685 N.am      2 SEC2        0.0000 
      5 N          38.1190   64.7100    5.7300 N.am      6 SEP2        0.0000 
      6 O          40.9450   59.9800    4.6260 O.2       1 ALC1        0.0000 
      7 O          40.6390   59.9510    6.0220 O.2       9 ALL1        0.0000 
      8 O          41.2510   60.0090    3.2300 O.2       5 ALP1        0.0000 
      9 N          43.6595   58.4740    7.2915 N.am      2 SEC2        0.0000 
     10 N          42.3400   58.4490    6.4930 N.am     10 SEL2        0.0000 
     11 N          44.9790   58.4990    8.0900 N.am      6 SEP2        0.0000 
     12 N          43.3255   58.4420    8.6155 N.am      2 SEC2        0.0000 
     13 N          41.6720   58.3850    9.1410 N.am     10 SEL2        0.0000 
     14 CA         42.8950   59.7085    9.5995 C.3       4 GLC5        0.0000 
     15 CA         41.4690   58.6470   10.5220 C.3      12 GLL5        0.0000 
     16 CA         44.3210   60.7700    8.6770 C.3       8 GLP5        0.0000 
     17 CA         44.5785   56.8800   14.0550 C.3       4 GLC5        0.0000 
     18 CA         42.9980   57.4920   13.8000 C.3      12 GLL5        0.0000 
     19 CA         46.1590   56.2680   14.3100 C.3       8 GLP5        0.0000 
     20 CA         42.9430   57.7155   15.6225 C.3       4 GLC5        0.0000 
     21 CA         42.8880   57.9390   17.4450 C.3       8 GLP5        0.0000 
     22 CA         41.9440   58.6935   16.0755 C.3       4 GLC5        0.0000 
     23 CA         41.0000   59.4480   14.7060 C.3      12 GLL5        0.0000 
     24 CA         40.5040   60.7980   15.9295 C.3       4 GLC5        0.0000 
     25 CA         40.0080   62.1480   17.1530 C.3       8 GLP5        0.0000 
     26 CA         38.8870   59.8535   14.3505 C.3       4 GLC5        0.0000 
     27 CA         36.7740   60.2590   13.9950 C.3       8 GLP5        0.0000 
     28 CA         38.5375   59.9980   13.1465 C.3       4 GLC5        0.0000 
     29 CA         40.3010   59.7370   12.2980 C.3      12 GLL5        0.0000 
     30 CA         37.6620   60.6600   12.1950 C.3       4 GLC5        0.0000 
     31 CA         38.5500   61.0610   10.3950 C.3      12 GLL5        0.0000 
     32 N          39.6925   63.1545   12.9590 N.am      2 SEC2        0.0000 
     33 N          39.9370   62.7440   11.5220 N.am     10 SEL2        0.0000 
     34 N          39.4480   63.5650   14.3960 N.am      6 SEP2        0.0000 
     35 O          41.1245   62.3600   10.9065 O.2       1 ALC1        0.0000 
     36 O          39.9370   62.7440   11.5220 O.2       9 ALL1        0.0000 
     37 O          42.3120   61.9760   10.2910 O.2       5 ALP1        0.0000 
     38 N          38.0105   63.9745    6.8520 N.am      2 SEC2        0.0000 
     39 N          37.9020   63.2390    7.9740 N.am     10 SEL2        0.0000 
     40 N          37.4675   66.7030   10.2250 N.am      2 SEC2        0.0000 
     41 N          37.2080   65.7910    8.8840 N.am     10 SEL2        0.0000 
     42 N          37.7270   67.6150   11.5660 N.am      6 SEP2        0.0000 
     43 NZ         37.4215   65.8170    6.2040 N.4       3 LYC4        0.0000 
     44 NZ         36.7240   66.9240    6.6780 N.4      11 LYL4        0.0000 
     45 NZ         38.1190   64.7100    5.7300 N.4       7 LYP4        0.0000 
     46 N          36.7670   67.9440    5.6700 N.am      2 SEC2        0.0000 
     47 N          36.7240   66.9240    6.6780 N.am     10 SEL2        0.0000 
     48 N          36.8100   68.9640    4.6620 N.am      6 SEP2        0.0000 
     49 N          37.4215   65.8170    6.2040 N.am      2 SEC2        0.0000 
     50 NZ         38.8530   69.0055    8.1835 N.4       3 LYC4        0.0000 
     51 NZ         37.7810   68.1730    8.5750 N.4      11 LYL4        0.0000 
     52 NZ         40.9420   69.0550    8.0220 N.4       7 LYP4        0.0000 
     53 NZ         37.7540   67.8940   10.0705 N.4       3 LYC4        0.0000 
     54 NZ         38.3950   68.6120   12.0680 N.4       7 LYP4        0.0000 
     55 N          39.2480   68.0140    8.5635 N.am      2 SEC2        0.0000 
     56 N          37.7810   68.1730    8.5750 N.am     10 SEL2        0.0000 
     57 N          40.7150   67.8550    8.5520 N.am      6 SEP2        0.0000 
     58 N          38.8530   69.0055    8.1835 N.am      2 SEC2        0.0000 
     59 N          39.9250   69.8380    7.7920 N.am      6 SEP2        0.0000 
     60 N          37.7540   67.8940   10.0705 N.am      2 SEC2        0.0000 
     61 N          38.1830   68.9405    9.9755 N.am      2 SEC2        0.0000 
     62 N          38.5850   69.7080   11.3760 N.am      6 SEP2        0.0000 
     63 CA         42.9855   57.0498    9.9285 C.3       4 GLC5        0.0000 
     64 CA         44.1420   55.8140    8.8720 C.3       8 GLP5        0.0000 
     65 CA         41.1625   56.7027   14.1632 C.3       4 GLC5        0.0000 
     66 CA         42.0220   58.1070   12.8310 C.3      12 GLL5        0.0000 
     67 CA         39.8150   55.6060   15.0110 C.3       8 GLP5        0.0000 
     68 CA         43.6624   59.1899   12.9104 C.3       4 GLC5        0.0000 
     69 CA         44.7730   60.6260   12.8510 C.3       8 GLP5        0.0000 
     70 CA         40.4192   57.4195   14.4905 C.3       4 GLC5        0.0000 
     71 CA         41.0470   59.0180   13.2340 C.3      12 GLL5        0.0000 
     72 CA         42.2601   60.6680   13.0850 C.3       4 GLC5        0.0000 
     73 CA         43.8580   61.8510   13.0360 C.3       8 GLP5        0.0000 
     74 CA         39.8193   64.3460   10.0390 C.3       4 GLC5        0.0000 
     75 CA         39.0200   62.5210   10.4210 C.3      12 GLL5        0.0000 
     76 CA         41.1960   65.6610    9.6400 C.3       8 GLP5        0.0000 
@<TRIPOS>BOND
@<TRIPOS>SUBSTRUCTURE
     1 ALC1        6 GROUP        1 X    ALC  0     ROOT ALC X 1
     2 SEC2        1 GROUP        1 X    SEC  0     **** SEC X 2
     3 LYC4       43 GROUP        1 X    LYC  0     **** LYC X 4
     4 GLC5       14 GROUP        1 X    GLC  0     **** GLC X 6
     5 ALP1        8 GROUP        1 Y    ALP  0     ROOT ALP Y 8
     6 SEP2        3 GROUP        1 Y    SEP  0     **** SEP Y 9
     7 LYP4       45 GROUP        1 Y    LYP  0     **** LYP Y 11
     8 GLP5       16 GROUP        1 Y    GLP  0     **** GLP Y 13
     9 ALL1        7 GROUP        1 Z    ALL  0     ROOT ALL Z 15
    10 SEL2        2 GROUP        1 Z    SEL  0     **** SEL Z 16
    11 LYL4       44 GROUP        1 Z    LYL  0     **** LYL Z 18
    12 GLL5       15 GROUP        1 Z    GLL  0     **** GLL Z 20
@<TRIPOS>SET

