#    Name: 2i51_FMN_1_ligand
#    Modification time : Tue Mar 25 17:27:53 2014

@<TRIPOS>MOLECULE
2i51_FMN_1_ligand
   50    52     1     0     0
SMALL
NO_CHARGES


@<TRIPOS>ATOM
      1 N1         39.3510   60.8870    7.7560 N.2       1 FMN300      0.0000 
      2 C2         39.6460   60.8120    6.4460 C.2       1 FMN300      0.0000 
      3 O2         39.0890   61.5270    5.6070 O.2       1 FMN300      0.0000 
      4 N3         40.6390   59.9510    6.0220 N.am      1 FMN300      0.0000 
      5 C4         41.3230   59.1380    6.8760 C.2       1 FMN300      0.0000 
      6 O4         42.3400   58.4490    6.4930 O.2       1 FMN300      0.0000 
      7 C4A        41.0290   59.2050    8.2290 C.2       1 FMN300      0.0000 
      8 N5         41.6720   58.3850    9.1410 N.2       1 FMN300      0.0000 
      9 C5A        41.4690   58.6470   10.5220 C.ar      1 FMN300      0.0000 
     10 C6         42.1890   57.9240   11.4480 C.ar      1 FMN300      0.0000 
     11 C7         42.0220   58.1070   12.8310 C.ar      1 FMN300      0.0000 
     12 C7M        42.9980   57.4920   13.8000 C.3       1 FMN300      0.0000 
     13 C8         41.0470   59.0180   13.2340 C.ar      1 FMN300      0.0000 
     14 C8M        41.0000   59.4480   14.7060 C.3       1 FMN300      0.0000 
     15 C9         40.3010   59.7370   12.2980 C.ar      1 FMN300      0.0000 
     16 C9A        40.4800   59.5220   10.9390 C.ar      1 FMN300      0.0000 
     17 N10        39.7430   60.2000    9.9950 N.pl3     1 FMN300      0.0000 
     18 C10        40.0340   60.1040    8.6690 C.2       1 FMN300      0.0000 
     19 C1'        38.5500   61.0610   10.3950 C.3       1 FMN300      0.0000 
     20 C2'        39.0200   62.5210   10.4210 C.3       1 FMN300      0.0000 
     21 O2'        39.9370   62.7440   11.5220 O.3       1 FMN300      0.0000 
     22 C3'        37.8650   63.5410   10.4550 C.3       1 FMN300      0.0000 
     23 O3'        37.0230   63.1990   11.5380 O.3       1 FMN300      0.0000 
     24 C4'        37.0800   63.4070    9.1330 C.3       1 FMN300      0.0000 
     25 O4'        37.9020   63.2390    7.9740 O.3       1 FMN300      0.0000 
     26 C5'        36.2940   64.7030    8.9440 C.3       1 FMN300      0.0000 
     27 O5'        37.2080   65.7910    8.8840 O.3       1 FMN300      0.0000 
     28 P          36.8070   67.1230    8.1490 P.3       1 FMN300      0.0000 
     29 O1P        36.7240   66.9240    6.6780 O.co2     1 FMN300      0.0000 
     30 O2P        35.4140   67.5230    8.7300 O.co2     1 FMN300      0.0000 
     31 O3P        37.7810   68.1730    8.5750 O.co2     1 FMN300      0.0000 
     32 H          40.8719   59.9271    4.9951 H         1 FMN300      0.0000 
     33 H          42.8824   57.2160   11.1238 H         1 FMN300      0.0000 
     34 H          39.6123   60.4327   12.6233 H         1 FMN300      0.0000 
     35 H          38.2109   60.7785   11.3752 H         1 FMN300      0.0000 
     36 H          37.7646   60.9525    9.6692 H         1 FMN300      0.0000 
     37 H          39.5678   62.6964    9.4678 H         1 FMN300      0.0000 
     38 H          38.2686   64.5093   10.5222 H         1 FMN300      0.0000 
     39 H          36.3625   62.6147    9.2416 H         1 FMN300      0.0000 
     40 H          35.5994   64.7971    9.7832 H         1 FMN300      0.0000 
     41 H          35.7097   64.6075    8.0248 H         1 FMN300      0.0000 
     42 H          43.9290   57.8255   13.6514 H         1 FMN300      0.0000 
     43 H          42.7602   57.6998   14.7488 H         1 FMN300      0.0000 
     44 H          43.0266   56.4959   13.7164 H         1 FMN300      0.0000 
     45 H          41.8541   59.8811   14.9938 H         1 FMN300      0.0000 
     46 H          40.2658   60.1049   14.8778 H         1 FMN300      0.0000 
     47 H          40.8459   58.6702   15.3154 H         1 FMN300      0.0000 
     48 H          40.6756   62.0848   11.3810 H         1 FMN300      0.0000 
     49 H          36.9012   64.0495   12.0496 H         1 FMN300      0.0000 
     50 H          38.2936   62.3234    8.0651 H         1 FMN300      0.0000 
@<TRIPOS>BOND
     1    2    1 1    
     2   18    1 2    
     3    3    2 2    
     4    4    2 am   
     5    5    4 am   
     6   32    4 1    
     7    6    5 2    
     8    7    5 1    
     9    8    7 2    
    10   18    7 1    
    11    9    8 1    
    12   10    9 ar   
    13   16    9 ar   
    14   11   10 ar   
    15   33   10 1    
    16   12   11 1    
    17   13   11 ar   
    18   42   12 1    
    19   43   12 1    
    20   44   12 1    
    21   14   13 1    
    22   15   13 ar   
    23   45   14 1    
    24   46   14 1    
    25   47   14 1    
    26   16   15 ar   
    27   34   15 1    
    28   17   16 1    
    29   18   17 1    
    30   19   17 1    
    31   20   19 1    
    32   35   19 1    
    33   36   19 1    
    34   21   20 1    
    35   22   20 1    
    36   37   20 1    
    37   48   21 1    
    38   23   22 1    
    39   24   22 1    
    40   38   22 1    
    41   49   23 1    
    42   25   24 1    
    43   26   24 1    
    44   39   24 1    
    45   50   25 1    
    46   27   26 1    
    47   40   26 1    
    48   41   26 1    
    49   28   27 1    
    50   29   28 ar   
    51   30   28 ar   
    52   31   28 ar   
@<TRIPOS>SUBSTRUCTURE
     1 FMN300      1 GROUP   
@<TRIPOS>SET

