#    Name: 2JAE_2_CAVITY_N1_ALL.mol2
#    Modification time : Mon Mar 10 21:42:24 2014

@<TRIPOS>MOLECULE
2JAE_2_CAVITY_N1_ALL.mol2
   59     0     5     0     0
SMALL
NO_CHARGES


@<TRIPOS>ATOM
      1 CA         39.1517   59.3892  -19.7770 C.3       5 GLY6        0.0000 
      2 CA         37.7438   59.1201  -20.2193 C.3       5 GLY6        0.0000 
      3 NZ         37.5007   60.5951  -20.3426 N.2       3 LYS4        0.0000 
      4 CA         36.3360   58.8511  -20.6615 C.3       5 GLY6        0.0000 
      5 CA         36.0928   60.3261  -20.7848 C.3       5 GLY6        0.0000 
      6 CA         38.9379   57.9583  -18.2257 C.3       5 GLY6        0.0000 
      7 CA         38.6947   59.4333  -18.3490 C.3       5 GLY6        0.0000 
      8 O          38.4515   60.9083  -18.4723 O.2       2 ALA2        0.0000 
      9 CA         37.5300   57.6892  -18.6679 C.3       5 GLY6        0.0000 
     10 CA         37.2868   59.1642  -18.7912 C.3       5 GLY6        0.0000 
     11 NZ         37.0437   60.6392  -18.9146 N.2       3 LYS4        0.0000 
     12 CA         35.8790   58.8951  -19.2335 C.3       5 GLY6        0.0000 
     13 N          35.6358   60.3701  -19.3568 N.2       2 ALA2        0.0000 
     14 N          42.9550   60.6418  -12.2960 N.2       2 ALA2        0.0000 
     15 CA         42.7119   62.1168  -12.4193 C.3       5 GLY6        0.0000 
     16 CA         41.5472   60.3727  -12.7382 C.3       5 GLY6        0.0000 
     17 CZ         41.3040   61.8477  -12.8616 C.ar      4 PHE5        0.0000 
     18 O          40.1394   60.1036  -13.1805 O.2       2 ALA2        0.0000 
     19 CZ         39.8962   61.5787  -13.3038 C.ar      4 PHE5        0.0000 
     20 CA         38.7315   59.8346  -13.6227 C.3       5 GLY6        0.0000 
     21 N          38.4884   61.3096  -13.7461 N.2       2 ALA2        0.0000 
     22 CA         38.2452   62.7846  -13.8694 C.3       5 GLY6        0.0000 
     23 N          37.3237   59.5655  -14.0650 N.2       2 ALA2        0.0000 
     24 N          35.9158   59.2964  -14.5072 N.2       2 ALA2        0.0000 
     25 N          41.0902   60.4168  -11.3102 N.2       2 ALA2        0.0000 
     26 N          39.6824   60.1477  -11.7525 N.2       2 ALA2        0.0000 
     27 OG         39.4392   61.6227  -11.8758 O.2       1 SER1        0.0000 
     28 CA         38.2745   59.8786  -12.1947 C.3       5 GLY6        0.0000 
     29 N          38.0313   61.3536  -12.3181 N.2       2 ALA2        0.0000 
     30 N          37.7882   62.8287  -12.4414 N.2       2 ALA2        0.0000 
     31 CA         37.5450   64.3037  -12.5647 C.3       5 GLY6        0.0000 
     32 N          36.8667   59.6096  -12.6370 N.2       2 ALA2        0.0000 
     33 OG         37.8175   59.9227  -10.7667 O.2       1 SER1        0.0000 
     34 OG         37.5743   61.3977  -10.8901 O.2       1 SER1        0.0000 
     35 OG         37.3312   62.8727  -11.0134 O.2       1 SER1        0.0000 
     36 N          36.1665   61.1286  -11.3323 N.2       2 ALA2        0.0000 
     37 CA         41.0534   60.0155  -16.0365 C.3       5 GLY6        0.0000 
     38 N          40.8102   61.4905  -16.1598 N.2       2 ALA2        0.0000 
     39 N          39.8887   58.2714  -16.3554 N.2       2 ALA2        0.0000 
     40 CA         39.6455   59.7464  -16.4787 C.3       5 GLY6        0.0000 
     41 O          39.4024   61.2214  -16.6021 O.2       2 ALA2        0.0000 
     42 O          39.1592   62.6965  -16.7254 O.2       2 ALA2        0.0000 
     43 CA         38.4809   58.0023  -16.7977 C.3       5 GLY6        0.0000 
     44 CA         38.2377   59.4774  -16.9210 C.3       5 GLY6        0.0000 
     45 NZ         37.9945   60.9524  -17.0443 N.2       3 LYS4        0.0000 
     46 NZ         37.7513   62.4274  -17.1677 N.2       3 LYS4        0.0000 
     47 O          36.8298   59.2083  -17.3632 O.2       2 ALA2        0.0000 
     48 O          36.5867   60.6833  -17.4866 O.2       2 ALA2        0.0000 
     49 CA         43.1689   62.0727  -13.8473 C.3       5 GLY6        0.0000 
     50 CA         42.0042   60.3287  -14.1663 C.3       5 GLY6        0.0000 
     51 N          41.7610   61.8037  -14.2896 N.2       2 ALA2        0.0000 
     52 O          40.5964   60.0596  -14.6085 O.2       2 ALA2        0.0000 
     53 N          40.3532   61.5346  -14.7318 N.2       2 ALA2        0.0000 
     54 O          39.1885   59.7905  -15.0507 O.2       2 ALA2        0.0000 
     55 N          38.9454   61.2655  -15.1741 N.2       2 ALA2        0.0000 
     56 CZ         38.7022   62.7405  -15.2974 C.ar      4 PHE5        0.0000 
     57 CA         37.7807   59.5214  -15.4930 C.3       5 GLY6        0.0000 
     58 N          37.5375   60.9964  -15.6163 N.2       2 ALA2        0.0000 
     59 O          36.3728   59.2523  -15.9352 O.2       2 ALA2        0.0000 
@<TRIPOS>BOND
@<TRIPOS>SUBSTRUCTURE
     1 SER1       27 GROUP   
     2 ALA2        8 GROUP   
     3 LYS4        3 GROUP   
     4 PHE5       17 GROUP   
     5 GLY6        1 GROUP   
@<TRIPOS>SET

