#    Name: 2jae_FAD_2_INTS_M
#    Modification time : Tue Mar 25 19:48:57 2014

@<TRIPOS>MOLECULE
2jae_FAD_2_INTS_M
  148     0    12     0     0
SMALL
NO_CHARGES


@<TRIPOS>ATOM
      1 N          41.8705   58.2955  -20.9710 N.am      2 SEC2        0.0000 
      2 N          40.8400   58.7390  -21.8620 N.am     10 SEL2        0.0000 
      3 N          42.9010   57.8520  -20.0800 N.am      6 SEP2        0.0000 
      4 NZ         40.8895   61.8735  -22.0190 N.4       3 LYC4        0.0000 
      5 NZ         42.0670   60.8610  -22.6250 N.4      11 LYL4        0.0000 
      6 NZ         40.3490   62.8640  -20.2480 N.4       7 LYP4        0.0000 
      7 N          41.8130   61.5855  -21.4100 N.am      2 SEC2        0.0000 
      8 N          42.0670   60.8610  -22.6250 N.am     10 SEL2        0.0000 
      9 N          41.5590   62.3100  -20.1950 N.am      6 SEP2        0.0000 
     10 N          40.8895   61.8735  -22.0190 N.am      2 SEC2        0.0000 
     11 N          39.7120   62.8860  -21.4130 N.am      6 SEP2        0.0000 
     12 CA         42.9715   61.5670  -25.7085 C.3       4 GLC5        0.0000 
     13 CA         42.1830   59.6640  -25.3250 C.3      12 GLL5        0.0000 
     14 CA         43.7600   63.4700  -26.0920 C.3       8 GLP5        0.0000 
     15 CA         42.8230   58.0345  -27.8485 C.3       4 GLC5        0.0000 
     16 CA         43.1120   58.6770  -26.0110 C.3      12 GLL5        0.0000 
     17 CA         42.5340   57.3920  -29.6860 C.3       8 GLP5        0.0000 
     18 CA         41.7800   57.1130  -25.3455 C.3       4 GLC5        0.0000 
     19 CA         40.4480   55.5490  -24.6800 C.3       8 GLP5        0.0000 
     20 CA         43.9055   57.2720  -23.4855 C.3       4 GLC5        0.0000 
     21 CA         44.1730   58.1060  -25.0590 C.3      12 GLL5        0.0000 
     22 CA         43.6380   56.4380  -21.9120 C.3       8 GLP5        0.0000 
     23 N          44.7735   55.4330  -24.3690 N.am      2 SEC2        0.0000 
     24 N          44.1450   56.6860  -24.9860 N.am     10 SEL2        0.0000 
     25 N          45.4020   54.1800  -23.7520 N.am      6 SEP2        0.0000 
     26 O          44.4195   56.0885  -26.1785 O.2       1 ALC1        0.0000 
     27 O          44.1450   56.6860  -24.9860 O.2       9 ALL1        0.0000 
     28 O          44.6940   55.4910  -27.3710 O.2       5 ALP1        0.0000 
     29 CA         47.3055   59.3705  -25.3500 C.3       4 GLC5        0.0000 
     30 CA         45.4680   58.6560  -25.6400 C.3      12 GLL5        0.0000 
     31 CA         49.1430   60.0850  -25.0600 C.3       8 GLP5        0.0000 
     32 N          46.7095   58.0095  -24.0145 N.am      2 SEC2        0.0000 
     33 N          46.5990   57.8330  -25.4440 N.am     10 SEL2        0.0000 
     34 N          46.8200   58.1860  -22.5850 N.am      6 SEP2        0.0000 
     35 O          46.6240   56.5980  -25.9115 O.2       1 ALC1        0.0000 
     36 O          46.5990   57.8330  -25.4440 O.2       9 ALL1        0.0000 
     37 O          46.6490   55.3630  -26.3790 O.2       5 ALP1        0.0000 
     38 CA         43.8160   58.1110  -28.3965 C.3       4 GLC5        0.0000 
     39 CA         45.0980   58.8300  -27.1070 C.3      12 GLL5        0.0000 
     40 CA         49.4610   59.3410  -31.6515 C.3       4 GLC5        0.0000 
     41 CA         47.8760   60.5910  -30.6820 C.3      12 GLL5        0.0000 
     42 CA         51.0460   58.0910  -32.6210 C.3       8 GLP5        0.0000 
     43 CA         47.6295   60.4975  -32.7545 C.3       4 GLC5        0.0000 
     44 CA         47.3830   60.4040  -34.8270 C.3       8 GLP5        0.0000 
     45 CA         46.4090   61.4705  -31.3100 C.3       4 GLC5        0.0000 
     46 CA         44.9420   62.3500  -31.9380 C.3       8 GLP5        0.0000 
     47 O          49.2755   61.8285  -32.5900 O.2       1 ALC1        0.0000 
     48 O          48.6720   61.5660  -31.1270 O.2       9 ALL1        0.0000 
     49 O          49.8790   62.0910  -34.0530 O.2       5 ALP1        0.0000 
     50 N          48.5375   59.4090  -32.6880 N.am      2 SEC2        0.0000 
     51 N          47.6860   59.5060  -31.4900 N.am     10 SEL2        0.0000 
     52 N          49.3890   59.3120  -33.8860 N.am      6 SEP2        0.0000 
     53 CA         46.4670   56.4295  -30.6145 C.3       4 GLC5        0.0000 
     54 CA         46.8760   58.4500  -31.1230 C.3      12 GLL5        0.0000 
     55 CA         46.0580   54.4090  -30.1060 C.3       8 GLP5        0.0000 
     56 CA         48.2180   57.9645  -29.9815 C.3       4 GLC5        0.0000 
     57 CA         49.5600   57.4790  -28.8400 C.3       8 GLP5        0.0000 
     58 CA         48.9610   58.2705  -31.8720 C.3       4 GLC5        0.0000 
     59 CA         46.7365   58.7795  -32.9735 C.3       4 GLC5        0.0000 
     60 CA         46.5970   59.1090  -34.8240 C.3       8 GLP5        0.0000 
     61 CA         45.9090   60.4000  -31.5305 C.3       4 GLC5        0.0000 
     62 N          47.1275   57.0630  -29.6360 N.am      2 SEC2        0.0000 
     63 N          46.2850   58.4210  -29.8860 N.am     10 SEL2        0.0000 
     64 N          47.9700   55.7050  -29.3860 N.am      6 SEP2        0.0000 
     65 CA         44.4970   58.4435  -29.3885 C.3       4 GLC5        0.0000 
     66 CA         46.4600   59.4950  -29.0910 C.3      12 GLL5        0.0000 
     67 N          34.7810   58.7770  -15.9370 N.am      2 SEC2        0.0000 
     68 N          35.8720   58.7600  -14.6960 N.am     10 SEL2        0.0000 
     69 N          33.6900   58.7940  -17.1780 N.am      6 SEP2        0.0000 
     70 N          33.8400   58.1485  -15.8750 N.am      2 SEC2        0.0000 
     71 N          33.9900   57.5030  -14.5720 N.am     10 SEL2        0.0000 
     72 O          34.2990   57.1415  -11.7750 O.2       1 ALC1        0.0000 
     73 O          35.1000   57.8730  -12.6400 O.2       9 ALL1        0.0000 
     74 O          33.4980   56.4100  -10.9100 O.2       5 ALP1        0.0000 
     75 N          37.2640   56.9630  -10.9485 N.am      2 SEC2        0.0000 
     76 N          36.3260   58.1240  -10.7640 N.am     10 SEL2        0.0000 
     77 N          38.2020   55.8020  -11.1330 N.am      6 SEP2        0.0000 
     78 N          36.0365   56.7435  -10.2380 N.am      2 SEC2        0.0000 
     79 N          35.7470   55.3630   -9.7120 N.am      6 SEP2        0.0000 
     80 CA         43.3180   63.6715  -11.7290 C.3       4 GLC5        0.0000 
     81 CA         42.5790   61.7870  -12.0740 C.3      12 GLL5        0.0000 
     82 CA         44.0570   65.5560  -11.3840 C.3       8 GLP5        0.0000 
     83 CA         42.7480   60.4025  -10.4325 C.3       4 GLC5        0.0000 
     84 CA         42.9170   59.0180   -8.7910 C.3       8 GLP5        0.0000 
     85 CA         42.3080   62.2965  -10.2430 C.3       4 GLC5        0.0000 
     86 CA         42.0370   62.8060   -8.4120 C.3       8 GLP5        0.0000 
     87 CA         44.2540   61.8710  -12.8720 C.3       4 GLC5        0.0000 
     88 CA         45.9290   61.9550  -13.6700 C.3       8 GLP5        0.0000 
     89 CA         41.4045   63.3080  -12.3250 C.3       4 GLC5        0.0000 
     90 CA         40.2300   64.8290  -12.5760 C.3       8 GLP5        0.0000 
     91 CA         42.4555   61.8720  -17.0200 C.3       4 GLC5        0.0000 
     92 CA         42.5250   61.5640  -15.0430 C.3      12 GLL5        0.0000 
     93 CA         42.3860   62.1800  -18.9970 C.3       8 GLP5        0.0000 
     94 CA         44.1805   60.8230  -14.9610 C.3       4 GLC5        0.0000 
     95 CA         45.8360   60.0820  -14.8790 C.3       8 GLP5        0.0000 
     96 CA         42.9325   63.4060  -15.6150 C.3       4 GLC5        0.0000 
     97 CA         43.3400   65.2480  -16.1870 C.3       8 GLP5        0.0000 
     98 CA         41.1945   60.2340  -16.7230 C.3       4 GLC5        0.0000 
     99 CA         40.1840   60.7620  -14.8500 C.3      12 GLL5        0.0000 
    100 CA         42.2050   59.7060  -18.5960 C.3       8 GLP5        0.0000 
    101 CA         36.7370   62.1150  -16.0515 C.3       4 GLC5        0.0000 
    102 CA         37.5390   60.4100  -16.1350 C.3      12 GLL5        0.0000 
    103 CA         35.9350   63.8200  -15.9680 C.3       8 GLP5        0.0000 
    104 CA         35.5155   60.6595  -16.0835 C.3       4 GLC5        0.0000 
    105 CA         33.4920   60.9090  -16.0320 C.3       8 GLP5        0.0000 
    106 CA         38.4465   57.2860  -17.6090 C.3       4 GLC5        0.0000 
    107 CA         37.8420   59.3890  -17.2280 C.3      12 GLL5        0.0000 
    108 CA         39.0510   55.1830  -17.9900 C.3       8 GLP5        0.0000 
    109 CA         36.5175   57.7795  -17.2990 C.3       4 GLC5        0.0000 
    110 CA         35.1930   56.1700  -17.3700 C.3       8 GLP5        0.0000 
    111 O          36.5120   61.9590  -18.9300 O.2       1 ALC1        0.0000 
    112 O          36.3230   60.5940  -18.6070 O.2       9 ALL1        0.0000 
    113 O          36.7010   63.3240  -19.2530 O.2       5 ALP1        0.0000 
    114 CA         37.7065   57.4880  -20.6045 C.3       4 GLC5        0.0000 
    115 CA         37.8170   59.1990  -19.7770 C.3      12 GLL5        0.0000 
    116 CA         37.5960   55.7770  -21.4320 C.3       8 GLP5        0.0000 
    117 CA         38.2225   58.0920  -21.7000 C.3       4 GLC5        0.0000 
    118 CA         37.7440   60.0760  -21.0190 C.3      12 GLL5        0.0000 
    119 CA         38.7010   56.1080  -22.3810 C.3       8 GLP5        0.0000 
    120 CA         36.3525   61.5455  -20.9270 C.3       4 GLC5        0.0000 
    121 CA         34.9610   63.0150  -20.8350 C.3       8 GLP5        0.0000 
    122 N          37.1760   57.8900  -24.8980 N.am      2 SEC2        0.0000 
    123 N          38.2000   58.8490  -24.5920 N.am     10 SEL2        0.0000 
    124 N          36.1520   56.9310  -25.2040 N.am      6 SEP2        0.0000 
    125 N          36.2650   62.1400  -23.5725 N.am      2 SEC2        0.0000 
    126 N          37.3860   61.1650  -23.8160 N.am     10 SEL2        0.0000 
    127 N          35.1440   63.1150  -23.3290 N.am      6 SEP2        0.0000 
    128 N          39.7145   61.6910  -22.3830 N.am      2 SEC2        0.0000 
    129 N          39.7170   60.4960  -23.3530 N.am     10 SEL2        0.0000 
    130 CA         45.4880   61.0810  -29.9740 C.3       4 GLC5        0.0000 
    131 CA         47.2520   60.5830  -29.4410 C.3      12 GLL5        0.0000 
    132 CA         44.1200   62.1230  -30.6820 C.3       8 GLP5        0.0000 
    133 CA         48.2860   58.7600  -29.2081 C.3       4 GLC5        0.0000 
    134 CA         41.1853   59.2430  -12.8398 C.3       4 GLC5        0.0000 
    135 CA         39.0940   60.4370  -12.7240 C.3      12 GLL5        0.0000 
    136 CA         42.7000   57.8230  -13.2720 C.3       8 GLP5        0.0000 
    137 CA         39.3578   58.7145  -12.7942 C.3       4 GLC5        0.0000 
    138 CA         40.2470   60.8890  -12.0910 C.3      12 GLL5        0.0000 
    139 CA         39.0450   56.7660  -13.1810 C.3       8 GLP5        0.0000 
    140 CA         42.3347   59.6833  -12.8577 C.3       4 GLC5        0.0000 
    141 CA         41.3600   61.3000  -12.8130 C.3      12 GLL5        0.0000 
    142 CA         41.8776   59.4504  -14.0042 C.3       4 GLC5        0.0000 
    143 CA         41.3280   61.2230  -14.2030 C.3      12 GLL5        0.0000 
    144 CA         39.3307   58.6692  -13.8332 C.3       4 GLC5        0.0000 
    145 CA         37.9338   58.1707  -15.5378 C.3       4 GLC5        0.0000 
    146 CA         38.1770   56.4420  -14.3940 C.3       8 GLP5        0.0000 
    147 CA         36.1048   59.4778  -21.4925 C.3       4 GLC5        0.0000 
    148 CA         34.4290   59.3180  -22.5870 C.3       8 GLP5        0.0000 
@<TRIPOS>BOND
@<TRIPOS>SUBSTRUCTURE
     1 ALC1       26 GROUP        1 X    ALC  0     ROOT ALC X 1
     2 SEC2        1 GROUP        1 X    SEC  0     **** SEC X 2
     3 LYC4        4 GROUP        1 X    LYC  0     **** LYC X 4
     4 GLC5       12 GROUP        1 X    GLC  0     **** GLC X 6
     5 ALP1       28 GROUP        1 Y    ALP  0     ROOT ALP Y 8
     6 SEP2        3 GROUP        1 Y    SEP  0     **** SEP Y 9
     7 LYP4        6 GROUP        1 Y    LYP  0     **** LYP Y 11
     8 GLP5       14 GROUP        1 Y    GLP  0     **** GLP Y 13
     9 ALL1       27 GROUP        1 Z    ALL  0     ROOT ALL Z 15
    10 SEL2        2 GROUP        1 Z    SEL  0     **** SEL Z 16
    11 LYL4        5 GROUP        1 Z    LYL  0     **** LYL Z 18
    12 GLL5       13 GROUP        1 Z    GLL  0     **** GLL Z 20
@<TRIPOS>SET

