#    Name: 2jae_FAD_2_ligand
#    Modification time : Tue Mar 25 19:48:57 2014

@<TRIPOS>MOLECULE
2jae_FAD_2_ligand
   84    89     1     0     0
SMALL
NO_CHARGES


@<TRIPOS>ATOM
      1 PA         41.0900   59.7550  -22.9340 P.3       1 FAD1489     0.0000 
      2 O1A        40.8400   58.7390  -21.8620 O.co2     1 FAD1489     0.0000 
      3 O2A        42.0670   60.8610  -22.6250 O.co2     1 FAD1489     0.0000 
      4 O5B        41.5540   58.9800  -24.2580 O.3       1 FAD1489     0.0000 
      5 C5B        42.1830   59.6640  -25.3250 C.3       1 FAD1489     0.0000 
      6 C4B        43.1120   58.6770  -26.0110 C.3       1 FAD1489     0.0000 
      7 O4B        43.7910   59.3520  -27.0600 O.3       1 FAD1489     0.0000 
      8 C3B        44.1730   58.1060  -25.0590 C.3       1 FAD1489     0.0000 
      9 O3B        44.1450   56.6860  -24.9860 O.3       1 FAD1489     0.0000 
     10 C2B        45.4680   58.6560  -25.6400 C.3       1 FAD1489     0.0000 
     11 O2B        46.5990   57.8330  -25.4440 O.3       1 FAD1489     0.0000 
     12 C1B        45.0980   58.8300  -27.1070 C.3       1 FAD1489     0.0000 
     13 N9A        45.9900   59.7370  -27.8450 N.pl3     1 FAD1489     0.0000 
     14 C8A        46.4390   60.9700  -27.4500 C.2       1 FAD1489     0.0000 
     15 N7A        47.2190   61.4750  -28.4300 N.2       1 FAD1489     0.0000 
     16 C5A        47.2520   60.5830  -29.4410 C.ar      1 FAD1489     0.0000 
     17 C6A        47.8760   60.5910  -30.6820 C.ar      1 FAD1489     0.0000 
     18 N6A        48.6720   61.5660  -31.1270 N.pl3     1 FAD1489     0.0000 
     19 N1A        47.6860   59.5060  -31.4900 N.ar      1 FAD1489     0.0000 
     20 C2A        46.8760   58.4500  -31.1230 C.ar      1 FAD1489     0.0000 
     21 N3A        46.2850   58.4210  -29.8860 N.ar      1 FAD1489     0.0000 
     22 C4A        46.4600   59.4950  -29.0910 C.ar      1 FAD1489     0.0000 
     23 N1         35.8720   58.7600  -14.6960 N.2       1 FAD1489     0.0000 
     24 C2         34.9290   58.0630  -13.9910 C.2       1 FAD1489     0.0000 
     25 O2         33.9900   57.5030  -14.5720 O.2       1 FAD1489     0.0000 
     26 N3         35.1000   57.8730  -12.6400 N.am      1 FAD1489     0.0000 
     27 C4         36.1490   58.4530  -11.9520 C.2       1 FAD1489     0.0000 
     28 O4         36.3260   58.1240  -10.7640 O.2       1 FAD1489     0.0000 
     29 C4X        36.9960   59.3250  -12.6270 C.2       1 FAD1489     0.0000 
     30 N5         38.0350   59.9720  -11.9660 N.2       1 FAD1489     0.0000 
     31 C5X        39.0940   60.4370  -12.7240 C.ar      1 FAD1489     0.0000 
     32 C6         40.2470   60.8890  -12.0910 C.ar      1 FAD1489     0.0000 
     33 C7         41.3600   61.3000  -12.8130 C.ar      1 FAD1489     0.0000 
     34 C7M        42.5790   61.7870  -12.0740 C.3       1 FAD1489     0.0000 
     35 C8         41.3280   61.2230  -14.2030 C.ar      1 FAD1489     0.0000 
     36 C8M        42.5250   61.5640  -15.0430 C.3       1 FAD1489     0.0000 
     37 C9         40.1840   60.7620  -14.8500 C.ar      1 FAD1489     0.0000 
     38 C9A        39.0490   60.3830  -14.1210 C.ar      1 FAD1489     0.0000 
     39 N10        37.8910   59.9520  -14.7530 N.pl3     1 FAD1489     0.0000 
     40 C10        36.9020   59.3640  -14.0160 C.2       1 FAD1489     0.0000 
     41 C1'        37.5390   60.4100  -16.1350 C.3       1 FAD1489     0.0000 
     42 C2'        37.8420   59.3890  -17.2280 C.3       1 FAD1489     0.0000 
     43 O2'        39.1410   58.8700  -17.0700 O.3       1 FAD1489     0.0000 
     44 C3'        37.6460   60.0960  -18.5650 C.3       1 FAD1489     0.0000 
     45 O3'        36.3230   60.5940  -18.6070 O.3       1 FAD1489     0.0000 
     46 C4'        37.8170   59.1990  -19.7770 C.3       1 FAD1489     0.0000 
     47 O4'        39.0560   58.5170  -19.7390 O.3       1 FAD1489     0.0000 
     48 C5'        37.7440   60.0760  -21.0190 C.3       1 FAD1489     0.0000 
     49 O5'        37.8140   59.2800  -22.1760 O.3       1 FAD1489     0.0000 
     50 P          38.2200   59.9460  -23.5780 P.3       1 FAD1489     0.0000 
     51 O1P        38.2000   58.8490  -24.5920 O.co2     1 FAD1489     0.0000 
     52 O2P        37.3860   61.1650  -23.8160 O.co2     1 FAD1489     0.0000 
     53 O3P        39.7170   60.4960  -23.3530 O.3       1 FAD1489     0.0000 
     54 H          42.7823   60.5049  -24.9789 H         1 FAD1489     0.0000 
     55 H          41.4674   60.0214  -26.0640 H         1 FAD1489     0.0000 
     56 H          42.5297   57.8582  -26.3969 H         1 FAD1489     0.0000 
     57 H          44.0228   58.5885  -24.1046 H         1 FAD1489     0.0000 
     58 H          45.5870   59.6588  -25.2366 H         1 FAD1489     0.0000 
     59 H          45.0890   57.8482  -27.5561 H         1 FAD1489     0.0000 
     60 H          46.2276   61.3943  -26.6133 H         1 FAD1489     0.0000 
     61 H          48.8326   62.3252  -30.4963 H         1 FAD1489     0.0000 
     62 H          49.0361   61.4495  -32.0510 H         1 FAD1489     0.0000 
     63 H          46.7156   57.6736  -31.7919 H         1 FAD1489     0.0000 
     64 H          34.4214   57.2756  -12.1175 H         1 FAD1489     0.0000 
     65 H          40.2756   60.9197  -11.0521 H         1 FAD1489     0.0000 
     66 H          40.1684   60.6973  -15.8802 H         1 FAD1489     0.0000 
     67 H          38.0863   61.3437  -16.3666 H         1 FAD1489     0.0000 
     68 H          36.4619   60.6610  -16.1791 H         1 FAD1489     0.0000 
     69 H          37.0796   58.6157  -17.1548 H         1 FAD1489     0.0000 
     70 H          38.3536   60.9094  -18.6343 H         1 FAD1489     0.0000 
     71 H          36.9800   58.5171  -19.8094 H         1 FAD1489     0.0000 
     72 H          38.5712   60.8001  -20.9621 H         1 FAD1489     0.0000 
     73 H          36.8056   60.6490  -20.9650 H         1 FAD1489     0.0000 
     74 H          42.9502   61.0847  -11.4665 H         1 FAD1489     0.0000 
     75 H          43.3126   62.0502  -12.7005 H         1 FAD1489     0.0000 
     76 H          42.3757   62.5862  -11.5084 H         1 FAD1489     0.0000 
     77 H          43.3078   60.9798  -14.8286 H         1 FAD1489     0.0000 
     78 H          42.3368   61.4554  -16.0191 H         1 FAD1489     0.0000 
     79 H          42.8186   62.5098  -14.9045 H         1 FAD1489     0.0000 
     80 H          44.3318   56.3753  -25.9180 H         1 FAD1489     0.0000 
     81 H          46.3590   56.9588  -25.8660 H         1 FAD1489     0.0000 
     82 H          39.4169   58.5798  -17.9864 H         1 FAD1489     0.0000 
     83 H          36.3961   61.5476  -18.3149 H         1 FAD1489     0.0000 
     84 H          39.5061   58.7501  -20.6010 H         1 FAD1489     0.0000 
@<TRIPOS>BOND
     1    2    1 ar   
     2    3    1 ar   
     3    4    1 1    
     4   53    1 1    
     5    5    4 1    
     6    6    5 1    
     7   54    5 1    
     8   55    5 1    
     9    7    6 1    
    10    8    6 1    
    11   56    6 1    
    12   12    7 1    
    13    9    8 1    
    14   10    8 1    
    15   57    8 1    
    16   80    9 1    
    17   11   10 1    
    18   12   10 1    
    19   58   10 1    
    20   81   11 1    
    21   13   12 1    
    22   59   12 1    
    23   14   13 1    
    24   22   13 1    
    25   15   14 2    
    26   60   14 1    
    27   16   15 1    
    28   17   16 ar   
    29   22   16 ar   
    30   18   17 1    
    31   19   17 ar   
    32   61   18 1    
    33   62   18 1    
    34   20   19 ar   
    35   21   20 ar   
    36   63   20 1    
    37   22   21 ar   
    38   24   23 1    
    39   40   23 2    
    40   25   24 2    
    41   26   24 am   
    42   27   26 am   
    43   64   26 1    
    44   28   27 2    
    45   29   27 1    
    46   30   29 2    
    47   40   29 1    
    48   31   30 1    
    49   32   31 ar   
    50   38   31 ar   
    51   33   32 ar   
    52   65   32 1    
    53   34   33 1    
    54   35   33 ar   
    55   74   34 1    
    56   75   34 1    
    57   76   34 1    
    58   36   35 1    
    59   37   35 ar   
    60   77   36 1    
    61   78   36 1    
    62   79   36 1    
    63   38   37 ar   
    64   66   37 1    
    65   39   38 1    
    66   40   39 1    
    67   41   39 1    
    68   42   41 1    
    69   67   41 1    
    70   68   41 1    
    71   43   42 1    
    72   44   42 1    
    73   69   42 1    
    74   82   43 1    
    75   45   44 1    
    76   46   44 1    
    77   70   44 1    
    78   83   45 1    
    79   47   46 1    
    80   48   46 1    
    81   71   46 1    
    82   84   47 1    
    83   49   48 1    
    84   72   48 1    
    85   73   48 1    
    86   50   49 1    
    87   51   50 ar   
    88   52   50 ar   
    89   53   50 1    
@<TRIPOS>SUBSTRUCTURE
     1 FAD1489     1 GROUP   
@<TRIPOS>SET

