#    Name: 2i0g_I0G_2_INTS_M
#    Modification time : Tue Mar 25 17:16:45 2014

@<TRIPOS>MOLECULE
2i0g_I0G_2_INTS_M
   61     0     9     0     0
SMALL
NO_CHARGES


@<TRIPOS>ATOM
      1 CA         93.3350   34.0540   50.5675 C.3       3 GLC5        0.0000 
      2 CA         91.5230   34.5320   49.4560 C.3       9 GLL5        0.0000 
      3 CA         95.1470   33.5760   51.6790 C.3       6 GLP5        0.0000 
      4 CA         90.1470   36.0445   49.3275 C.3       3 GLC5        0.0000 
      5 CA         88.7710   37.5570   49.1990 C.3       6 GLP5        0.0000 
      6 CA         90.8750   37.0135   49.4115 C.3       3 GLC5        0.0000 
      7 CA         91.9880   35.6850   48.7680 C.3       9 GLL5        0.0000 
      8 CA         89.7620   38.3420   50.0550 C.3       6 GLP5        0.0000 
      9 CA         88.2835   28.0505   48.1200 C.3       3 GLC5        0.0000 
     10 CA         89.4820   28.8520   46.5850 C.3       9 GLL5        0.0000 
     11 CA         87.0850   27.2490   49.6550 C.3       6 GLP5        0.0000 
     12 CA         94.3105   29.5845   50.3520 C.3       3 GLC5        0.0000 
     13 CA         92.6850   30.5950   49.9710 C.3       9 GLL5        0.0000 
     14 CA         95.9360   28.5740   50.7330 C.3       6 GLP5        0.0000 
     15 CA         92.6090   28.5730   47.5830 C.3       3 GLC5        0.0000 
     16 CA         92.0210   30.1020   48.6580 C.3       9 GLL5        0.0000 
     17 CA         93.1970   27.0440   46.5080 C.3       6 GLP5        0.0000 
     18 CA         88.9470   31.9535   48.7995 C.3       3 GLC5        0.0000 
     19 CA         90.6370   30.8130   48.5810 C.3       9 GLL5        0.0000 
     20 CA         87.2570   33.0940   49.0180 C.3       6 GLP5        0.0000 
     21 N          92.7815   36.8695   50.7630 N.am      2 SEC2        0.0000 
     22 N          92.2300   36.8420   49.4380 N.am      8 SEL2        0.0000 
     23 N          93.3330   36.8970   52.0880 N.am      5 SEP2        0.0000 
     24 CA         88.4215   31.3995   47.7645 C.3       3 GLC5        0.0000 
     25 CA         90.2990   31.2590   47.1230 C.3       9 GLL5        0.0000 
     26 CA         86.5440   31.5400   48.4060 C.3       6 GLP5        0.0000 
     27 CA         91.5505   28.4800   42.3980 C.3       3 GLC5        0.0000 
     28 CA         90.2050   29.1410   43.8670 C.3       9 GLL5        0.0000 
     29 CA         92.8960   27.8190   40.9290 C.3       6 GLP5        0.0000 
     30 CA         88.0570   29.6425   43.7915 C.3       3 GLC5        0.0000 
     31 CA         85.9090   30.1440   43.7160 C.3       6 GLP5        0.0000 
     32 O          89.2305   27.3495   42.3300 O.2       1 ALC1        0.0000 
     33 O          89.4050   26.9170   43.4670 O.2       7 ALL1        0.0000 
     34 O          89.0560   27.7820   41.1930 O.2       4 ALP1        0.0000 
     35 CA         89.1435   32.8967   49.0703 C.3       3 GLC5        0.0000 
     36 CA         90.7780   32.0790   49.5040 C.3       9 GLL5        0.0000 
     37 CA         89.7877   32.4928   51.3562 C.3       3 GLC5        0.0000 
     38 CA         88.3090   33.1200   52.6610 C.3       6 GLP5        0.0000 
     39 CA         93.5367   35.3863   48.9155 C.3       3 GLC5        0.0000 
     40 CA         95.3180   35.6640   48.7190 C.3       6 GLP5        0.0000 
     41 CA         93.7043   35.3483   47.8687 C.3       3 GLC5        0.0000 
     42 CA         92.2080   35.6280   47.3690 C.3       9 GLL5        0.0000 
     43 CA         90.9197   36.5637   47.0147 C.3       3 GLC5        0.0000 
     44 CA         89.7490   38.0950   47.0110 C.3       6 GLP5        0.0000 
     45 CA         89.4892   31.1625   43.2115 C.3       3 GLC5        0.0000 
     46 CA         90.4240   30.2030   44.7670 C.3       9 GLL5        0.0000 
     47 CA         88.6640   32.6530   42.1060 C.3       6 GLP5        0.0000 
     48 CA         88.1587   30.5010   47.3845 C.3       3 GLC5        0.0000 
     49 CA         93.9020   30.7773   47.9723 C.3       3 GLC5        0.0000 
     50 CA         95.4510   31.2060   46.6300 C.3       6 GLP5        0.0000 
     51 CA         93.6835   32.3498   50.9820 C.3       3 GLC5        0.0000 
     52 CA         91.8180   30.4153   52.0705 C.3       3 GLC5        0.0000 
     53 CA         91.7550   31.6520   50.5990 C.3       9 GLL5        0.0000 
     54 CA         91.4160   29.7070   53.8560 C.3       6 GLP5        0.0000 
     55 CA         93.1258   32.9780   45.7655 C.3       3 GLC5        0.0000 
     56 CA         91.5120   33.2770   47.3460 C.3       9 GLL5        0.0000 
     57 CA         94.5090   32.0990   44.5240 C.3       6 GLP5        0.0000 
     58 CA         87.6103   28.0295   45.0275 C.3       3 GLC5        0.0000 
     59 CA         85.7220   27.9300   44.8240 C.3       6 GLP5        0.0000 
     60 CA         89.7901   30.3510   50.5264 C.3       3 GLC5        0.0000 
     61 CA         88.3490   29.1530   51.2320 C.3       6 GLP5        0.0000 
@<TRIPOS>BOND
@<TRIPOS>SUBSTRUCTURE
     1 ALC1       32 GROUP        1 X    ALC  0     ROOT ALC X 1
     2 SEC2       21 GROUP        1 X    SEC  0     **** SEC X 2
     3 GLC5        1 GROUP        1 X    GLC  0     **** GLC X 6
     4 ALP1       34 GROUP        1 Y    ALP  0     ROOT ALP Y 8
     5 SEP2       23 GROUP        1 Y    SEP  0     **** SEP Y 9
     6 GLP5        3 GROUP        1 Y    GLP  0     **** GLP Y 13
     7 ALL1       33 GROUP        1 Z    ALL  0     ROOT ALL Z 15
     8 SEL2       22 GROUP        1 Z    SEL  0     **** SEL Z 16
     9 GLL5        2 GROUP        1 Z    GLL  0     **** GLL Z 20
@<TRIPOS>SET

