#    Name: 2i0g_I0G_2_ligand
#    Modification time : Tue Mar 25 17:16:45 2014

@<TRIPOS>MOLECULE
2i0g_I0G_2_ligand
   39    42     1     0     0
SMALL
NO_CHARGES


@<TRIPOS>ATOM
      1 C4         90.7780   32.0790   49.5040 C.3       1 I0G1        0.0000 
      2 C6         91.2820   33.3200   48.7410 C.ar      1 I0G1        0.0000 
      3 C7         91.5230   34.5320   49.4560 C.ar      1 I0G1        0.0000 
      4 C8         91.9880   35.6850   48.7680 C.ar      1 I0G1        0.0000 
      5 C10        92.2080   35.6280   47.3690 C.ar      1 I0G1        0.0000 
      6 C17        90.4240   30.2030   44.7670 C.ar      1 I0G1        0.0000 
      7 C21        89.2660   27.7940   45.6850 C.ar      1 I0G1        0.0000 
      8 C22        89.4820   28.8520   46.5850 C.ar      1 I0G1        0.0000 
      9 C24        92.6850   30.5950   49.9710 C.3       1 I0G1        0.0000 
     10 C1         92.0210   30.1020   48.6580 C.3       1 I0G1        0.0000 
     11 C2         90.6370   30.8130   48.5810 C.3       1 I0G1        0.0000 
     12 O9         92.2300   36.8420   49.4380 O.3       1 I0G1        0.0000 
     13 C11        91.9730   34.4370   46.6680 C.ar      1 I0G1        0.0000 
     14 C12        91.5120   33.2770   47.3460 C.ar      1 I0G1        0.0000 
     15 O13        91.3150   32.1420   46.5870 O.3       1 I0G1        0.0000 
     16 C14        90.2990   31.2590   47.1230 C.3       1 I0G1        0.0000 
     17 C16        90.0650   30.0720   46.1410 C.ar      1 I0G1        0.0000 
     18 C18        90.2050   29.1410   43.8670 C.ar      1 I0G1        0.0000 
     19 C19        89.6230   27.9350   44.3270 C.ar      1 I0G1        0.0000 
     20 O20        89.4050   26.9170   43.4670 O.3       1 I0G1        0.0000 
     21 C23        91.7550   31.6520   50.5990 C.3       1 I0G1        0.0000 
     22 H          89.8268   32.2663   49.9458 H         1 I0G1        0.0000 
     23 H          91.3606   34.5672   50.4601 H         1 I0G1        0.0000 
     24 H          92.5388   36.4610   46.8763 H         1 I0G1        0.0000 
     25 H          90.8428   31.0767   44.4399 H         1 I0G1        0.0000 
     26 H          88.8492   26.9188   46.0128 H         1 I0G1        0.0000 
     27 H          89.2202   28.7516   47.5702 H         1 I0G1        0.0000 
     28 H          93.6317   31.0411   49.7406 H         1 I0G1        0.0000 
     29 H          92.7932   29.7673   50.6430 H         1 I0G1        0.0000 
     30 H          91.8732   29.0503   48.7074 H         1 I0G1        0.0000 
     31 H          92.6144   30.3976   47.8268 H         1 I0G1        0.0000 
     32 H          89.8948   30.1918   48.9696 H         1 I0G1        0.0000 
     33 H          92.1330   34.3944   45.6555 H         1 I0G1        0.0000 
     34 H          89.3377   31.8109   47.1757 H         1 I0G1        0.0000 
     35 H          90.4643   29.2380   42.8851 H         1 I0G1        0.0000 
     36 H          91.2183   31.2118   51.4128 H         1 I0G1        0.0000 
     37 H          92.3369   32.4923   50.9140 H         1 I0G1        0.0000 
     38 H          92.9543   37.2952   48.9183 H         1 I0G1        0.0000 
     39 H          89.7696   27.2351   42.5919 H         1 I0G1        0.0000 
@<TRIPOS>BOND
     1    2    1 1    
     2   11    1 1    
     3   21    1 1    
     4   22    1 1    
     5    3    2 ar   
     6   14    2 ar   
     7    4    3 ar   
     8   23    3 1    
     9    5    4 ar   
    10   12    4 1    
    11   13    5 ar   
    12   24    5 1    
    13   17    6 ar   
    14   18    6 ar   
    15   25    6 1    
    16    8    7 ar   
    17   19    7 ar   
    18   26    7 1    
    19   17    8 ar   
    20   27    8 1    
    21   10    9 1    
    22   21    9 1    
    23   28    9 1    
    24   29    9 1    
    25   11   10 1    
    26   30   10 1    
    27   31   10 1    
    28   16   11 1    
    29   32   11 1    
    30   38   12 1    
    31   14   13 ar   
    32   33   13 1    
    33   15   14 1    
    34   16   15 1    
    35   17   16 1    
    36   34   16 1    
    37   19   18 ar   
    38   35   18 1    
    39   20   19 1    
    40   39   20 1    
    41   36   21 1    
    42   37   21 1    
@<TRIPOS>SUBSTRUCTURE
     1 I0G1        1 GROUP   
@<TRIPOS>SET

