#    Name: 1oj4_CDM_1_INTS_M
#    Modification time : Mon Mar 24 20:13:16 2014

@<TRIPOS>MOLECULE
1oj4_CDM_1_INTS_M
   49     0     9     0     0
SMALL
NO_CHARGES


@<TRIPOS>ATOM
      1 N          38.4025   15.1235   14.4405 N.am      2 SEC2        0.0000 
      2 N          37.4050   15.5430   15.3210 N.am      8 SEL2        0.0000 
      3 N          39.4000   14.7040   13.5600 N.am      5 SEP2        0.0000 
      4 CA         34.6220   16.6840   18.8285 C.3       3 GLC5        0.0000 
      5 CA         35.8050   17.1590   17.1380 C.3       9 GLL5        0.0000 
      6 CA         33.4390   16.2090   20.5190 C.3       6 GLP5        0.0000 
      7 N          39.5065   14.1635   16.5515 N.am      2 SEC2        0.0000 
      8 N          39.1700   15.4000   17.0230 N.am      8 SEL2        0.0000 
      9 N          39.8430   12.9270   16.0800 N.am      5 SEP2        0.0000 
     10 O          36.4115   14.9695   12.6990 O.2       1 ALC1        0.0000 
     11 O          35.6260   15.6990   13.6130 O.2       7 ALL1        0.0000 
     12 O          37.1970   14.2400   11.7850 O.2       4 ALP1        0.0000 
     13 CA         37.4535   16.5375   20.9885 C.3       3 GLC5        0.0000 
     14 CA         37.5870   17.0500   18.8540 C.3       9 GLL5        0.0000 
     15 CA         37.3200   16.0250   23.1230 C.3       6 GLP5        0.0000 
     16 CA         36.6665   15.4930   18.7970 C.3       3 GLC5        0.0000 
     17 CA         35.7460   13.9360   18.7400 C.3       6 GLP5        0.0000 
     18 CA         38.9340   19.4540   17.0780 C.3       3 GLC5        0.0000 
     19 CA         38.5230   18.2220   18.6370 C.3       9 GLL5        0.0000 
     20 CA         39.3450   20.6860   15.5190 C.3       6 GLP5        0.0000 
     21 CA         37.8175   20.0955   17.1750 C.3       3 GLC5        0.0000 
     22 CA         37.6690   19.4290   18.9390 C.3       9 GLL5        0.0000 
     23 CA         37.9660   20.7620   15.4110 C.3       6 GLP5        0.0000 
     24 N          31.0835   21.4840   14.5550 N.am      2 SEC2        0.0000 
     25 N          31.7080   20.8990   15.6410 N.am      8 SEL2        0.0000 
     26 N          30.4590   22.0690   13.4690 N.am      5 SEP2        0.0000 
     27 CA         29.3260   12.3260   15.4820 C.3       3 GLC5        0.0000 
     28 CA         28.8670   14.4900   15.3180 C.3       9 GLL5        0.0000 
     29 CA         29.7850   10.1620   15.6460 C.3       6 GLP5        0.0000 
     30 CA         27.5175   15.1215   13.6595 C.3       3 GLC5        0.0000 
     31 CA         26.1680   15.7530   12.0010 C.3       6 GLP5        0.0000 
     32 CA         30.4560   12.1995   15.9910 C.3       3 GLC5        0.0000 
     33 CA         31.1270   14.2370   16.3360 C.3       9 GLL5        0.0000 
     34 CA         31.9870   13.8675   14.3915 C.3       3 GLC5        0.0000 
     35 CA         32.8470   13.4980   12.4470 C.3       6 GLP5        0.0000 
     36 CA         32.9205   14.0325   17.0810 C.3       3 GLC5        0.0000 
     37 CA         34.7140   13.8280   17.8260 C.3       6 GLP5        0.0000 
     38 N          26.3580   14.8605   16.3570 N.am      2 SEC2        0.0000 
     39 N          27.5650   15.0620   15.4260 N.am      8 SEL2        0.0000 
     40 N          25.1510   14.6590   17.2880 N.am      5 SEP2        0.0000 
     41 N          26.9545   13.8160   14.7140 N.am      2 SEC2        0.0000 
     42 N          26.3440   12.5700   14.0020 N.am      5 SEP2        0.0000 
     43 O          27.3835   16.4135   14.9380 O.2       1 ALC1        0.0000 
     44 O          27.5650   15.0620   15.4260 O.2       7 ALL1        0.0000 
     45 O          27.2020   17.7650   14.4500 O.2       4 ALP1        0.0000 
     46 CA         34.7975   17.7462   20.3477 C.3       3 GLC5        0.0000 
     47 CA         35.5110   19.6670   20.2840 C.3       9 GLL5        0.0000 
     48 CA         35.8595   18.4663   21.9087 C.3       3 GLC5        0.0000 
     49 CA         35.5630   17.6490   23.6410 C.3       6 GLP5        0.0000 
@<TRIPOS>BOND
@<TRIPOS>SUBSTRUCTURE
     1 ALC1       10 GROUP        1 X    ALC  0     ROOT ALC X 1
     2 SEC2        1 GROUP        1 X    SEC  0     **** SEC X 2
     3 GLC5        4 GROUP        1 X    GLC  0     **** GLC X 6
     4 ALP1       12 GROUP        1 Y    ALP  0     ROOT ALP Y 8
     5 SEP2        3 GROUP        1 Y    SEP  0     **** SEP Y 9
     6 GLP5        6 GROUP        1 Y    GLP  0     **** GLP Y 13
     7 ALL1       11 GROUP        1 Z    ALL  0     ROOT ALL Z 15
     8 SEL2        2 GROUP        1 Z    SEL  0     **** SEL Z 16
     9 GLL5        5 GROUP        1 Z    GLL  0     **** GLL Z 20
@<TRIPOS>SET

