#    Name: 1oj4_CDM_1_ligand
#    Modification time : Mon Mar 24 20:13:16 2014

@<TRIPOS>MOLECULE
1oj4_CDM_1_ligand
   56    57     1     0     0
SMALL
NO_CHARGES


@<TRIPOS>ATOM
      1 N1         37.1200   16.6810   17.5200 N.am      1 CDM1284     0.0000 
      2 C2         37.9110   15.8720   16.6250 C.2       1 CDM1284     0.0000 
      3 N3         37.4050   15.5430   15.3210 N.2       1 CDM1284     0.0000 
      4 C4         36.1120   16.0290   14.9210 C.2       1 CDM1284     0.0000 
      5 C5         35.3130   16.8440   15.8190 C.2       1 CDM1284     0.0000 
      6 C6         35.8050   17.1590   17.1380 C.2       1 CDM1284     0.0000 
      7 O2         39.1700   15.4000   17.0230 O.2       1 CDM1284     0.0000 
      8 N4         35.6260   15.6990   13.6130 N.pl3     1 CDM1284     0.0000 
      9 C1'        37.5870   17.0500   18.8540 C.3       1 CDM1284     0.0000 
     10 C2'        38.5230   18.2220   18.6370 C.3       1 CDM1284     0.0000 
     11 O2'        39.5910   18.1080   19.5530 O.3       1 CDM1284     0.0000 
     12 C3'        37.6690   19.4290   18.9390 C.3       1 CDM1284     0.0000 
     13 C4'        36.8010   18.9000   20.0690 C.3       1 CDM1284     0.0000 
     14 O4'        36.5190   17.5450   19.6780 O.3       1 CDM1284     0.0000 
     15 O3'        38.4490   20.5650   19.2860 O.3       1 CDM1284     0.0000 
     16 C5'        35.5110   19.6670   20.2840 C.3       1 CDM1284     0.0000 
     17 O5'        34.9970   19.9980   19.0080 O.3       1 CDM1284     0.0000 
     18 PA         33.4850   20.5030   18.8120 P.3       1 CDM1284     0.0000 
     19 O1A        32.5880   19.7830   19.7950 O.co2     1 CDM1284     0.0000 
     20 O2A        33.4870   22.0100   18.7330 O.co2     1 CDM1284     0.0000 
     21 O3A        33.2100   19.9120   17.3530 O.3       1 CDM1284     0.0000 
     22 PB         31.7340   19.8460   16.7300 P.3       1 CDM1284     0.0000 
     23 O1B        31.7080   20.8990   15.6410 O.co2     1 CDM1284     0.0000 
     24 O2B        30.7000   19.8390   17.8480 O.co2     1 CDM1284     0.0000 
     25 O3B        31.7680   18.3810   16.0290 O.3       1 CDM1284     0.0000 
     26 C1M        31.2970   17.1940   16.6850 C.3       1 CDM1284     0.0000 
     27 C2M        30.2770   16.5070   15.7680 C.3       1 CDM1284     0.0000 
     28 O2M        30.8120   16.3950   14.4490 O.3       1 CDM1284     0.0000 
     29 C3M        29.8860   15.1230   16.2680 C.3       1 CDM1284     0.0000 
     30 C4M        28.8670   14.4900   15.3180 C.3       1 CDM1284     0.0000 
     31 C5M        31.1270   14.2370   16.3360 C.3       1 CDM1284     0.0000 
     32 O3M        29.3250   15.2520   17.5760 O.3       1 CDM1284     0.0000 
     33 O4M        27.5650   15.0620   15.4260 O.3       1 CDM1284     0.0000 
     34 H          34.4136   17.1882   15.5162 H         1 CDM1284     0.0000 
     35 H          35.2545   17.6946   17.7771 H         1 CDM1284     0.0000 
     36 H          36.2451   15.1677   13.0347 H         1 CDM1284     0.0000 
     37 H          34.7087   16.0278   13.3885 H         1 CDM1284     0.0000 
     38 H          38.1276   16.2736   19.3074 H         1 CDM1284     0.0000 
     39 H          38.8143   18.2377   17.6289 H         1 CDM1284     0.0000 
     40 H          37.0287   19.5845   18.0896 H         1 CDM1284     0.0000 
     41 H          37.3872   18.9011   20.9717 H         1 CDM1284     0.0000 
     42 H          35.7393   20.5518   20.8775 H         1 CDM1284     0.0000 
     43 H          34.8303   19.0310   20.8491 H         1 CDM1284     0.0000 
     44 H          30.7994   17.4217   17.6265 H         1 CDM1284     0.0000 
     45 H          32.1044   16.4882   16.8743 H         1 CDM1284     0.0000 
     46 H          29.3765   17.1239   15.7550 H         1 CDM1284     0.0000 
     47 H          28.8500   13.3997   15.5310 H         1 CDM1284     0.0000 
     48 H          29.2698   14.5902   14.2875 H         1 CDM1284     0.0000 
     49 H          31.5627   14.1388   15.4413 H         1 CDM1284     0.0000 
     50 H          31.8157   14.6095   16.9581 H         1 CDM1284     0.0000 
     51 H          30.9085   13.3159   16.6583 H         1 CDM1284     0.0000 
     52 H          39.8016   19.0475   19.8230 H         1 CDM1284     0.0000 
     53 H          38.3078   21.2139   18.5384 H         1 CDM1284     0.0000 
     54 H          31.3285   17.2394   14.3068 H         1 CDM1284     0.0000 
     55 H          28.3351   15.2274   17.4365 H         1 CDM1284     0.0000 
     56 H          27.6476   15.9718   15.0193 H         1 CDM1284     0.0000 
@<TRIPOS>BOND
     1    2    1 am   
     2    6    1 1    
     3    9    1 1    
     4    3    2 1    
     5    7    2 2    
     6    4    3 2    
     7    5    4 1    
     8    8    4 1    
     9    6    5 2    
    10   34    5 1    
    11   35    6 1    
    12   36    8 1    
    13   37    8 1    
    14   10    9 1    
    15   14    9 1    
    16   38    9 1    
    17   11   10 1    
    18   12   10 1    
    19   39   10 1    
    20   52   11 1    
    21   13   12 1    
    22   15   12 1    
    23   40   12 1    
    24   14   13 1    
    25   16   13 1    
    26   41   13 1    
    27   53   15 1    
    28   17   16 1    
    29   42   16 1    
    30   43   16 1    
    31   18   17 1    
    32   19   18 ar   
    33   20   18 ar   
    34   21   18 1    
    35   22   21 1    
    36   23   22 ar   
    37   24   22 ar   
    38   25   22 1    
    39   26   25 1    
    40   27   26 1    
    41   44   26 1    
    42   45   26 1    
    43   28   27 1    
    44   29   27 1    
    45   46   27 1    
    46   54   28 1    
    47   30   29 1    
    48   31   29 1    
    49   32   29 1    
    50   33   30 1    
    51   47   30 1    
    52   48   30 1    
    53   49   31 1    
    54   50   31 1    
    55   51   31 1    
    56   55   32 1    
    57   56   33 1    
@<TRIPOS>SUBSTRUCTURE
     1 CDM1284     1 GROUP   
@<TRIPOS>SET

