#    Name: 4ez3_0S0_1_INTS_M
#    Modification time : Mon Mar 24 18:47:37 2014

@<TRIPOS>MOLECULE
4ez3_0S0_1_INTS_M
   36     0     9     0     0
SMALL
NO_CHARGES


@<TRIPOS>ATOM
      1 N          -2.7260   -3.0440   29.5405 N.am      2 SEC2        0.0000 
      2 N          -1.6760   -4.0230   29.0480 N.am      8 SEL2        0.0000 
      3 N          -3.7760   -2.0650   30.0330 N.am      5 SEP2        0.0000 
      4 O          -0.0040   -2.0430   28.5635 O.2       1 ALC1        0.0000 
      5 O           0.0160   -3.3490   27.8250 O.2       7 ALL1        0.0000 
      6 O          -0.0240   -0.7370   29.3020 O.2       4 ALP1        0.0000 
      7 CA          1.4235   -4.5035   28.3915 C.3       3 GLC5        0.0000 
      8 CA          1.0990   -4.8100   26.2480 C.3       9 GLL5        0.0000 
      9 CA          1.7480   -4.1970   30.5350 C.3       6 GLP5        0.0000 
     10 CA          0.3840   -3.9325   24.5455 C.3       3 GLC5        0.0000 
     11 CA         -0.3310   -3.0550   22.8430 C.3       6 GLP5        0.0000 
     12 CA          1.5775   -6.8725   27.8780 C.3       3 GLC5        0.0000 
     13 CA          0.2180   -5.8340   26.5870 C.3       9 GLL5        0.0000 
     14 CA          2.9370   -7.9110   29.1690 C.3       6 GLP5        0.0000 
     15 CA          0.4885   -4.8910   29.0555 C.3       3 GLC5        0.0000 
     16 CA         -0.7710   -5.5850   27.5760 C.3       9 GLL5        0.0000 
     17 N          -7.8130   -8.9140   26.4805 N.am      2 SEC2        0.0000 
     18 N          -7.9450  -10.1570   27.3370 N.am      8 SEL2        0.0000 
     19 N          -7.6810   -7.6710   25.6240 N.am      5 SEP2        0.0000 
     20 CA         -2.8755   -8.7200   29.4435 C.3       3 GLC5        0.0000 
     21 CA         -4.7140   -7.6510   29.4990 C.3       9 GLL5        0.0000 
     22 CA         -1.0370   -9.7890   29.3880 C.3       6 GLP5        0.0000 
     23 CA         -1.3606   -4.4822   26.3479 C.3       3 GLC5        0.0000 
     24 CA         -2.6650   -3.5110   25.6990 C.3       6 GLP5        0.0000 
     25 CA         -3.7815   -6.7737   26.4108 C.3       3 GLC5        0.0000 
     26 CA         -3.5570   -8.5790   27.5180 C.3       9 GLL5        0.0000 
     27 CA         -3.9640   -5.4380   24.7760 C.3       6 GLP5        0.0000 
     28 CA         -5.0087   -8.6792   25.6630 C.3       3 GLC5        0.0000 
     29 CA         -5.9830   -8.3110   23.8680 C.3       6 GLP5        0.0000 
     30 CA         -2.5462   -9.3009   28.5549 C.3       3 GLC5        0.0000 
     31 CA         -4.5120   -9.5160   27.3980 C.3       9 GLL5        0.0000 
     32 CA         -6.3925   -6.4940   30.1720 C.3       3 GLC5        0.0000 
     33 CA         -5.6820   -8.5970   29.3650 C.3       9 GLL5        0.0000 
     34 CA         -7.5870   -4.8640   30.9120 C.3       6 GLP5        0.0000 
     35 CA         -6.8477   -7.5914   28.4659 C.3       3 GLC5        0.0000 
     36 CA         -8.5200   -6.8250   27.7590 C.3       6 GLP5        0.0000 
@<TRIPOS>BOND
@<TRIPOS>SUBSTRUCTURE
     1 ALC1        4 GROUP        1 X    ALC  0     ROOT ALC X 1
     2 SEC2        1 GROUP        1 X    SEC  0     **** SEC X 2
     3 GLC5        7 GROUP        1 X    GLC  0     **** GLC X 6
     4 ALP1        6 GROUP        1 Y    ALP  0     ROOT ALP Y 8
     5 SEP2        3 GROUP        1 Y    SEP  0     **** SEP Y 9
     6 GLP5        9 GROUP        1 Y    GLP  0     **** GLP Y 13
     7 ALL1        5 GROUP        1 Z    ALL  0     ROOT ALL Z 15
     8 SEL2        2 GROUP        1 Z    SEL  0     **** SEL Z 16
     9 GLL5        8 GROUP        1 Z    GLL  0     **** GLL Z 20
@<TRIPOS>SET

