#    Name: 4ez3_0S0_1_ligand
#    Modification time : Mon Mar 24 18:47:37 2014

@<TRIPOS>MOLECULE
4ez3_0S0_1_ligand
   29    30     1     0     0
SMALL
NO_CHARGES


@<TRIPOS>ATOM
      1 O01        -1.6760   -4.0230   29.0480 O.2       1 0S0301      0.0000 
      2 C02        -0.8360   -4.2980   28.1940 C.2       1 0S0301      0.0000 
      3 N03         0.0160   -3.3490   27.8250 N.am      1 0S0301      0.0000 
      4 C04         0.9850   -3.5700   26.8740 C.2       1 0S0301      0.0000 
      5 O05         1.8320   -2.5690   26.5410 O.co2     1 0S0301      0.0000 
      6 C06         1.0990   -4.8100   26.2480 C.2       1 0S0301      0.0000 
      7 C07         0.2180   -5.8340   26.5870 C.2       1 0S0301      0.0000 
      8 C08        -0.7710   -5.5850   27.5760 C.2       1 0S0301      0.0000 
      9 N09        -1.6690   -6.6760   27.8850 N.2       1 0S0301      0.0000 
     10 N10        -2.5790   -6.6350   28.7020 N.2       1 0S0301      0.0000 
     11 C11        -3.6410   -7.6400   28.5730 C.ar      1 0S0301      0.0000 
     12 C12        -3.5570   -8.5790   27.5180 C.ar      1 0S0301      0.0000 
     13 C13        -4.5120   -9.5160   27.3980 C.ar      1 0S0301      0.0000 
     14 C14        -5.5920   -9.5320   28.3280 C.ar      1 0S0301      0.0000 
     15 S15        -6.8650  -10.7480   28.1750 S.o2      1 0S0301      0.0000 
     16 O16        -6.4720  -11.8710   27.3680 O.2       1 0S0301      0.0000 
     17 N17        -7.3320  -11.2200   29.6360 N.pl3     1 0S0301      0.0000 
     18 O18        -7.9450  -10.1570   27.3370 O.2       1 0S0301      0.0000 
     19 C19        -5.6820   -8.5970   29.3650 C.ar      1 0S0301      0.0000 
     20 C20        -4.7140   -7.6510   29.4990 C.ar      1 0S0301      0.0000 
     21 H          -0.0347   -2.3901   28.2619 H         1 0S0301      0.0000 
     22 H           1.8258   -4.9667   25.5436 H         1 0S0301      0.0000 
     23 H           0.2710   -6.7446   26.1437 H         1 0S0301      0.0000 
     24 H          -2.7633   -8.5176   26.8694 H         1 0S0301      0.0000 
     25 H          -4.4980  -10.2274   26.6593 H         1 0S0301      0.0000 
     26 H          -8.0662  -11.8983   29.6655 H         1 0S0301      0.0000 
     27 H          -6.8539  -10.8005   30.4077 H         1 0S0301      0.0000 
     28 H          -6.4807   -8.6396   30.0115 H         1 0S0301      0.0000 
     29 H          -4.7359   -6.9523   30.2417 H         1 0S0301      0.0000 
@<TRIPOS>BOND
     1    2    1 2    
     2    3    2 am   
     3    8    2 1    
     4    4    3 1    
     5   21    3 1    
     6    5    4 ar   
     7    6    4 2    
     8    7    6 1    
     9   22    6 1    
    10    8    7 2    
    11   23    7 1    
    12    9    8 1    
    13   10    9 2    
    14   11   10 1    
    15   12   11 ar   
    16   20   11 ar   
    17   13   12 ar   
    18   24   12 1    
    19   14   13 ar   
    20   25   13 1    
    21   15   14 1    
    22   19   14 ar   
    23   16   15 2    
    24   17   15 1    
    25   18   15 2    
    26   26   17 1    
    27   27   17 1    
    28   20   19 ar   
    29   28   19 1    
    30   29   20 1    
@<TRIPOS>SUBSTRUCTURE
     1 0S0301      1 GROUP   
@<TRIPOS>SET

