#    Name: 1j3i_WRA_2_INTS_M
#    Modification time : Tue Mar 25 08:35:09 2014

@<TRIPOS>MOLECULE
1j3i_WRA_2_INTS_M
   73     0     9     0     0
SMALL
NO_CHARGES


@<TRIPOS>ATOM
      1 O          29.3105  -24.5795    7.6950 O.2       1 ALC1        0.0000 
      2 O          29.0340  -25.7740    8.4030 O.2       7 ALL1        0.0000 
      3 O          29.5870  -23.3850    6.9870 O.2       4 ALP1        0.0000 
      4 OD1        28.3335  -23.4340    9.3170 O.co2     2 ASC3        0.0000 
      5 OD1        28.0850  -25.8340    9.3240 O.co2     8 ASL3        0.0000 
      6 OD1        28.8620  -22.1040    8.6390 O.co2     5 ASP3        0.0000 
      7 OD1        28.8360  -24.6095    8.1555 O.co2     2 ASC3        0.0000 
      8 OD1        29.5870  -23.3850    6.9870 O.co2     5 ASP3        0.0000 
      9 O          26.2050  -27.7490   10.5550 O.2       1 ALC1        0.0000 
     10 O          27.4110  -26.9850    9.5710 O.2       7 ALL1        0.0000 
     11 O          24.9990  -28.5130   11.5390 O.2       4 ALP1        0.0000 
     12 CA         30.2835  -30.3965    9.8310 C.3       3 GLC5        0.0000 
     13 CA         29.5190  -30.7320    8.2280 C.3       9 GLL5        0.0000 
     14 CA         31.0480  -30.0610   11.4340 C.3       6 GLP5        0.0000 
     15 CA         28.6385  -31.4930    9.8755 C.3       3 GLC5        0.0000 
     16 CA         27.7580  -32.2540   11.5230 C.3       6 GLP5        0.0000 
     17 CA         27.7135  -30.6425    7.3130 C.3       3 GLC5        0.0000 
     18 CA         25.9080  -30.5530    6.3980 C.3       6 GLP5        0.0000 
     19 CA         31.7690  -33.0520    5.8180 C.3       3 GLC5        0.0000 
     20 CA         30.5490  -31.3930    5.9500 C.3       9 GLL5        0.0000 
     21 CA         32.9890  -34.7110    5.6860 C.3       6 GLP5        0.0000 
     22 CA         32.7580  -26.8745    7.2510 C.3       3 GLC5        0.0000 
     23 CA         30.9320  -26.9780    7.4190 C.3       9 GLL5        0.0000 
     24 CA         34.5840  -26.7710    7.0830 C.3       6 GLP5        0.0000 
     25 CA         27.3440  -25.3610    6.3810 C.3       3 GLC5        0.0000 
     26 CA         28.7590  -26.8150    6.1970 C.3       9 GLL5        0.0000 
     27 CA         25.9290  -23.9070    6.5650 C.3       6 GLP5        0.0000 
     28 CA         28.4920  -27.4380    4.3810 C.3       3 GLC5        0.0000 
     29 CA         28.2250  -28.0610    2.5650 C.3       6 GLP5        0.0000 
     30 CA         27.0675  -28.1940    5.8350 C.3       3 GLC5        0.0000 
     31 CA         25.3760  -29.5730    5.4730 C.3       6 GLP5        0.0000 
     32 O          28.3335  -23.4340    9.3170 O.2       1 ALC1        0.0000 
     33 O          27.8050  -24.7640    9.9950 O.2       7 ALL1        0.0000 
     34 O          28.8620  -22.1040    8.6390 O.2       4 ALP1        0.0000 
     35 O          26.0625  -28.8820   10.4265 O.2       1 ALC1        0.0000 
     36 O          27.1260  -29.2510    9.3140 O.2       7 ALL1        0.0000 
     37 O          26.7810  -30.7695    9.2325 O.2       1 ALC1        0.0000 
     38 O          26.4360  -32.2880    9.1510 O.2       4 ALP1        0.0000 
     39 O          25.5060  -29.6540    9.2475 O.2       1 ALC1        0.0000 
     40 O          23.8860  -30.0570    9.1810 O.2       4 ALP1        0.0000 
     41 CA         33.4560  -30.0115    9.4080 C.3       3 GLC5        0.0000 
     42 CA         34.5900  -30.4130    7.7330 C.3       9 GLL5        0.0000 
     43 CA         32.3220  -29.6100   11.0830 C.3       6 GLP5        0.0000 
     44 CA         35.0080  -32.3015    6.8400 C.3       3 GLC5        0.0000 
     45 CA         35.4260  -34.1900    5.9470 C.3       6 GLP5        0.0000 
     46 CA         34.9830  -31.6425    9.1035 C.3       3 GLC5        0.0000 
     47 CA         35.3760  -32.8720   10.4740 C.3       6 GLP5        0.0000 
     48 CA         35.0955  -27.9100    3.9485 C.3       3 GLC5        0.0000 
     49 CA         36.1990  -29.1980    2.5380 C.3       9 GLL5        0.0000 
     50 CA         33.9920  -26.6220    5.3590 C.3       6 GLP5        0.0000 
     51 CA         36.3790  -30.9585    2.6045 C.3       3 GLC5        0.0000 
     52 CA         36.5590  -32.7190    2.6710 C.3       6 GLP5        0.0000 
     53 CA         38.0840  -29.5430    3.4540 C.3       3 GLC5        0.0000 
     54 CA         39.9690  -29.8880    4.3700 C.3       6 GLP5        0.0000 
     55 CA         31.8275  -28.5580    1.8130 C.3       3 GLC5        0.0000 
     56 CA         33.1240  -29.9810    1.4320 C.3       9 GLL5        0.0000 
     57 CA         30.5310  -27.1350    2.1940 C.3       6 GLP5        0.0000 
     58 CA         30.9235  -26.7705    9.2905 C.3       3 GLC5        0.0000 
     59 CA         31.5410  -27.3130   11.1480 C.3       6 GLP5        0.0000 
     60 CA         28.1138  -31.7580    6.2890 C.3       3 GLC5        0.0000 
     61 CA         29.5780  -31.8670    7.1220 C.3       9 GLL5        0.0000 
     62 CA         26.1640  -31.8860    6.0420 C.3       6 GLP5        0.0000 
     63 CA         32.8397  -32.6492    5.2618 C.3       3 GLC5        0.0000 
     64 CA         32.8430  -30.6370    5.5570 C.3       9 GLL5        0.0000 
     65 CA         34.4865  -28.5637    6.9802 C.3       3 GLC5        0.0000 
     66 CA         34.1880  -30.3000    6.0220 C.3       9 GLL5        0.0000 
     67 CA         35.0623  -32.1365    5.7488 C.3       3 GLC5        0.0000 
     68 CA         34.5262  -28.2160    4.8625 C.3       3 GLC5        0.0000 
     69 CA         35.2090  -29.8660    5.0790 C.3       9 GLL5        0.0000 
     70 CA         31.7890  -28.7268    2.9180 C.3       3 GLC5        0.0000 
     71 CA         33.5560  -30.0990    3.1660 C.3       9 GLL5        0.0000 
     72 CA         33.5576  -28.4826    4.6804 C.3       3 GLC5        0.0000 
     73 CA         35.4336  -31.3367    3.2185 C.3       3 GLC5        0.0000 
@<TRIPOS>BOND
@<TRIPOS>SUBSTRUCTURE
     1 ALC1        1 GROUP        1 X    ALC  0     ROOT ALC X 1
     2 ASC3        4 GROUP        1 X    ASC  0     **** ASC X 3
     3 GLC5       12 GROUP        1 X    GLC  0     **** GLC X 6
     4 ALP1        3 GROUP        1 Y    ALP  0     ROOT ALP Y 8
     5 ASP3        6 GROUP        1 Y    ASP  0     **** ASP Y 10
     6 GLP5       14 GROUP        1 Y    GLP  0     **** GLP Y 13
     7 ALL1        2 GROUP        1 Z    ALL  0     ROOT ALL Z 15
     8 ASL3        5 GROUP        1 Z    ASL  0     **** ASL Z 17
     9 GLL5       13 GROUP        1 Z    GLL  0     **** GLL Z 20
@<TRIPOS>SET

