#    Name: 1j3i_WRA_2_ligand
#    Modification time : Tue Mar 25 08:35:09 2014

@<TRIPOS>MOLECULE
1j3i_WRA_2_ligand
   44    45     1     0     0
SMALL
NO_CHARGES


@<TRIPOS>ATOM
      1 C1         29.4130  -26.9490    7.5860 C.3       1 WRA709      0.0000 
      2 N2         29.0340  -25.7740    8.4030 N.pl3     1 WRA709      0.0000 
      3 C3         28.0850  -25.8340    9.3240 C.cat     1 WRA709      0.0000 
      4 N4         27.4110  -26.9850    9.5710 N.pl3     1 WRA709      0.0000 
      5 C5         27.8170  -28.1770    9.0390 C.cat     1 WRA709      0.0000 
      6 N6         28.9550  -28.2320    8.2120 N.pl3     1 WRA709      0.0000 
      7 O7         29.3730  -29.4300    7.4890 O.3       1 WRA709      0.0000 
      8 C8         29.5190  -30.7320    8.2280 C.3       1 WRA709      0.0000 
      9 C9         29.5780  -31.8670    7.1220 C.3       1 WRA709      0.0000 
     10 C10        30.5490  -31.3930    5.9500 C.3       1 WRA709      0.0000 
     11 O11        31.8720  -31.0280    6.5130 O.3       1 WRA709      0.0000 
     12 C12        32.8430  -30.6370    5.5570 C.ar      1 WRA709      0.0000 
     13 C13        34.1880  -30.3000    6.0220 C.ar      1 WRA709      0.0000 
     14 C14        35.2090  -29.8660    5.0790 C.ar      1 WRA709      0.0000 
     15 C15        34.9120  -29.7540    3.6530 C.ar      1 WRA709      0.0000 
     16 C16        33.5560  -30.0990    3.1660 C.ar      1 WRA709      0.0000 
     17 C17        32.5380  -30.5380    4.1180 C.ar      1 WRA709      0.0000 
     18 CM1        30.9320  -26.9780    7.4190 C.3       1 WRA709      0.0000 
     19 CM2        28.7590  -26.8150    6.1970 C.3       1 WRA709      0.0000 
     20 NH1        27.8050  -24.7640    9.9950 N.pl3     1 WRA709      0.0000 
     21 NH2        27.1260  -29.2510    9.3140 N.pl3     1 WRA709      0.0000 
     22 CL1        34.5900  -30.4130    7.7330 Cl        1 WRA709      0.0000 
     23 CL2        36.1990  -29.1980    2.5380 Cl        1 WRA709      0.0000 
     24 CL3        33.1240  -29.9810    1.4320 Cl        1 WRA709      0.0000 
     25 H          29.5692  -24.9045    8.1966 H         1 WRA709      0.0000 
     26 H          26.5602  -26.9648   10.1822 H         1 WRA709      0.0000 
     27 H          28.6699  -30.9213    8.8453 H         1 WRA709      0.0000 
     28 H          30.4334  -30.7626    8.7766 H         1 WRA709      0.0000 
     29 H          28.6009  -32.0129    6.7197 H         1 WRA709      0.0000 
     30 H          29.9742  -32.7570    7.5566 H         1 WRA709      0.0000 
     31 H          30.0758  -30.5467    5.4684 H         1 WRA709      0.0000 
     32 H          30.6288  -32.2162    5.2513 H         1 WRA709      0.0000 
     33 H          36.1364  -29.6387    5.4134 H         1 WRA709      0.0000 
     34 H          31.6141  -30.7774    3.7923 H         1 WRA709      0.0000 
     35 H          27.0912  -24.8543   10.6895 H         1 WRA709      0.0000 
     36 H          28.3283  -23.9458    9.7569 H         1 WRA709      0.0000 
     37 H          26.3165  -29.1189    9.8861 H         1 WRA709      0.0000 
     38 H          27.4700  -30.1066    8.9272 H         1 WRA709      0.0000 
     39 H          31.4014  -27.0391    8.2999 H         1 WRA709      0.0000 
     40 H          31.2307  -27.7606    6.8728 H         1 WRA709      0.0000 
     41 H          31.2712  -26.1554    6.9626 H         1 WRA709      0.0000 
     42 H          29.0551  -25.9842    5.7257 H         1 WRA709      0.0000 
     43 H          28.9875  -27.5863    5.6029 H         1 WRA709      0.0000 
     44 H          27.7616  -26.7776    6.2582 H         1 WRA709      0.0000 
@<TRIPOS>BOND
     1    2    1 1    
     2    6    1 1    
     3   18    1 1    
     4   19    1 1    
     5    3    2 ar   
     6   25    2 1    
     7    4    3 ar   
     8   20    3 ar   
     9    5    4 ar   
    10   26    4 1    
    11    6    5 ar   
    12   21    5 ar   
    13    7    6 1    
    14    8    7 1    
    15    9    8 1    
    16   27    8 1    
    17   28    8 1    
    18   10    9 1    
    19   29    9 1    
    20   30    9 1    
    21   11   10 1    
    22   31   10 1    
    23   32   10 1    
    24   12   11 1    
    25   13   12 ar   
    26   17   12 ar   
    27   14   13 ar   
    28   22   13 1    
    29   15   14 ar   
    30   33   14 1    
    31   16   15 ar   
    32   23   15 1    
    33   17   16 ar   
    34   24   16 1    
    35   34   17 1    
    36   39   18 1    
    37   40   18 1    
    38   41   18 1    
    39   42   19 1    
    40   43   19 1    
    41   44   19 1    
    42   35   20 1    
    43   36   20 1    
    44   37   21 1    
    45   38   21 1    
@<TRIPOS>SUBSTRUCTURE
     1 WRA709      1 GROUP   
@<TRIPOS>SET

