#    Name: 2f59_INI_4_INTS_M
#    Modification time : Tue Mar 25 12:19:44 2014

@<TRIPOS>MOLECULE
2f59_INI_4_INTS_M
   51     0     9     0     0
SMALL
NO_CHARGES


@<TRIPOS>ATOM
      1 N          86.4490   31.1765 -103.5915 N.am      2 SEC2        0.0000 
      2 N          85.3750   31.6700 -104.2090 N.am      8 SEL2        0.0000 
      3 N          87.5230   30.6830 -102.9740 N.am      5 SEP2        0.0000 
      4 O          83.5710   33.6140 -104.9685 O.2       1 ALC1        0.0000 
      5 O          83.4050   32.8390 -103.7980 O.2       7 ALL1        0.0000 
      6 O          83.7370   34.3890 -106.1390 O.2       4 ALP1        0.0000 
      7 CA         80.7995   31.2255 -103.0455 C.3       3 GLC5        0.0000 
      8 CA         81.9320   31.9400 -101.9490 C.3       9 GLL5        0.0000 
      9 CA         79.6670   30.5110 -104.1420 C.3       6 GLP5        0.0000 
     10 CA         82.3435   29.7695 -102.9290 C.3       3 GLC5        0.0000 
     11 CA         82.9410   30.8800 -101.7670 C.3       9 GLL5        0.0000 
     12 CA         81.7460   28.6590 -104.0910 C.3       6 GLP5        0.0000 
     13 CA         84.7085   29.6960 -102.4960 C.3       3 GLC5        0.0000 
     14 CA         86.4760   28.5120 -103.2250 C.3       6 GLP5        0.0000 
     15 CA         85.0290   30.3630  -98.0105 C.3       3 GLC5        0.0000 
     16 CA         83.6170   30.0360  -99.5730 C.3       9 GLL5        0.0000 
     17 CA         86.4410   30.6900  -96.4480 C.3       6 GLP5        0.0000 
     18 CA         86.1545   30.3125  -98.5195 C.3       3 GLC5        0.0000 
     19 CA         85.0330   29.3660  -99.4440 C.3       9 GLL5        0.0000 
     20 CA         87.2760   31.2590  -97.5950 C.3       6 GLP5        0.0000 
     21 N          87.2005   30.4240 -100.4750 N.am      2 SEC2        0.0000 
     22 N          85.7700   29.9450 -100.4940 N.am      8 SEL2        0.0000 
     23 N          88.6310   30.9030 -100.4560 N.am      5 SEP2        0.0000 
     24 CA         86.7375   28.9660  -98.8710 C.3       3 GLC5        0.0000 
     25 CA         85.2620   27.7650  -99.6160 C.3       9 GLL5        0.0000 
     26 CA         88.2130   30.1670  -98.1260 C.3       6 GLP5        0.0000 
     27 O          86.1830   26.8045 -100.9380 O.2       1 ALC1        0.0000 
     28 O          84.9640   27.3100 -100.8760 O.2       7 ALL1        0.0000 
     29 O          87.4020   26.2990 -101.0000 O.2       4 ALP1        0.0000 
     30 O          83.6280   27.0185  -96.3285 O.2       1 ALC1        0.0000 
     31 O          83.8560   27.6240  -97.6330 O.2       7 ALL1        0.0000 
     32 O          83.4000   26.4130  -95.0240 O.2       4 ALP1        0.0000 
     33 CA         86.1300   24.2695  -96.3385 C.3       3 GLC5        0.0000 
     34 CA         85.1830   25.7350  -97.4500 C.3       9 GLL5        0.0000 
     35 CA         87.0770   22.8040  -95.2270 C.3       6 GLP5        0.0000 
     36 CA         85.3490   25.8715  -95.6995 C.3       3 GLC5        0.0000 
     37 CA         85.5150   26.0080  -93.9490 C.3       6 GLP5        0.0000 
     38 CA         84.1010   24.0190  -96.9790 C.3       3 GLC5        0.0000 
     39 CA         83.0190   22.3030  -96.5080 C.3       6 GLP5        0.0000 
     40 N          86.3530   25.4215  -96.2220 N.am      2 SEC2        0.0000 
     41 N          86.5560   25.8330  -97.6520 N.am      8 SEL2        0.0000 
     42 N          86.1500   25.0100  -94.7920 N.am      5 SEP2        0.0000 
     43 CA         83.2237   32.5090 -100.3305 C.3       3 GLC5        0.0000 
     44 CA         84.0110   33.6080  -98.8030 C.3       6 GLP5        0.0000 
     45 CA         84.1680   31.6545  -99.1557 C.3       3 GLC5        0.0000 
     46 CA         85.8118   28.5388 -101.3775 C.3       3 GLC5        0.0000 
     47 CA         83.7242   26.2918 -100.1608 C.3       3 GLC5        0.0000 
     48 CA         82.5630   25.3610 -101.2440 C.3       6 GLP5        0.0000 
     49 CA         85.3980   24.3923  -98.7043 C.3       3 GLC5        0.0000 
     50 CA         84.5090   26.6800  -98.5390 C.3       9 GLL5        0.0000 
     51 CA         85.9500   22.5770  -99.4140 C.3       6 GLP5        0.0000 
@<TRIPOS>BOND
@<TRIPOS>SUBSTRUCTURE
     1 ALC1        4 GROUP        1 X    ALC  0     ROOT ALC X 1
     2 SEC2        1 GROUP        1 X    SEC  0     **** SEC X 2
     3 GLC5        7 GROUP        1 X    GLC  0     **** GLC X 6
     4 ALP1        6 GROUP        1 Y    ALP  0     ROOT ALP Y 8
     5 SEP2        3 GROUP        1 Y    SEP  0     **** SEP Y 9
     6 GLP5        9 GROUP        1 Y    GLP  0     **** GLP Y 13
     7 ALL1        5 GROUP        1 Z    ALL  0     ROOT ALL Z 15
     8 SEL2        2 GROUP        1 Z    SEL  0     **** SEL Z 16
     9 GLL5        8 GROUP        1 Z    GLL  0     **** GLL Z 20
@<TRIPOS>SET

