#    Name: 2f59_INI_4_ligand
#    Modification time : Tue Mar 25 12:19:44 2014

@<TRIPOS>MOLECULE
2f59_INI_4_ligand
   35    35     1     0     0
SMALL
NO_CHARGES


@<TRIPOS>ATOM
      1 N1         84.0620   30.9180 -102.6120 N.am      1 INI204      0.0000 
      2 C2         84.3300   31.8410 -103.6000 C.2       1 INI204      0.0000 
      3 O2         85.3750   31.6700 -104.2090 O.2       1 INI204      0.0000 
      4 N3         83.4050   32.8390 -103.7980 N.am      1 INI204      0.0000 
      5 C4         82.2210   32.9910 -103.0720 C.2       1 INI204      0.0000 
      6 O4         81.5210   33.9750 -103.4260 O.2       1 INI204      0.0000 
      7 C5         81.9320   31.9400 -101.9490 C.2       1 INI204      0.0000 
      8 N5         80.6980   32.0850 -101.1800 N.pl3     1 INI204      0.0000 
      9 O51        79.9450   32.9600 -101.3960 O.2       1 INI204      0.0000 
     10 O52        80.4490   31.2860 -100.3050 O.2       1 INI204      0.0000 
     11 C6         82.9410   30.8800 -101.7670 C.2       1 INI204      0.0000 
     12 N7         82.9170   29.7960 -100.8410 N.pl3     1 INI204      0.0000 
     13 C8         83.6170   30.0360  -99.5730 C.3       1 INI204      0.0000 
     14 C9         85.0330   29.3660  -99.4440 C.3       1 INI204      0.0000 
     15 O9         85.7700   29.9450 -100.4940 O.3       1 INI204      0.0000 
     16 C10        85.2620   27.7650  -99.6160 C.3       1 INI204      0.0000 
     17 O10        84.9640   27.3100 -100.8760 O.3       1 INI204      0.0000 
     18 C11        84.5090   26.6800  -98.5390 C.3       1 INI204      0.0000 
     19 O11        83.8560   27.6240  -97.6330 O.3       1 INI204      0.0000 
     20 C12        85.1830   25.7350  -97.4500 C.3       1 INI204      0.0000 
     21 O12        86.5560   25.8330  -97.6520 O.3       1 INI204      0.0000 
     22 H          84.7885   30.1335 -102.4638 H         1 INI204      0.0000 
     23 H          83.5981   33.5561 -104.5620 H         1 INI204      0.0000 
     24 H          82.4718   28.9453 -101.0183 H         1 INI204      0.0000 
     25 H          83.0119   29.6741  -98.7133 H         1 INI204      0.0000 
     26 H          83.7611   31.1250  -99.4015 H         1 INI204      0.0000 
     27 H          85.4763   29.6588  -98.5018 H         1 INI204      0.0000 
     28 H          86.3592   27.5834  -99.4069 H         1 INI204      0.0000 
     29 H          83.7412   26.1772  -99.0640 H         1 INI204      0.0000 
     30 H          84.7813   24.7471  -97.6259 H         1 INI204      0.0000 
     31 H          84.8514   26.1057  -96.4904 H         1 INI204      0.0000 
     32 H          86.0834   29.1727 -101.0465 H         1 INI204      0.0000 
     33 H          85.8001   26.8631 -101.1941 H         1 INI204      0.0000 
     34 H          83.7405   27.1221  -96.7758 H         1 INI204      0.0000 
     35 H          86.6957   26.7426  -98.0432 H         1 INI204      0.0000 
@<TRIPOS>BOND
     1    2    1 1    
     2   11    1 1    
     3   22    1 1    
     4    3    2 2    
     5    4    2 1    
     6    5    4 1    
     7   23    4 1    
     8    6    5 2    
     9    7    5 1    
    10    8    7 1    
    11   11    7 2    
    12    9    8 2    
    13   10    8 2    
    14   12   11 1    
    15   13   12 1    
    16   24   12 1    
    17   14   13 1    
    18   25   13 1    
    19   26   13 1    
    20   15   14 1    
    21   16   14 1    
    22   27   14 1    
    23   32   15 1    
    24   17   16 1    
    25   18   16 1    
    26   28   16 1    
    27   33   17 1    
    28   19   18 1    
    29   20   18 1    
    30   29   18 1    
    31   34   19 1    
    32   21   20 1    
    33   30   20 1    
    34   31   20 1    
    35   35   21 1    
@<TRIPOS>SUBSTRUCTURE
     1 INI204      1 GROUP   
@<TRIPOS>SET

