#    Name: 4aut_FAD_1_INTS_M
#    Modification time : Tue Mar 25 06:16:49 2014

@<TRIPOS>MOLECULE
4aut_FAD_1_INTS_M
  125     0     9     0     0
SMALL
NO_CHARGES


@<TRIPOS>ATOM
      1 N          30.9960   27.3700   69.8835 N.am      2 SEC2        0.0000 
      2 N          29.7070   27.8700   69.3840 N.am      8 SEL2        0.0000 
      3 N          32.2850   26.8700   70.3830 N.am      5 SEP2        0.0000 
      4 N          29.7680   27.2105   70.7820 N.am      2 SEC2        0.0000 
      5 N          29.8290   26.5510   72.1800 N.am      5 SEP2        0.0000 
      6 N          27.6985   29.7140   66.6845 N.am      2 SEC2        0.0000 
      7 N          28.5020   28.8800   67.4100 N.am      8 SEL2        0.0000 
      8 N          26.8950   30.5480   65.9590 N.am      5 SEP2        0.0000 
      9 N          29.8170   29.1345   66.8320 N.am      2 SEC2        0.0000 
     10 N          31.1320   29.3890   66.2540 N.am      5 SEP2        0.0000 
     11 CA         28.8240   26.6425   71.1340 C.3       3 GLC5        0.0000 
     12 CA         27.1970   27.7340   70.8610 C.3       9 GLL5        0.0000 
     13 CA         30.4510   25.5510   71.4070 C.3       6 GLP5        0.0000 
     14 CA         27.0385   26.6810   68.9455 C.3       3 GLC5        0.0000 
     15 CA         26.8800   25.6280   67.0300 C.3       6 GLP5        0.0000 
     16 CA         25.3685   24.8120   70.8400 C.3       3 GLC5        0.0000 
     17 CA         25.0070   26.6790   70.3420 C.3       9 GLL5        0.0000 
     18 CA         25.7300   22.9450   71.3380 C.3       6 GLP5        0.0000 
     19 O          23.2530   27.3580   67.5705 O.2       1 ALC1        0.0000 
     20 O          23.0850   27.0830   68.8580 O.2       7 ALL1        0.0000 
     21 O          23.4210   27.6330   66.2830 O.2       4 ALP1        0.0000 
     22 CA         25.2105   30.4345   71.0640 C.3       3 GLC5        0.0000 
     23 CA         23.8970   28.7480   70.4970 C.3       9 GLL5        0.0000 
     24 CA         26.5240   32.1210   71.6310 C.3       6 GLP5        0.0000 
     25 CA         23.6295   29.5400   72.4195 C.3       3 GLC5        0.0000 
     26 CA         23.3620   30.3320   74.3420 C.3       6 GLP5        0.0000 
     27 CA         23.0950   27.4020   72.0465 C.3       3 GLC5        0.0000 
     28 CA         22.2930   26.0560   73.5960 C.3       6 GLP5        0.0000 
     29 CA         21.9085   28.1310   70.7490 C.3       3 GLC5        0.0000 
     30 CA         19.9200   27.5140   71.0010 C.3       6 GLP5        0.0000 
     31 CA         22.2425   32.7590   66.4615 C.3       3 GLC5        0.0000 
     32 CA         21.5650   32.5440   68.5330 C.3       9 GLL5        0.0000 
     33 CA         22.9200   32.9740   64.3900 C.3       6 GLP5        0.0000 
     34 CA         20.3515   33.8170   69.5010 C.3       3 GLC5        0.0000 
     35 CA         19.1380   35.0900   70.4690 C.3       6 GLP5        0.0000 
     36 O          20.5160   34.5775   67.6235 O.2       1 ALC1        0.0000 
     37 O          21.5730   33.6470   67.7540 O.2       7 ALL1        0.0000 
     38 O          19.4590   35.5080   67.4930 O.2       4 ALP1        0.0000 
     39 N          19.2085   32.8830   68.9995 N.am      2 SEC2        0.0000 
     40 N          20.4370   32.1620   69.1910 N.am      8 SEL2        0.0000 
     41 N          17.9800   33.6040   68.8080 N.am      5 SEP2        0.0000 
     42 CA         20.8425   30.5415   68.0460 C.3       3 GLC5        0.0000 
     43 CA         20.3780   31.0850   70.0080 C.3       9 GLL5        0.0000 
     44 CA         21.3070   29.9980   66.0840 C.3       6 GLP5        0.0000 
     45 CA         20.1490   29.2995   70.5045 C.3       3 GLC5        0.0000 
     46 CA         18.6975   31.4770   68.6915 C.3       3 GLC5        0.0000 
     47 CA         17.0170   31.8690   67.3750 C.3       6 GLP5        0.0000 
     48 CA         19.5560   32.6060   70.8055 C.3       3 GLC5        0.0000 
     49 CA         18.7340   34.1270   71.6030 C.3       6 GLP5        0.0000 
     50 CA         21.2675   29.0525   70.3150 C.3       3 GLC5        0.0000 
     51 CA         22.6150   30.5910   69.6290 C.3       9 GLL5        0.0000 
     52 N          31.6695   31.4155   80.2020 N.am      2 SEC2        0.0000 
     53 N          32.3070   30.3960   79.3590 N.am      8 SEL2        0.0000 
     54 N          31.0320   32.4350   81.0450 N.am      5 SEP2        0.0000 
     55 N          31.3150   29.5790   78.9580 N.am      2 SEC2        0.0000 
     56 N          30.3230   28.7620   78.5570 N.am      5 SEP2        0.0000 
     57 O          34.0195   32.0210   80.2125 O.2       1 ALC1        0.0000 
     58 O          34.5030   30.9440   79.4760 O.2       7 ALL1        0.0000 
     59 O          33.5360   33.0980   80.9490 O.2       4 ALP1        0.0000 
     60 N          37.1960   32.5975   78.4910 N.am      2 SEC2        0.0000 
     61 N          36.6350   31.5420   79.5790 N.am      8 SEL2        0.0000 
     62 N          37.7570   33.6530   77.4030 N.am      5 SEP2        0.0000 
     63 N          37.4120   32.0660   77.1950 N.am      2 SEC2        0.0000 
     64 N          37.0670   30.4790   76.9870 N.am      8 SEL2        0.0000 
     65 CA         40.7895   27.9315   74.2920 C.3       3 GLC5        0.0000 
     66 CA         39.8440   29.4850   73.1670 C.3       9 GLL5        0.0000 
     67 CA         41.7350   26.3780   75.4170 C.3       6 GLP5        0.0000 
     68 CA         38.1075   27.0885   70.7110 C.3       3 GLC5        0.0000 
     69 CA         37.5380   28.3270   71.7870 C.3       9 GLL5        0.0000 
     70 CA         38.6770   25.8500   69.6350 C.3       6 GLP5        0.0000 
     71 CA         36.5415   29.2965   70.5240 C.3       3 GLC5        0.0000 
     72 CA         35.5450   30.2660   69.2610 C.3       6 GLP5        0.0000 
     73 CA         37.0950   26.8735   72.7460 C.3       3 GLC5        0.0000 
     74 CA         36.6520   25.4200   73.7050 C.3       6 GLP5        0.0000 
     75 CA         35.1800   29.2660   71.8615 C.3       3 GLC5        0.0000 
     76 CA         36.0730   28.8210   73.8040 C.3       9 GLL5        0.0000 
     77 CA         34.2870   29.7110   69.9190 C.3       6 GLP5        0.0000 
     78 CA         32.1360   27.4705   75.6625 C.3       3 GLC5        0.0000 
     79 CA         33.4610   28.8230   75.1800 C.3       9 GLL5        0.0000 
     80 CA         30.8110   26.1180   76.1450 C.3       6 GLP5        0.0000 
     81 CA         33.1145   31.6340   73.2030 C.3       3 GLC5        0.0000 
     82 CA         32.7730   29.8740   74.2700 C.3       9 GLL5        0.0000 
     83 CA         33.4560   33.3940   72.1360 C.3       6 GLP5        0.0000 
     84 CA         31.0655   27.7670   75.1120 C.3       3 GLC5        0.0000 
     85 CA         31.3200   29.4160   74.0790 C.3       9 GLL5        0.0000 
     86 O          30.6070   27.3205   72.8255 O.2       1 ALC1        0.0000 
     87 O          31.3850   28.0900   73.4710 O.2       7 ALL1        0.0000 
     88 O          29.8290   26.5510   72.1800 O.2       4 ALP1        0.0000 
     89 CA         32.5780   30.0185   70.8460 C.3       3 GLC5        0.0000 
     90 CA         30.8690   30.3260   71.7730 C.3       9 GLL5        0.0000 
     91 N          31.9515   29.5835   68.5640 N.am      2 SEC2        0.0000 
     92 N          31.0780   30.6180   68.8120 N.am      8 SEL2        0.0000 
     93 N          32.8250   28.5490   68.3160 N.am      5 SEP2        0.0000 
     94 N          29.6665   32.1770   67.5430 N.am      2 SEC2        0.0000 
     95 N          29.3220   32.4860   69.0220 N.am      8 SEL2        0.0000 
     96 N          30.0110   31.8680   66.0640 N.am      5 SEP2        0.0000 
     97 N          29.6325   33.8205   69.2320 N.am      2 SEC2        0.0000 
     98 N          29.9430   35.1550   69.4420 N.am      5 SEP2        0.0000 
     99 CA         26.9675   27.4887   72.9188 C.3       3 GLC5        0.0000 
    100 CA         27.4590   27.3040   74.7530 C.3       6 GLP5        0.0000 
    101 CA         23.8370   26.6010   72.2105 C.3       3 GLC5        0.0000 
    102 CA         25.7550   27.6130   71.3080 C.3       9 GLL5        0.0000 
    103 CA         25.7455   26.3987   68.4783 C.3       3 GLC5        0.0000 
    104 CA         23.0998   33.5198   69.6863 C.3       3 GLC5        0.0000 
    105 CA         22.8000   31.7270   68.7460 C.3       9 GLL5        0.0000 
    106 CA         24.0170   34.9040   70.7330 C.3       6 GLP5        0.0000 
    107 CA         21.8529   30.6806   67.6091 C.3       3 GLC5        0.0000 
    108 CA         38.4722   31.8225   76.2043 C.3       3 GLC5        0.0000 
    109 CA         37.1560   29.9590   75.7560 C.3       9 GLL5        0.0000 
    110 CA         39.1690   33.6660   76.9670 C.3       6 GLP5        0.0000 
    111 CA         37.5243   31.1715   73.9292 C.3       3 GLC5        0.0000 
    112 CA         38.3950   29.9990   75.1270 C.3       9 GLL5        0.0000 
    113 CA         37.2730   32.3640   72.4170 C.3       6 GLP5        0.0000 
    114 CA         38.2240   30.9235   72.9682 C.3       3 GLC5        0.0000 
    115 CA         38.5060   29.4810   73.8720 C.3       9 GLL5        0.0000 
    116 CA         37.3523   30.4857   72.4490 C.3       3 GLC5        0.0000 
    117 CA         37.3250   28.8880   73.1750 C.3       9 GLL5        0.0000 
    118 CA         36.6412   30.7218   73.4283 C.3       3 GLC5        0.0000 
    119 CA         29.1875   29.1983   74.8777 C.3       3 GLC5        0.0000 
    120 CA         27.5000   28.5160   76.1020 C.3       6 GLP5        0.0000 
    121 CA         31.3903   32.1852   72.0828 C.3       3 GLC5        0.0000 
    122 CA         30.4300   30.3450   73.2280 C.3       9 GLL5        0.0000 
    123 CA         32.1310   34.0350   71.6650 C.3       6 GLP5        0.0000 
    124 CA         30.5456   30.8140   75.2976 C.3       3 GLC5        0.0000 
    125 CA         29.8530   31.6330   76.8940 C.3       6 GLP5        0.0000 
@<TRIPOS>BOND
@<TRIPOS>SUBSTRUCTURE
     1 ALC1       19 GROUP        1 X    ALC  0     ROOT ALC X 1
     2 SEC2        1 GROUP        1 X    SEC  0     **** SEC X 2
     3 GLC5       11 GROUP        1 X    GLC  0     **** GLC X 6
     4 ALP1       21 GROUP        1 Y    ALP  0     ROOT ALP Y 8
     5 SEP2        3 GROUP        1 Y    SEP  0     **** SEP Y 9
     6 GLP5       13 GROUP        1 Y    GLP  0     **** GLP Y 13
     7 ALL1       20 GROUP        1 Z    ALL  0     ROOT ALL Z 15
     8 SEL2        2 GROUP        1 Z    SEL  0     **** SEL Z 16
     9 GLL5       12 GROUP        1 Z    GLL  0     **** GLL Z 20
@<TRIPOS>SET

