#    Name: 4aut_FAD_1_ligand
#    Modification time : Tue Mar 25 06:16:49 2014

@<TRIPOS>MOLECULE
4aut_FAD_1_ligand
   84    89     1     0     0
SMALL
NO_CHARGES


@<TRIPOS>ATOM
      1 PA         28.5890   28.7010   68.9160 P.3       1 FAD600      0.0000 
      2 O1A        29.7070   27.8700   69.3840 O.co2     1 FAD600      0.0000 
      3 O2A        28.5020   28.8800   67.4100 O.co2     1 FAD600      0.0000 
      4 O5B        27.2060   28.3380   69.5810 O.3       1 FAD600      0.0000 
      5 C5B        27.1970   27.7340   70.8610 C.3       1 FAD600      0.0000 
      6 C4B        25.7550   27.6130   71.3080 C.3       1 FAD600      0.0000 
      7 O4B        25.0600   28.8730   71.3000 O.3       1 FAD600      0.0000 
      8 C3B        25.0070   26.6790   70.3420 C.3       1 FAD600      0.0000 
      9 O3B        24.1370   25.8170   71.0930 O.3       1 FAD600      0.0000 
     10 C2B        24.2150   27.6600   69.5110 C.3       1 FAD600      0.0000 
     11 O2B        23.0850   27.0830   68.8580 O.3       1 FAD600      0.0000 
     12 C1B        23.8970   28.7480   70.4970 C.3       1 FAD600      0.0000 
     13 N9A        23.7680   29.9800   69.6710 N.pl3     1 FAD600      0.0000 
     14 C8A        24.6640   30.6220   68.8990 C.2       1 FAD600      0.0000 
     15 N7A        24.1060   31.7200   68.3380 N.2       1 FAD600      0.0000 
     16 C5A        22.8000   31.7270   68.7460 C.ar      1 FAD600      0.0000 
     17 C6A        21.5650   32.5440   68.5330 C.ar      1 FAD600      0.0000 
     18 N6A        21.5730   33.6470   67.7540 N.pl3     1 FAD600      0.0000 
     19 N1A        20.4370   32.1620   69.1910 N.ar      1 FAD600      0.0000 
     20 C2A        20.3780   31.0850   70.0080 C.ar      1 FAD600      0.0000 
     21 N3A        21.4440   30.3110   70.2360 N.ar      1 FAD600      0.0000 
     22 C4A        22.6150   30.5910   69.6290 C.ar      1 FAD600      0.0000 
     23 N1         33.5520   29.8870   77.6270 N.2       1 FAD600      0.0000 
     24 C2         33.4400   30.4070   78.8210 C.2       1 FAD600      0.0000 
     25 O2         32.3070   30.3960   79.3590 O.2       1 FAD600      0.0000 
     26 N3         34.5030   30.9440   79.4760 N.am      1 FAD600      0.0000 
     27 C4         35.7050   31.0260   78.9470 C.2       1 FAD600      0.0000 
     28 O4         36.6350   31.5420   79.5790 O.2       1 FAD600      0.0000 
     29 C4X        35.8850   30.4560   77.6120 C.2       1 FAD600      0.0000 
     30 N5         37.0670   30.4790   76.9870 N.2       1 FAD600      0.0000 
     31 C5X        37.1560   29.9590   75.7560 C.ar      1 FAD600      0.0000 
     32 C6         38.3950   29.9990   75.1270 C.ar      1 FAD600      0.0000 
     33 C7         38.5060   29.4810   73.8720 C.ar      1 FAD600      0.0000 
     34 C7M        39.8440   29.4850   73.1670 C.3       1 FAD600      0.0000 
     35 C8         37.3250   28.8880   73.1750 C.ar      1 FAD600      0.0000 
     36 C8M        37.5380   28.3270   71.7870 C.3       1 FAD600      0.0000 
     37 C9         36.0730   28.8210   73.8040 C.ar      1 FAD600      0.0000 
     38 C9A        35.9460   29.3380   75.0750 C.ar      1 FAD600      0.0000 
     39 N10        34.7170   29.3490   75.7420 N.pl3     1 FAD600      0.0000 
     40 C10        34.6970   29.8860   76.9910 C.2       1 FAD600      0.0000 
     41 C1'        33.4610   28.8230   75.1800 C.3       1 FAD600      0.0000 
     42 C2'        32.7730   29.8740   74.2700 C.3       1 FAD600      0.0000 
     43 O2'        32.7540   31.1130   74.9940 O.3       1 FAD600      0.0000 
     44 C3'        31.3200   29.4160   74.0790 C.3       1 FAD600      0.0000 
     45 O3'        31.3850   28.0900   73.4710 O.3       1 FAD600      0.0000 
     46 C4'        30.4300   30.3450   73.2280 C.3       1 FAD600      0.0000 
     47 O4'        29.1300   29.7410   73.2060 O.3       1 FAD600      0.0000 
     48 C5'        30.8690   30.3260   71.7730 C.3       1 FAD600      0.0000 
     49 O5'        30.2480   31.4010   71.0850 O.3       1 FAD600      0.0000 
     50 P          29.9160   31.2070   69.5610 P.3       1 FAD600      0.0000 
     51 O1P        31.0780   30.6180   68.8120 O.co2     1 FAD600      0.0000 
     52 O2P        29.3220   32.4860   69.0220 O.co2     1 FAD600      0.0000 
     53 O3P        28.6960   30.1190   69.6750 O.3       1 FAD600      0.0000 
     54 H          27.7314   28.3325   71.6010 H         1 FAD600      0.0000 
     55 H          27.6314   26.7328   70.8454 H         1 FAD600      0.0000 
     56 H          25.7209   27.1544   72.2815 H         1 FAD600      0.0000 
     57 H          25.7043   26.1889   69.7465 H         1 FAD600      0.0000 
     58 H          24.9290   28.0909   68.7918 H         1 FAD600      0.0000 
     59 H          23.0395   28.5354   71.0092 H         1 FAD600      0.0000 
     60 H          25.5906   30.3381   68.7599 H         1 FAD600      0.0000 
     61 H          22.4487   34.1233   67.6747 H         1 FAD600      0.0000 
     62 H          20.7025   33.8896   67.3257 H         1 FAD600      0.0000 
     63 H          19.4592   30.8547   70.4763 H         1 FAD600      0.0000 
     64 H          34.3364   31.3109   80.4638 H         1 FAD600      0.0000 
     65 H          39.1989   30.4116   75.6075 H         1 FAD600      0.0000 
     66 H          35.2822   28.3973   73.3223 H         1 FAD600      0.0000 
     67 H          32.7581   28.5581   75.9752 H         1 FAD600      0.0000 
     68 H          33.6470   27.9294   74.5771 H         1 FAD600      0.0000 
     69 H          33.2602   29.9219   73.3611 H         1 FAD600      0.0000 
     70 H          30.8702   29.3187   75.0701 H         1 FAD600      0.0000 
     71 H          30.4235   31.3013   73.6051 H         1 FAD600      0.0000 
     72 H          30.5902   29.3543   71.3505 H         1 FAD600      0.0000 
     73 H          31.9617   30.4026   71.7506 H         1 FAD600      0.0000 
     74 H          40.1985   30.4125   73.0484 H         1 FAD600      0.0000 
     75 H          40.5338   28.9705   73.6764 H         1 FAD600      0.0000 
     76 H          39.7854   29.0750   72.2568 H         1 FAD600      0.0000 
     77 H          37.8620   29.0261   71.1496 H         1 FAD600      0.0000 
     78 H          38.2150   27.5910   71.7837 H         1 FAD600      0.0000 
     79 H          36.6940   27.9505   71.4050 H         1 FAD600      0.0000 
     80 H          23.3146   25.7265   70.5313 H         1 FAD600      0.0000 
     81 H          23.4120   26.8347   67.9462 H         1 FAD600      0.0000 
     82 H          32.4922   30.8638   75.9264 H         1 FAD600      0.0000 
     83 H          30.4711   27.9318   73.0970 H         1 FAD600      0.0000 
     84 H          28.8096   29.8509   72.2651 H         1 FAD600      0.0000 
@<TRIPOS>BOND
     1    2    1 ar   
     2    3    1 ar   
     3    4    1 1    
     4   53    1 1    
     5    5    4 1    
     6    6    5 1    
     7   54    5 1    
     8   55    5 1    
     9    7    6 1    
    10    8    6 1    
    11   56    6 1    
    12   12    7 1    
    13    9    8 1    
    14   10    8 1    
    15   57    8 1    
    16   80    9 1    
    17   11   10 1    
    18   12   10 1    
    19   58   10 1    
    20   81   11 1    
    21   13   12 1    
    22   59   12 1    
    23   14   13 1    
    24   22   13 1    
    25   15   14 2    
    26   60   14 1    
    27   16   15 1    
    28   17   16 ar   
    29   22   16 ar   
    30   18   17 1    
    31   19   17 ar   
    32   61   18 1    
    33   62   18 1    
    34   20   19 ar   
    35   21   20 ar   
    36   63   20 1    
    37   22   21 ar   
    38   24   23 1    
    39   40   23 2    
    40   25   24 2    
    41   26   24 am   
    42   27   26 am   
    43   64   26 1    
    44   28   27 2    
    45   29   27 1    
    46   30   29 2    
    47   40   29 1    
    48   31   30 1    
    49   32   31 ar   
    50   38   31 ar   
    51   33   32 ar   
    52   65   32 1    
    53   34   33 1    
    54   35   33 ar   
    55   74   34 1    
    56   75   34 1    
    57   76   34 1    
    58   36   35 1    
    59   37   35 ar   
    60   77   36 1    
    61   78   36 1    
    62   79   36 1    
    63   38   37 ar   
    64   66   37 1    
    65   39   38 1    
    66   40   39 1    
    67   41   39 1    
    68   42   41 1    
    69   67   41 1    
    70   68   41 1    
    71   43   42 1    
    72   44   42 1    
    73   69   42 1    
    74   82   43 1    
    75   45   44 1    
    76   46   44 1    
    77   70   44 1    
    78   83   45 1    
    79   47   46 1    
    80   48   46 1    
    81   71   46 1    
    82   84   47 1    
    83   49   48 1    
    84   72   48 1    
    85   73   48 1    
    86   50   49 1    
    87   51   50 ar   
    88   52   50 ar   
    89   53   50 1    
@<TRIPOS>SUBSTRUCTURE
     1 FAD600      1 GROUP   
@<TRIPOS>SET

