#    Name: 1ivq_0PX_1_INTS_M
#    Modification time : Tue Mar 25 08:12:12 2014

@<TRIPOS>MOLECULE
1ivq_0PX_1_INTS_M
   87     0     9     0     0
SMALL
NO_CHARGES


@<TRIPOS>ATOM
      1 N           0.4275   24.6720   24.2905 N.am      2 SEC2        0.0000 
      2 N          -0.7050   23.8550   23.4910 N.am      8 SEL2        0.0000 
      3 N           1.5600   25.4890   25.0900 N.am      5 SEP2        0.0000 
      4 CA         -4.5165   19.3970   22.7975 C.3       3 GLC5        0.0000 
      5 CA         -5.9240   20.9500   22.3910 C.3       9 GLL5        0.0000 
      6 CA         -3.1090   17.8440   23.2040 C.3       6 GLP5        0.0000 
      7 O          -2.0120   20.7595   24.3130 O.2       1 ALC1        0.0000 
      8 O          -1.0370   21.6280   23.4590 O.2       7 ALL1        0.0000 
      9 O          -2.9870   19.8910   25.1670 O.2       4 ALP1        0.0000 
     10 CA          1.5925   22.6565   23.5500 C.3       3 GLC5        0.0000 
     11 CA          0.3770   21.1990   23.5220 C.3       9 GLL5        0.0000 
     12 CA          2.8080   24.1140   23.5780 C.3       6 GLP5        0.0000 
     13 CA          2.2145   21.8355   24.5290 C.3       3 GLC5        0.0000 
     14 CA          0.7170   20.6430   24.8890 C.3       9 GLL5        0.0000 
     15 CA          3.7120   23.0280   24.1690 C.3       6 GLP5        0.0000 
     16 CA          0.9440   19.8975   26.8320 C.3       3 GLC5        0.0000 
     17 CA          1.1710   19.1520   28.7750 C.3       6 GLP5        0.0000 
     18 CA          2.4020   19.9030   25.3465 C.3       3 GLC5        0.0000 
     19 CA          4.0870   19.1630   25.8040 C.3       6 GLP5        0.0000 
     20 N           1.6900   23.6630   27.0300 N.am      2 SEC2        0.0000 
     21 N           1.4060   22.3930   26.3260 N.am      8 SEL2        0.0000 
     22 N           1.9740   24.9330   27.7340 N.am      5 SEP2        0.0000 
     23 O          -0.6285   22.8210   27.6460 O.2       1 ALC1        0.0000 
     24 O          -0.7240   21.6370   26.6110 O.2       7 ALL1        0.0000 
     25 O          -0.5330   24.0050   28.6810 O.2       4 ALP1        0.0000 
     26 O          -1.8555   20.7640   25.8890 O.2       1 ALC1        0.0000 
     27 O           1.5275   22.1155   21.0575 O.2       1 ALC1        0.0000 
     28 O           1.0580   20.7520   21.3030 O.2       7 ALL1        0.0000 
     29 O           1.9970   23.4790   20.8120 O.2       4 ALP1        0.0000 
     30 CA         -0.2780   23.6470   18.3715 C.3       3 GLC5        0.0000 
     31 CA         -1.2980   22.2280   19.3780 C.3       9 GLL5        0.0000 
     32 CA          0.7420   25.0660   17.3650 C.3       6 GLP5        0.0000 
     33 CA         -2.2760   17.9480   18.7955 C.3       3 GLC5        0.0000 
     34 CA         -1.9630   19.8110   18.9230 C.3       9 GLL5        0.0000 
     35 CA         -2.5890   16.0850   18.6680 C.3       6 GLP5        0.0000 
     36 CA         -3.2675   18.4485   17.8780 C.3       3 GLC5        0.0000 
     37 CA         -3.3410   20.3190   18.4440 C.3       9 GLL5        0.0000 
     38 CA         -3.1940   16.5780   17.3120 C.3       6 GLP5        0.0000 
     39 CA         -5.2975   20.4060   17.7995 C.3       3 GLC5        0.0000 
     40 CA         -7.2540   20.4930   17.1550 C.3       6 GLP5        0.0000 
     41 CA         -5.5575   21.5870   18.6965 C.3       3 GLC5        0.0000 
     42 CA         -3.7750   21.5810   19.2160 C.3       9 GLL5        0.0000 
     43 CA         -7.3400   21.5930   18.1770 C.3       6 GLP5        0.0000 
     44 O           4.3795   21.4310   19.1980 O.2       1 ALC1        0.0000 
     45 O           3.5990   20.2980   20.2190 O.2       7 ALL1        0.0000 
     46 O           5.1600   22.5640   18.1770 O.2       4 ALP1        0.0000 
     47 O           3.4615   20.9275   18.8490 O.2       1 ALC1        0.0000 
     48 O           3.3240   21.5570   17.4790 O.2       4 ALP1        0.0000 
     49 CA          7.3850   16.6150   21.5670 C.3       3 GLC5        0.0000 
     50 CA          5.7700   15.9210   21.2610 C.3       9 GLL5        0.0000 
     51 CA          9.0000   17.3090   21.8730 C.3       6 GLP5        0.0000 
     52 CA          3.1455   13.5775   23.1410 C.3       3 GLC5        0.0000 
     53 CA          3.4040   15.5400   22.0860 C.3       9 GLL5        0.0000 
     54 CA          2.8870   11.6150   24.1960 C.3       6 GLP5        0.0000 
     55 CA          1.9675   14.1800   21.5625 C.3       3 GLC5        0.0000 
     56 CA          0.5310   12.8200   21.0390 C.3       6 GLP5        0.0000 
     57 CA          1.9410   15.6655   23.5910 C.3       3 GLC5        0.0000 
     58 CA          0.4780   15.7910   25.0960 C.3       6 GLP5        0.0000 
     59 CA          3.7275   17.9735   15.1290 C.3       3 GLC5        0.0000 
     60 CA          2.5830   16.8560   15.2660 C.3       9 GLL5        0.0000 
     61 CA          4.8720   19.0910   14.9920 C.3       6 GLP5        0.0000 
     62 CA         -0.0230   18.1935   16.0150 C.3       3 GLC5        0.0000 
     63 CA          0.8420   16.3720   16.9770 C.3       9 GLL5        0.0000 
     64 CA         -0.8880   20.0150   15.0530 C.3       6 GLP5        0.0000 
     65 CA         -0.0330   15.1500   13.7910 C.3       3 GLC5        0.0000 
     66 CA          1.2790   14.7730   14.9960 C.3       9 GLL5        0.0000 
     67 CA         -1.3450   15.5270   12.5860 C.3       6 GLP5        0.0000 
     68 CA          1.3690   13.2675   14.4345 C.3       3 GLC5        0.0000 
     69 CA          1.4590   11.7620   13.8730 C.3       6 GLP5        0.0000 
     70 CA         -7.3535   22.2715   20.1288 C.3       3 GLC5        0.0000 
     71 CA         -7.7800   22.4070   21.9680 C.3       9 GLL5        0.0000 
     72 CA         -6.9657   21.3165   20.2025 C.3       3 GLC5        0.0000 
     73 CA         -7.2590   21.1300   22.0650 C.3       9 GLL5        0.0000 
     74 CA         -5.3933   20.4408   24.2252 C.3       3 GLC5        0.0000 
     75 CA         -5.2650   19.3900   25.9300 C.3       6 GLP5        0.0000 
     76 CA         -0.5205   20.3522   16.9352 C.3       3 GLC5        0.0000 
     77 CA         -0.8830   20.8890   18.7500 C.3       9 GLL5        0.0000 
     78 CA         -1.7700   20.0400   16.8682 C.3       3 GLC5        0.0000 
     79 CA         -3.8395   23.4615   17.6815 C.3       3 GLC5        0.0000 
     80 CA         -4.4320   24.7880   16.2500 C.3       6 GLP5        0.0000 
     81 CA          5.8042   17.2238   22.9880 C.3       3 GLC5        0.0000 
     82 CA          6.5540   18.2820   24.7080 C.3       6 GLP5        0.0000 
     83 CA          5.5566   15.1459   22.7700 C.3       3 GLC5        0.0000 
     84 CA          4.3390   16.4100   21.2750 C.3       9 GLL5        0.0000 
     85 CA          6.8840   14.4390   23.8630 C.3       6 GLP5        0.0000 
     86 CA         -0.4324   16.2188   15.9826 C.3       3 GLC5        0.0000 
     87 CA         -2.1830   17.0280   16.2150 C.3       6 GLP5        0.0000 
@<TRIPOS>BOND
@<TRIPOS>SUBSTRUCTURE
     1 ALC1        7 GROUP        1 X    ALC  0     ROOT ALC X 1
     2 SEC2        1 GROUP        1 X    SEC  0     **** SEC X 2
     3 GLC5        4 GROUP        1 X    GLC  0     **** GLC X 6
     4 ALP1        9 GROUP        1 Y    ALP  0     ROOT ALP Y 8
     5 SEP2        3 GROUP        1 Y    SEP  0     **** SEP Y 9
     6 GLP5        6 GROUP        1 Y    GLP  0     **** GLP Y 13
     7 ALL1        8 GROUP        1 Z    ALL  0     ROOT ALL Z 15
     8 SEL2        2 GROUP        1 Z    SEL  0     **** SEL Z 16
     9 GLL5        5 GROUP        1 Z    GLL  0     **** GLL Z 20
@<TRIPOS>SET

