#    Name: 1ivq_0PX_1_ligand
#    Modification time : Tue Mar 25 08:12:12 2014

@<TRIPOS>MOLECULE
1ivq_0PX_1_ligand
   95    97     1     0     0
SMALL
NO_CHARGES


@<TRIPOS>ATOM
      1 O          -0.7050   23.8550   23.4910 O.2       1 0PX100      0.0000 
      2 C          -1.4620   22.8670   23.4430 C.2       1 0PX100      0.0000 
      3 N1         -3.8310   21.8550   23.0180 N.ar      1 0PX100      0.0000 
      4 C2         -2.9450   22.9890   23.3790 C.ar      1 0PX100      0.0000 
      5 C3         -3.7730   24.1890   23.6930 C.ar      1 0PX100      0.0000 
      6 C4         -4.7710   24.4830   22.8210 C.ar      1 0PX100      0.0000 
      7 C4A        -5.6350   23.3160   22.5610 C.ar      1 0PX100      0.0000 
      8 C5         -6.9540   23.4930   22.1930 C.ar      1 0PX100      0.0000 
      9 C6         -7.7800   22.4070   21.9680 C.ar      1 0PX100      0.0000 
     10 C7         -7.2590   21.1300   22.0650 C.ar      1 0PX100      0.0000 
     11 C8         -5.9240   20.9500   22.3910 C.ar      1 0PX100      0.0000 
     12 C8A        -5.1190   22.0330   22.6500 C.ar      1 0PX100      0.0000 
     13 N          -1.0370   21.6280   23.4590 N.am      1 0PX100      0.0000 
     14 CA          0.3770   21.1990   23.5220 C.3       1 0PX100      0.0000 
     15 C1          0.4870   20.1840   22.3630 C.2       1 0PX100      0.0000 
     16 O1          0.0270   19.0360   22.4640 O.2       1 0PX100      0.0000 
     17 CB          0.7170   20.6430   24.8890 C.3       1 0PX100      0.0000 
     18 CG          0.4710   21.6360   26.0090 C.2       1 0PX100      0.0000 
     19 OD1         1.4060   22.3930   26.3260 O.2       1 0PX100      0.0000 
     20 ND2        -0.7240   21.6370   26.6110 N.am      1 0PX100      0.0000 
     21 N2          1.0580   20.7520   21.3030 N.am      1 0PX100      0.0000 
     22 CA1         1.2490   20.0590   20.0240 C.3       1 0PX100      0.0000 
     23 CB1         0.5770   20.4900   18.8850 C.3       1 0PX100      0.0000 
     24 CG1        -0.8830   20.8890   18.7500 C.3       1 0PX100      0.0000 
     25 CD1        -1.2980   22.2280   19.3780 C.3       1 0PX100      0.0000 
     26 CD2        -1.9630   19.8110   18.9230 C.3       1 0PX100      0.0000 
     27 CE1        -2.7190   22.6890   19.0100 C.3       1 0PX100      0.0000 
     28 CE2        -3.3410   20.3190   18.4440 C.3       1 0PX100      0.0000 
     29 CZ         -3.7750   21.5810   19.2160 C.3       1 0PX100      0.0000 
     30 CH          2.6800   19.5110   19.8990 C.3       1 0PX100      0.0000 
     31 OH          3.5990   20.2980   20.2190 O.3       1 0PX100      0.0000 
     32 CB11        2.6810   18.1850   20.6320 C.3       1 0PX100      0.0000 
     33 CA'         3.7040   17.1610   20.0340 C.3       1 0PX100      0.0000 
     34 CB'         4.3390   16.4100   21.2750 C.3       1 0PX100      0.0000 
     35 CG11        5.7700   15.9210   21.2610 C.3       1 0PX100      0.0000 
     36 CG2         3.4040   15.5400   22.0860 C.3       1 0PX100      0.0000 
     37 C9          2.9470   16.1580   19.1440 C.2       1 0PX100      0.0000 
     38 O2          1.9280   15.5520   19.5430 O.2       1 0PX100      0.0000 
     39 N3          3.4380   15.9240   17.9510 N.am      1 0PX100      0.0000 
     40 C11         2.8340   14.9600   17.0030 C.3       1 0PX100      0.0000 
     41 C21         1.8730   15.7200   16.0320 C.3       1 0PX100      0.0000 
     42 C31         2.5830   16.8560   15.2660 C.3       1 0PX100      0.0000 
     43 C41         0.8420   16.3720   16.9770 C.3       1 0PX100      0.0000 
     44 C51         1.2790   14.7730   14.9960 C.3       1 0PX100      0.0000 
     45 H          -3.5542   24.7052   24.5143 H         1 0PX100      0.0000 
     46 H          -4.9465   25.3285   22.3913 H         1 0PX100      0.0000 
     47 H          -7.3313   24.4531   22.0836 H         1 0PX100      0.0000 
     48 H          -8.7683   22.5474   21.7318 H         1 0PX100      0.0000 
     49 H          -7.8615   20.3118   21.8954 H         1 0PX100      0.0000 
     50 H          -5.5361   19.9919   22.4383 H         1 0PX100      0.0000 
     51 H          -1.7226   20.8061   23.4257 H         1 0PX100      0.0000 
     52 H           1.0027   22.0381   23.2822 H         1 0PX100      0.0000 
     53 H           1.7748   20.3398   24.9030 H         1 0PX100      0.0000 
     54 H           0.1162   19.7392   25.0713 H         1 0PX100      0.0000 
     55 H          -1.4020   21.0000   26.2442 H         1 0PX100      0.0000 
     56 H          -0.8319   22.2746   27.3737 H         1 0PX100      0.0000 
     57 H           1.4075   21.7421   21.3269 H         1 0PX100      0.0000 
     58 H           0.6754   18.9745   20.2935 H         1 0PX100      0.0000 
     59 H           0.7547   19.7104   18.0088 H         1 0PX100      0.0000 
     60 H           1.1774   21.3875   18.3941 H         1 0PX100      0.0000 
     61 H          -0.9865   21.1452   17.5703 H         1 0PX100      0.0000 
     62 H          -0.5814   23.0051   19.0658 H         1 0PX100      0.0000 
     63 H          -1.2254   22.1447   20.4747 H         1 0PX100      0.0000 
     64 H          -2.0331   19.5374   19.9733 H         1 0PX100      0.0000 
     65 H          -1.6898   18.9320   18.3437 H         1 0PX100      0.0000 
     66 H          -2.7337   23.0007   17.9620 H         1 0PX100      0.0000 
     67 H          -2.9863   23.5511   19.6272 H         1 0PX100      0.0000 
     68 H          -4.0803   19.5357   18.5965 H         1 0PX100      0.0000 
     69 H          -3.2838   20.5520   17.3829 H         1 0PX100      0.0000 
     70 H          -4.7257   21.9216   18.8381 H         1 0PX100      0.0000 
     71 H          -3.8471   21.3498   20.2668 H         1 0PX100      0.0000 
     72 H           2.7235   19.1895   18.7943 H         1 0PX100      0.0000 
     73 H           1.6852   17.7323   20.5871 H         1 0PX100      0.0000 
     74 H           2.9359   18.3403   21.6853 H         1 0PX100      0.0000 
     75 H           4.4433   17.6627   19.5148 H         1 0PX100      0.0000 
     76 H           4.4428   17.3793   22.0671 H         1 0PX100      0.0000 
     77 H           4.2970   16.4067   17.5852 H         1 0PX100      0.0000 
     78 H           2.2509   14.2105   17.5268 H         1 0PX100      0.0000 
     79 H           3.5951   14.4738   16.4026 H         1 0PX100      0.0000 
     80 H           6.4174   16.6708   21.1246 H         1 0PX100      0.0000 
     81 H           6.0176   15.4725   22.1198 H         1 0PX100      0.0000 
     82 H           5.9292   15.2594   20.5283 H         1 0PX100      0.0000 
     83 H           3.8761   15.0974   22.8484 H         1 0PX100      0.0000 
     84 H           2.6494   16.0682   22.4755 H         1 0PX100      0.0000 
     85 H           2.9979   14.8137   21.5314 H         1 0PX100      0.0000 
     86 H           2.9658   17.5400   15.8870 H         1 0PX100      0.0000 
     87 H           3.3378   16.5121   14.7075 H         1 0PX100      0.0000 
     88 H           1.9580   17.3361   14.6505 H         1 0PX100      0.0000 
     89 H           1.2759   16.9979   17.6250 H         1 0PX100      0.0000 
     90 H           0.1580   16.8995   16.4732 H         1 0PX100      0.0000 
     91 H           0.3477   15.6893   17.5151 H         1 0PX100      0.0000 
     92 H           1.9877   14.3402   14.4389 H         1 0PX100      0.0000 
     93 H           0.7525   14.0380   15.4233 H         1 0PX100      0.0000 
     94 H           0.6625   15.2485   14.3684 H         1 0PX100      0.0000 
     95 H           3.6586   20.9478   19.4613 H         1 0PX100      0.0000 
@<TRIPOS>BOND
     1    2    1 2    
     2    4    2 1    
     3   13    2 am   
     4    4    3 ar   
     5   12    3 ar   
     6    5    4 ar   
     7    6    5 ar   
     8   45    5 1    
     9    7    6 ar   
    10   46    6 1    
    11    8    7 ar   
    12   12    7 ar   
    13    9    8 ar   
    14   47    8 1    
    15   10    9 ar   
    16   48    9 1    
    17   11   10 ar   
    18   49   10 1    
    19   12   11 ar   
    20   50   11 1    
    21   14   13 1    
    22   51   13 1    
    23   15   14 1    
    24   17   14 1    
    25   52   14 1    
    26   16   15 2    
    27   21   15 am   
    28   18   17 1    
    29   53   17 1    
    30   54   17 1    
    31   19   18 2    
    32   20   18 am   
    33   55   20 1    
    34   56   20 1    
    35   22   21 1    
    36   57   21 1    
    37   23   22 1    
    38   30   22 1    
    39   58   22 1    
    40   24   23 1    
    41   59   23 1    
    42   60   23 1    
    43   25   24 1    
    44   26   24 1    
    45   61   24 1    
    46   27   25 1    
    47   62   25 1    
    48   63   25 1    
    49   28   26 1    
    50   64   26 1    
    51   65   26 1    
    52   29   27 1    
    53   66   27 1    
    54   67   27 1    
    55   29   28 1    
    56   68   28 1    
    57   69   28 1    
    58   70   29 1    
    59   71   29 1    
    60   31   30 1    
    61   32   30 1    
    62   72   30 1    
    63   95   31 1    
    64   33   32 1    
    65   73   32 1    
    66   74   32 1    
    67   34   33 1    
    68   37   33 1    
    69   75   33 1    
    70   35   34 1    
    71   36   34 1    
    72   76   34 1    
    73   80   35 1    
    74   81   35 1    
    75   82   35 1    
    76   83   36 1    
    77   84   36 1    
    78   85   36 1    
    79   38   37 2    
    80   39   37 am   
    81   40   39 1    
    82   77   39 1    
    83   41   40 1    
    84   78   40 1    
    85   79   40 1    
    86   42   41 1    
    87   43   41 1    
    88   44   41 1    
    89   86   42 1    
    90   87   42 1    
    91   88   42 1    
    92   89   43 1    
    93   90   43 1    
    94   91   43 1    
    95   92   44 1    
    96   93   44 1    
    97   94   44 1    
@<TRIPOS>SUBSTRUCTURE
     1 0PX100      1 GROUP   
@<TRIPOS>SET

