#    Name: 2qpk_SHA_1_INTS_M
#    Modification time : Mon Mar 24 22:35:08 2014

@<TRIPOS>MOLECULE
2qpk_SHA_1_INTS_M
   14     0     9     0     0
SMALL
NO_CHARGES


@<TRIPOS>ATOM
      1 CA          4.9365    5.4205   29.5585 C.3       3 GLC5        0.0000 
      2 CA          4.3120    3.4830   30.4970 C.3       9 GLL5        0.0000 
      3 CA          5.5610    7.3580   28.6200 C.3       6 GLP5        0.0000 
      4 N           7.3875    3.6580   25.7050 N.am      2 SEC2        0.0000 
      5 N           7.2580    2.4270   26.5580 N.am      8 SEL2        0.0000 
      6 N           7.5170    4.8890   24.8520 N.am      5 SEP2        0.0000 
      7 O           6.4490    2.0225   25.6965 O.2       1 ALC1        0.0000 
      8 O           7.2580    2.4270   26.5580 O.2       7 ALL1        0.0000 
      9 O           5.6400    1.6180   24.8350 O.2       4 ALP1        0.0000 
     10 CA          3.9115    1.1365   29.0202 C.3       3 GLC5        0.0000 
     11 CA          5.1190    2.5860   29.6830 C.3       9 GLL5        0.0000 
     12 CA          2.8660    0.9510   27.4640 C.3       6 GLP5        0.0000 
     13 CA          2.9875    2.6493   29.4737 C.3       3 GLC5        0.0000 
     14 CA          1.9440    2.1020   27.8940 C.3       6 GLP5        0.0000 
@<TRIPOS>BOND
@<TRIPOS>SUBSTRUCTURE
     1 ALC1        7 GROUP        1 X    ALC  0     ROOT ALC X 1
     2 SEC2        4 GROUP        1 X    SEC  0     **** SEC X 2
     3 GLC5        1 GROUP        1 X    GLC  0     **** GLC X 6
     4 ALP1        9 GROUP        1 Y    ALP  0     ROOT ALP Y 8
     5 SEP2        6 GROUP        1 Y    SEP  0     **** SEP Y 9
     6 GLP5        3 GROUP        1 Y    GLP  0     **** GLP Y 13
     7 ALL1        8 GROUP        1 Z    ALL  0     ROOT ALL Z 15
     8 SEL2        5 GROUP        1 Z    SEL  0     **** SEL Z 16
     9 GLL5        2 GROUP        1 Z    GLL  0     **** GLL Z 20
@<TRIPOS>SET

