#    Name: 2qpk_SHA_1_ligand
#    Modification time : Mon Mar 24 22:35:08 2014

@<TRIPOS>MOLECULE
2qpk_SHA_1_ligand
   18    18     1     0     0
SMALL
NO_CHARGES


@<TRIPOS>ATOM
      1 C1          5.1190    2.5860   29.6830 C.ar      1 SHA616      0.0000 
      2 C2          5.2810    1.2460   30.0950 C.ar      1 SHA616      0.0000 
      3 C3          4.7140    0.7280   31.2640 C.ar      1 SHA616      0.0000 
      4 C4          3.9970    1.6190   32.0420 C.ar      1 SHA616      0.0000 
      5 C5          3.7500    2.9100   31.6100 C.ar      1 SHA616      0.0000 
      6 C6          4.3120    3.4830   30.4970 C.ar      1 SHA616      0.0000 
      7 O6          4.0610    4.7920   30.2430 O.3       1 SHA616      0.0000 
      8 C7          5.7440    3.0650   28.4580 C.2       1 SHA616      0.0000 
      9 O7          5.5700    4.1590   28.1240 O.2       1 SHA616      0.0000 
     10 N8          6.5130    2.2000   27.7660 N.am      1 SHA616      0.0000 
     11 O9          7.2580    2.4270   26.5580 O.3       1 SHA616      0.0000 
     12 H           5.8555    0.6117   29.4917 H         1 SHA616      0.0000 
     13 H           4.8252   -0.2350   31.5169 H         1 SHA616      0.0000 
     14 H           3.6373    1.3134   32.9676 H         1 SHA616      0.0000 
     15 H           3.0737    3.4983   32.1865 H         1 SHA616      0.0000 
     16 H           6.6021    1.1826   28.1488 H         1 SHA616      0.0000 
     17 H           4.5025    4.9743   29.3645 H         1 SHA616      0.0000 
     18 H           6.8132    1.8553   25.8685 H         1 SHA616      0.0000 
@<TRIPOS>BOND
     1    2    1 ar   
     2    6    1 ar   
     3    8    1 1    
     4    3    2 ar   
     5   12    2 1    
     6    4    3 ar   
     7   13    3 1    
     8    5    4 ar   
     9   14    4 1    
    10    6    5 ar   
    11   15    5 1    
    12    7    6 1    
    13   17    7 1    
    14    9    8 2    
    15   10    8 am   
    16   11   10 1    
    17   16   10 1    
    18   18   11 1    
@<TRIPOS>SUBSTRUCTURE
     1 SHA616      1 GROUP   
@<TRIPOS>SET

