#    Name: 1br2_ADP_6_INTS_M
#    Modification time : Mon Mar 24 19:47:20 2014

@<TRIPOS>MOLECULE
1br2_ADP_6_INTS_M
   58     0    15     0     0
SMALL
NO_CHARGES


@<TRIPOS>ATOM
      1 NZ         78.2455   99.4265   31.8350 N.4       3 LYC4        0.0000 
      2 NZ         78.8640   99.8660   32.9610 N.4      13 LYL4        0.0000 
      3 NZ         77.6270   98.9870   30.7090 N.4       8 LYP4        0.0000 
      4 N          79.9585   98.8965   33.8670 N.am      2 SEC2        0.0000 
      5 N          78.8640   99.8660   32.9610 N.am     12 SEL2        0.0000 
      6 N          81.0530   97.9270   34.7730 N.am      7 SEP2        0.0000 
      7 N          80.4305   99.5020   32.7525 N.am      2 SEC2        0.0000 
      8 N          81.9970   99.1380   32.5440 N.am      7 SEP2        0.0000 
      9 N          78.2455   99.4265   31.8350 N.am      2 SEC2        0.0000 
     10 N          77.6270   98.9870   30.7090 N.am      7 SEP2        0.0000 
     11 Zn         79.6615  103.1215   32.4925 Zn        4 ZIC7        0.0000 
     12 Zn         79.9210  102.1170   32.8450 Zn       14 ZIL7        0.0000 
     13 Zn         79.4020  104.1260   32.1400 Zn        9 ZIP7        0.0000 
     14 N          81.3270  102.0205   32.4480 N.am      2 SEC2        0.0000 
     15 N          79.9210  102.1170   32.8450 N.am     12 SEL2        0.0000 
     16 N          82.7330  101.9240   32.0510 N.am      7 SEP2        0.0000 
     17 N          77.1965  100.4435   34.9620 N.am      2 SEC2        0.0000 
     18 N          78.0050  101.7130   34.3060 N.am     12 SEL2        0.0000 
     19 N          76.3880   99.1740   35.6180 N.am      7 SEP2        0.0000 
     20 N          77.8345  102.3920   35.6925 N.am      2 SEC2        0.0000 
     21 N          77.6640  103.0710   37.0790 N.am      7 SEP2        0.0000 
     22 N          78.5975  103.1765   34.2210 N.am      2 SEC2        0.0000 
     23 N          79.1900  104.6400   34.1360 N.am      7 SEP2        0.0000 
     24 N          83.5530  102.2065   34.6110 N.am      2 SEC2        0.0000 
     25 N          82.2810  101.8720   35.1690 N.am     12 SEL2        0.0000 
     26 N          84.8250  102.5410   34.0530 N.am      7 SEP2        0.0000 
     27 N          79.0180  103.0405   36.5840 N.am      2 SEC2        0.0000 
     28 N          80.3720  103.0100   36.0890 N.am     12 SEL2        0.0000 
     29 CA         78.8570  100.2415   37.5720 C.3       5 GLC5        0.0000 
     30 CA         80.5130  101.5020   38.3380 C.3      15 GLL5        0.0000 
     31 CA         77.2010   98.9810   36.8060 C.3      10 GLP5        0.0000 
     32 CA         80.5135   99.9240   40.8405 C.3       5 GLC5        0.0000 
     33 CA         81.1880  101.3820   39.6730 C.3      15 GLL5        0.0000 
     34 CA         79.8390   98.4660   42.0080 C.3      10 GLP5        0.0000 
     35 N          81.5965   98.8060   39.4215 N.am      2 SEC2        0.0000 
     36 N          81.9010  100.1270   39.7520 N.am     12 SEL2        0.0000 
     37 N          81.2920   97.4850   39.0910 N.am      7 SEP2        0.0000 
     38 CA         82.0270   99.2510   41.5990 C.3       5 GLC5        0.0000 
     39 CA         83.1280  100.2830   40.3820 C.3      15 GLL5        0.0000 
     40 CA         80.9260   98.2190   42.8160 C.3      10 GLP5        0.0000 
     41 CA         87.3675   97.4595   40.0910 C.3       5 GLC5        0.0000 
     42 CA         87.5380   98.7860   38.9670 C.3      15 GLL5        0.0000 
     43 CA         87.1970   96.1330   41.2150 C.3      10 GLP5        0.0000 
     44 CA         86.7310  100.1985   37.4920 C.3       5 GLC5        0.0000 
     45 CA         85.9240  101.6110   36.0170 C.3      10 GLP5        0.0000 
     46 O          89.5125   97.8295   37.4775 O.2       1 ALC1        0.0000 
     47 O          88.2560   98.0290   38.1200 O.2      11 ALL1        0.0000 
     48 O          90.7690   97.6300   36.8350 O.2       6 ALP1        0.0000 
     49 CA         87.3160   98.1435   41.0660 C.3       5 GLC5        0.0000 
     50 CA         87.4350  100.1540   40.9170 C.3      15 GLL5        0.0000 
     51 CA         84.0300  101.7449   38.7437 C.3       5 GLC5        0.0000 
     52 CA         83.2510  101.7610   40.8140 C.3      15 GLL5        0.0000 
     53 CA         85.1420  102.2900   37.1080 C.3      10 GLP5        0.0000 
     54 CA         85.9810   97.5948   39.7605 C.3       5 GLC5        0.0000 
     55 CA         85.5160   99.8220   39.8020 C.3      15 GLL5        0.0000 
     56 CA         86.1380   95.7710   40.1990 C.3      10 GLP5        0.0000 
     57 CA         85.4830  100.8543   38.2150 C.3       5 GLC5        0.0000 
     58 CA         86.1320   99.0150   38.8420 C.3      15 GLL5        0.0000 
@<TRIPOS>BOND
@<TRIPOS>SUBSTRUCTURE
     1 ALC1       46 GROUP        1 X    ALC  0     ROOT ALC X 1
     2 SEC2        4 GROUP        1 X    SEC  0     **** SEC X 2
     3 LYC4        1 GROUP        1 X    LYC  0     **** LYC X 4
     4 ZIC7       11 GROUP        1 X    ZIC  0     **** ZIC X 5
     5 GLC5       29 GROUP        1 X    GLC  0     **** GLC X 6
     6 ALP1       48 GROUP        1 Y    ALP  0     ROOT ALP Y 8
     7 SEP2        6 GROUP        1 Y    SEP  0     **** SEP Y 9
     8 LYP4        3 GROUP        1 Y    LYP  0     **** LYP Y 11
     9 ZIP7       13 GROUP        1 Y    ZIP  0     **** ZIP Y 12
    10 GLP5       31 GROUP        1 Y    GLP  0     **** GLP Y 13
    11 ALL1       47 GROUP        1 Z    ALL  0     ROOT ALL Z 15
    12 SEL2        5 GROUP        1 Z    SEL  0     **** SEL Z 16
    13 LYL4        2 GROUP        1 Z    LYL  0     **** LYL Z 18
    14 ZIL7       12 GROUP        1 Z    ZIL  0     **** ZIL Z 19
    15 GLL5       30 GROUP        1 Z    GLL  0     **** GLL Z 20
@<TRIPOS>SET

