#    Name: 1br2_ADP_6_ligand
#    Modification time : Mon Mar 24 19:47:20 2014

@<TRIPOS>MOLECULE
1br2_ADP_6_ligand
   39    41     1     0     0
SMALL
NO_CHARGES


@<TRIPOS>ATOM
      1 PB         79.1990  101.1250   33.7110 P.3       1 ADP998      0.0000 
      2 O1B        78.8640   99.8660   32.9610 O.co2     1 ADP998      0.0000 
      3 O2B        79.9210  102.1170   32.8450 O.co2     1 ADP998      0.0000 
      4 O3B        78.0050  101.7130   34.3060 O.co2     1 ADP998      0.0000 
      5 PA         80.9920  101.6830   35.8360 P.3       1 ADP998      0.0000 
      6 O1A        82.2810  101.8720   35.1690 O.co2     1 ADP998      0.0000 
      7 O2A        80.3720  103.0100   36.0890 O.co2     1 ADP998      0.0000 
      8 O3A        80.0710  100.7980   34.9300 O.3       1 ADP998      0.0000 
      9 O5'        81.2470  100.9310   37.2220 O.3       1 ADP998      0.0000 
     10 C5'        80.5130  101.5020   38.3380 C.3       1 ADP998      0.0000 
     11 C4'        81.1880  101.3820   39.6730 C.3       1 ADP998      0.0000 
     12 O4'        81.9010  100.1270   39.7520 O.3       1 ADP998      0.0000 
     13 C3'        82.1650  102.4720   39.9400 C.3       1 ADP998      0.0000 
     14 O3'        81.4930  103.6330   40.4600 O.3       1 ADP998      0.0000 
     15 C2'        83.2510  101.7610   40.8140 C.3       1 ADP998      0.0000 
     16 O2'        83.1240  101.8750   42.2500 O.3       1 ADP998      0.0000 
     17 C1'        83.1280  100.2830   40.3820 C.3       1 ADP998      0.0000 
     18 N9         84.1840   99.8620   39.4560 N.pl3     1 ADP998      0.0000 
     19 C8         84.0690   99.1310   38.3240 C.2       1 ADP998      0.0000 
     20 N7         85.2190   98.5850   37.9110 N.2       1 ADP998      0.0000 
     21 C5         86.1320   99.0150   38.8420 C.ar      1 ADP998      0.0000 
     22 C6         87.5380   98.7860   38.9670 C.ar      1 ADP998      0.0000 
     23 N6         88.2560   98.0290   38.1200 N.pl3     1 ADP998      0.0000 
     24 N1         88.1650   99.3870   40.0540 N.ar      1 ADP998      0.0000 
     25 C2         87.4350  100.1540   40.9170 C.ar      1 ADP998      0.0000 
     26 N3         86.1130  100.4250   40.8820 N.ar      1 ADP998      0.0000 
     27 C4         85.5160   99.8220   39.8020 C.ar      1 ADP998      0.0000 
     28 H          79.5020  101.0290   38.4146 H         1 ADP998      0.0000 
     29 H          80.3066  102.5850   38.1476 H         1 ADP998      0.0000 
     30 H          80.4245  101.4034   40.4534 H         1 ADP998      0.0000 
     31 H          82.6517  102.6806   38.9717 H         1 ADP998      0.0000 
     32 H          84.2159  102.0939   40.4479 H         1 ADP998      0.0000 
     33 H          83.1741   99.6826   41.2871 H         1 ADP998      0.0000 
     34 H          83.1971   99.0131   37.8427 H         1 ADP998      0.0000 
     35 H          87.7766   97.2541   37.7080 H         1 ADP998      0.0000 
     36 H          89.2056   98.3081   37.9774 H         1 ADP998      0.0000 
     37 H          88.0006  100.6047   41.7419 H         1 ADP998      0.0000 
     38 H          82.1952  104.1329   40.9670 H         1 ADP998      0.0000 
     39 H          84.0284  101.6443   42.6088 H         1 ADP998      0.0000 
@<TRIPOS>BOND
     1    2    1 ar   
     2    3    1 ar   
     3    4    1 ar   
     4    8    1 1    
     5    6    5 ar   
     6    7    5 ar   
     7    8    5 1    
     8    9    5 1    
     9   10    9 1    
    10   11   10 1    
    11   28   10 1    
    12   29   10 1    
    13   12   11 1    
    14   13   11 1    
    15   30   11 1    
    16   17   12 1    
    17   14   13 1    
    18   15   13 1    
    19   31   13 1    
    20   38   14 1    
    21   16   15 1    
    22   17   15 1    
    23   32   15 1    
    24   39   16 1    
    25   18   17 1    
    26   33   17 1    
    27   19   18 1    
    28   27   18 1    
    29   20   19 2    
    30   34   19 1    
    31   21   20 1    
    32   22   21 ar   
    33   27   21 ar   
    34   23   22 1    
    35   24   22 ar   
    36   35   23 1    
    37   36   23 1    
    38   25   24 ar   
    39   26   25 ar   
    40   37   25 1    
    41   27   26 ar   
@<TRIPOS>SUBSTRUCTURE
     1 ADP998      1 GROUP   
@<TRIPOS>SET

