#    Name: 4kod_ADP_11_INTS_M
#    Modification time : Tue Mar 25 08:13:33 2014

@<TRIPOS>MOLECULE
4kod_ADP_11_INTS_M
   67     0    12     0     0
SMALL
NO_CHARGES


@<TRIPOS>ATOM
      1 N          71.6780   72.6715   51.8150 N.am      2 SEC2        0.0000 
      2 N          70.2980   73.0050   51.4330 N.am     10 SEL2        0.0000 
      3 N          73.0580   72.3380   52.1970 N.am      6 SEP2        0.0000 
      4 N          70.7470   71.6495   51.4150 N.am      2 SEC2        0.0000 
      5 N          71.1960   70.2940   51.3970 N.am      6 SEP2        0.0000 
      6 N          71.5705   75.3700   51.4860 N.am      2 SEC2        0.0000 
      7 N          70.1390   75.5580   51.1300 N.am     10 SEL2        0.0000 
      8 N          73.0020   75.1820   51.8420 N.am      6 SEP2        0.0000 
      9 N          67.9095   75.0180   49.7860 N.am      2 SEC2        0.0000 
     10 N          68.3820   73.9760   50.1550 N.am     10 SEL2        0.0000 
     11 N          67.4370   76.0600   49.4170 N.am      6 SEP2        0.0000 
     12 N          73.7515   72.1300   49.5090 N.am      2 SEC2        0.0000 
     13 N          72.5540   72.4190   48.7060 N.am     10 SEL2        0.0000 
     14 N          74.9490   71.8410   50.3120 N.am      6 SEP2        0.0000 
     15 NZ         68.5410   70.4850   49.5955 N.4       3 LYC4        0.0000 
     16 NZ         70.0880   71.5510   49.0720 N.4      11 LYL4        0.0000 
     17 NZ         66.9940   69.4190   50.1190 N.4       7 LYP4        0.0000 
     18 N          70.6420   70.9225   50.2345 N.am      2 SEC2        0.0000 
     19 N          70.0880   71.5510   49.0720 N.am     10 SEL2        0.0000 
     20 N          71.5150   75.2485   49.3660 N.am      2 SEC2        0.0000 
     21 N          70.6840   74.0540   49.2430 N.am     10 SEL2        0.0000 
     22 N          72.3460   76.4430   49.4890 N.am      6 SEP2        0.0000 
     23 CA         69.7820   75.1845   47.3380 C.3       4 GLC5        0.0000 
     24 CA         71.3210   74.0930   46.4480 C.3      12 GLL5        0.0000 
     25 CA         68.2430   76.2760   48.2280 C.3       8 GLP5        0.0000 
     26 CA         72.4475   74.8790   47.9900 C.3       4 GLC5        0.0000 
     27 CA         73.5740   75.6650   49.5320 C.3       8 GLP5        0.0000 
     28 CA         75.3835   74.4590   45.7075 C.3       4 GLC5        0.0000 
     29 CA         73.9440   73.9950   44.4540 C.3      12 GLL5        0.0000 
     30 CA         76.8230   74.9230   46.9610 C.3       8 GLP5        0.0000 
     31 CA         71.4145   76.2380   43.8595 C.3       4 GLC5        0.0000 
     32 CA         73.2290   75.2970   44.1220 C.3      12 GLL5        0.0000 
     33 CA         69.6000   77.1790   43.5970 C.3       8 GLP5        0.0000 
     34 CA         72.6445   75.7500   42.2200 C.3       4 GLC5        0.0000 
     35 CA         72.0600   76.2030   40.3180 C.3       8 GLP5        0.0000 
     36 CA         74.1305   76.8395   47.8055 C.3       4 GLC5        0.0000 
     37 CA         74.6870   78.0140   46.0790 C.3      12 GLL5        0.0000 
     38 CA         77.9920   78.3225   46.3665 C.3       4 GLC5        0.0000 
     39 CA         75.8770   78.8680   46.2940 C.3      12 GLL5        0.0000 
     40 CA         80.1070   77.7770   46.4390 C.3       8 GLP5        0.0000 
     41 CA         76.1280   80.4860   45.6355 C.3       4 GLC5        0.0000 
     42 CA         76.3790   82.1040   44.9770 C.3       8 GLP5        0.0000 
     43 O          77.0840   80.8720   47.5290 O.2       1 ALC1        0.0000 
     44 O          75.9020   79.8280   47.2440 O.2       9 ALL1        0.0000 
     45 O          78.2660   81.9160   47.8140 O.2       5 ALP1        0.0000 
     46 N          78.3050   79.4060   45.8965 N.am      2 SEC2        0.0000 
     47 N          76.9410   78.6650   45.5090 N.am     10 SEL2        0.0000 
     48 N          79.6690   80.1470   46.2840 N.am      6 SEP2        0.0000 
     49 CA         78.5225   77.7445   45.4990 C.3       4 GLC5        0.0000 
     50 CA         76.9380   77.7120   44.5590 C.3      12 GLL5        0.0000 
     51 CA         76.8805   76.3175   45.7600 C.3       4 GLC5        0.0000 
     52 CA         76.0265   79.0525   43.6900 C.3       4 GLC5        0.0000 
     53 CA         75.1150   80.3930   42.8210 C.3       8 GLP5        0.0000 
     54 CA         78.6475   78.6565   43.7885 C.3       4 GLC5        0.0000 
     55 CA         80.3570   79.6010   43.0180 C.3       8 GLP5        0.0000 
     56 CA         76.2915   77.6345   42.4095 C.3       4 GLC5        0.0000 
     57 CA         75.6450   77.5570   40.2600 C.3       8 GLP5        0.0000 
     58 N          75.7240   76.7485   42.7770 N.am      2 SEC2        0.0000 
     59 N          75.8960   76.9010   44.3170 N.am     10 SEL2        0.0000 
     60 N          75.5520   76.5960   41.2370 N.am      6 SEP2        0.0000 
     61 CA         70.1417   75.0855   45.0655 C.3       4 GLC5        0.0000 
     62 CA         71.6120   73.8730   44.9680 C.3      12 GLL5        0.0000 
     63 CA         68.8170   76.1880   44.4230 C.3       8 GLP5        0.0000 
     64 CA         74.9195   78.9505   44.1880 C.3       4 GLC5        0.0000 
     65 CA         73.2250   78.7720   45.2610 C.3       4 GLC5        0.0000 
     66 CA         71.7260   80.0360   44.9670 C.3       8 GLP5        0.0000 
     67 CA         75.9222   76.3222   46.2849 C.3       4 GLC5        0.0000 
@<TRIPOS>BOND
@<TRIPOS>SUBSTRUCTURE
     1 ALC1       43 GROUP        1 X    ALC  0     ROOT ALC X 1
     2 SEC2        1 GROUP        1 X    SEC  0     **** SEC X 2
     3 LYC4       15 GROUP        1 X    LYC  0     **** LYC X 4
     4 GLC5       23 GROUP        1 X    GLC  0     **** GLC X 6
     5 ALP1       45 GROUP        1 Y    ALP  0     ROOT ALP Y 8
     6 SEP2        3 GROUP        1 Y    SEP  0     **** SEP Y 9
     7 LYP4       17 GROUP        1 Y    LYP  0     **** LYP Y 11
     8 GLP5       25 GROUP        1 Y    GLP  0     **** GLP Y 13
     9 ALL1       44 GROUP        1 Z    ALL  0     ROOT ALL Z 15
    10 SEL2        2 GROUP        1 Z    SEL  0     **** SEL Z 16
    11 LYL4       16 GROUP        1 Z    LYL  0     **** LYL Z 18
    12 GLL5       24 GROUP        1 Z    GLL  0     **** GLL Z 20
@<TRIPOS>SET

