#    Name: 4kod_ADP_11_ligand
#    Modification time : Tue Mar 25 08:13:33 2014

@<TRIPOS>MOLECULE
4kod_ADP_11_ligand
   39    41     1     0     0
SMALL
NO_CHARGES


@<TRIPOS>ATOM
      1 PB         69.8110   74.1740   50.6000 P.3       1 ADP800      0.0000 
      2 O1B        70.2980   73.0050   51.4330 O.co2     1 ADP800      0.0000 
      3 O2B        70.1390   75.5580   51.1300 O.co2     1 ADP800      0.0000 
      4 O3B        68.3820   73.9760   50.1550 O.co2     1 ADP800      0.0000 
      5 PA         71.0660   72.6140   48.6070 P.3       1 ADP800      0.0000 
      6 O1A        72.5540   72.4190   48.7060 O.co2     1 ADP800      0.0000 
      7 O2A        70.0880   71.5510   49.0720 O.co2     1 ADP800      0.0000 
      8 O3A        70.6840   74.0540   49.2430 O.3       1 ADP800      0.0000 
      9 O5'        70.8690   72.8640   47.0380 O.3       1 ADP800      0.0000 
     10 C5'        71.3210   74.0930   46.4480 C.3       1 ADP800      0.0000 
     11 C4'        71.6120   73.8730   44.9680 C.3       1 ADP800      0.0000 
     12 O4'        71.8430   75.1110   44.3010 O.3       1 ADP800      0.0000 
     13 C3'        72.8570   73.0220   44.8320 C.3       1 ADP800      0.0000 
     14 O3'        72.6600   72.0160   43.8420 O.3       1 ADP800      0.0000 
     15 C2'        73.9440   73.9950   44.4540 C.3       1 ADP800      0.0000 
     16 O2'        74.7070   73.4860   43.3530 O.3       1 ADP800      0.0000 
     17 C1'        73.2290   75.2970   44.1220 C.3       1 ADP800      0.0000 
     18 N9         73.5960   76.3800   45.0320 N.pl3     1 ADP800      0.0000 
     19 C8         72.8120   76.9140   45.9750 C.2       1 ADP800      0.0000 
     20 N7         73.4650   77.9020   46.6220 N.2       1 ADP800      0.0000 
     21 C5         74.6870   78.0140   46.0790 C.ar      1 ADP800      0.0000 
     22 C6         75.8770   78.8680   46.2940 C.ar      1 ADP800      0.0000 
     23 N6         75.9020   79.8280   47.2440 N.pl3     1 ADP800      0.0000 
     24 N1         76.9410   78.6650   45.5090 N.ar      1 ADP800      0.0000 
     25 C2         76.9380   77.7120   44.5590 C.ar      1 ADP800      0.0000 
     26 N3         75.8960   76.9010   44.3170 N.ar      1 ADP800      0.0000 
     27 C4         74.7610   77.0020   45.0310 C.ar      1 ADP800      0.0000 
     28 H          72.2392   74.4532   46.9232 H         1 ADP800      0.0000 
     29 H          70.5649   74.8805   46.5305 H         1 ADP800      0.0000 
     30 H          70.7894   73.3354   44.5331 H         1 ADP800      0.0000 
     31 H          73.0830   72.6178   45.7978 H         1 ADP800      0.0000 
     32 H          74.5520   74.1642   45.3274 H         1 ADP800      0.0000 
     33 H          73.4508   75.5708   43.1124 H         1 ADP800      0.0000 
     34 H          71.8944   76.6329   46.1729 H         1 ADP800      0.0000 
     35 H          75.0938   79.8886   47.8297 H         1 ADP800      0.0000 
     36 H          76.7266   80.3928   47.2772 H         1 ADP800      0.0000 
     37 H          77.8184   77.5948   43.9622 H         1 ADP800      0.0000 
     38 H          72.8801   71.1551   44.3007 H         1 ADP800      0.0000 
     39 H          74.2718   72.6174   43.1163 H         1 ADP800      0.0000 
@<TRIPOS>BOND
     1    2    1 ar   
     2    3    1 ar   
     3    4    1 ar   
     4    8    1 1    
     5    6    5 ar   
     6    7    5 ar   
     7    8    5 1    
     8    9    5 1    
     9   10    9 1    
    10   11   10 1    
    11   28   10 1    
    12   29   10 1    
    13   12   11 1    
    14   13   11 1    
    15   30   11 1    
    16   17   12 1    
    17   14   13 1    
    18   15   13 1    
    19   31   13 1    
    20   38   14 1    
    21   16   15 1    
    22   17   15 1    
    23   32   15 1    
    24   39   16 1    
    25   18   17 1    
    26   33   17 1    
    27   19   18 1    
    28   27   18 1    
    29   20   19 2    
    30   34   19 1    
    31   21   20 1    
    32   22   21 ar   
    33   27   21 ar   
    34   23   22 1    
    35   24   22 ar   
    36   35   23 1    
    37   36   23 1    
    38   25   24 ar   
    39   26   25 ar   
    40   37   25 1    
    41   27   26 ar   
@<TRIPOS>SUBSTRUCTURE
     1 ADP800      1 GROUP   
@<TRIPOS>SET

