#    Name: 3fhy_ATP_1_INTS_M
#    Modification time : Tue Mar 25 04:09:35 2014

@<TRIPOS>MOLECULE
3fhy_ATP_1_INTS_M
   63     0    12     0     0
SMALL
NO_CHARGES


@<TRIPOS>ATOM
      1 N          24.9265   -2.0580   48.2105 N.am      2 SEC2        0.0000 
      2 N          25.7060   -2.4100   47.3890 N.am     10 SEL2        0.0000 
      3 N          24.1470   -1.7060   49.0320 N.am      6 SEP2        0.0000 
      4 Zn         28.3085   -2.5100   45.4150 Zn        3 ZIC7        0.0000 
      5 Zn         27.7900   -1.8060   46.0710 Zn       11 ZIL7        0.0000 
      6 Zn         28.8270   -3.2140   44.7590 Zn        7 ZIP7        0.0000 
      7 N          28.8280   -1.3940   47.2905 N.am      2 SEC2        0.0000 
      8 N          27.7900   -1.8060   46.0710 N.am     10 SEL2        0.0000 
      9 N          29.8660   -0.9820   48.5100 N.am      6 SEP2        0.0000 
     10 N          25.1665   -0.8680   47.9015 N.am      2 SEC2        0.0000 
     11 N          26.1860   -0.0300   46.7710 N.am     10 SEL2        0.0000 
     12 Zn         27.7995   -3.4885   44.5410 Zn        3 ZIC7        0.0000 
     13 Zn         26.7720   -3.7630   44.3230 Zn       11 ZIL7        0.0000 
     14 N          24.6770   -2.2020   41.6010 N.am      2 SEC2        0.0000 
     15 N          25.2730   -2.5700   42.6600 N.am     10 SEL2        0.0000 
     16 N          24.0810   -1.8340   40.5420 N.am      6 SEP2        0.0000 
     17 CA         22.9320   -2.7695   46.9275 C.3       4 GLC5        0.0000 
     18 CA         23.0110   -3.2260   44.8400 C.3      12 GLL5        0.0000 
     19 CA         22.8530   -2.3130   49.0150 C.3       8 GLP5        0.0000 
     20 CA         23.1775   -1.1185   44.4455 C.3       4 GLC5        0.0000 
     21 CA         23.3440    0.9890   44.0510 C.3       8 GLP5        0.0000 
     22 CA         22.2665   -2.9675   42.4600 C.3       4 GLC5        0.0000 
     23 CA         21.8890   -4.1390   44.3410 C.3      12 GLL5        0.0000 
     24 CA         22.6440   -1.7960   40.5790 C.3       8 GLP5        0.0000 
     25 CA         20.0225   -3.5850   43.9900 C.3       4 GLC5        0.0000 
     26 CA         18.1560   -3.0310   43.6390 C.3       8 GLP5        0.0000 
     27 CA         22.7265   -7.4325   45.8285 C.3       4 GLC5        0.0000 
     28 CA         22.0810   -5.5610   44.8670 C.3      12 GLL5        0.0000 
     29 CA         23.3720   -9.3040   46.7900 C.3       8 GLP5        0.0000 
     30 O          22.3880   -5.3705   47.0900 O.2       1 ALC1        0.0000 
     31 O          21.4390   -5.6650   46.1400 O.2       9 ALL1        0.0000 
     32 O          23.3370   -5.0760   48.0400 O.2       5 ALP1        0.0000 
     33 CA         22.1300   -3.6990   41.5615 C.3       4 GLC5        0.0000 
     34 CA         21.6160   -5.6020   42.5440 C.3      12 GLL5        0.0000 
     35 CA         20.2105   -4.1055   41.9095 C.3       4 GLC5        0.0000 
     36 CA         18.8050   -2.6090   41.2750 C.3       8 GLP5        0.0000 
     37 CA         21.2520   -6.0270   40.7445 C.3       4 GLC5        0.0000 
     38 CA         20.8880   -6.4520   38.9450 C.3       8 GLP5        0.0000 
     39 CA         23.9950   -9.8880   38.7075 C.3       4 GLC5        0.0000 
     40 CA         24.6190   -8.6630   40.2760 C.3      12 GLL5        0.0000 
     41 CA         23.3710  -11.1130   37.1390 C.3       8 GLP5        0.0000 
     42 O          26.1495  -10.0425   38.7675 O.2       1 ALC1        0.0000 
     43 O          25.8160   -8.7720   39.7040 O.2       9 ALL1        0.0000 
     44 O          26.4830  -11.3130   37.8310 O.2       5 ALP1        0.0000 
     45 N          24.0125  -10.9950   39.7325 N.am      2 SEC2        0.0000 
     46 N          23.7710   -9.7010   40.2980 N.am     10 SEL2        0.0000 
     47 N          24.2540  -12.2890   39.1670 N.am      6 SEP2        0.0000 
     48 CA         23.6030   -9.5065   42.7465 C.3       4 GLC5        0.0000 
     49 CA         22.5810   -9.6000   40.8680 C.3      12 GLL5        0.0000 
     50 CA         24.6250   -9.4130   44.6250 C.3       8 GLP5        0.0000 
     51 CA         21.2735  -10.1505   42.4575 C.3       4 GLC5        0.0000 
     52 CA         19.9660  -10.7010   44.0470 C.3       8 GLP5        0.0000 
     53 CA         23.3090  -11.4320   41.1275 C.3       4 GLC5        0.0000 
     54 CA         24.0370  -13.2640   41.3870 C.3       8 GLP5        0.0000 
     55 CA         22.2320  -10.4955   39.1545 C.3       4 GLC5        0.0000 
     56 CA         21.8830  -11.3910   37.4410 C.3       8 GLP5        0.0000 
     57 CA         21.7345   -8.0260   39.9065 C.3       4 GLC5        0.0000 
     58 CA         20.8165   -3.1368   45.6953 C.3       4 GLC5        0.0000 
     59 CA         19.1830   -2.5910   46.8000 C.3       8 GLP5        0.0000 
     60 CA         22.2445   -6.9437   40.0517 C.3       4 GLC5        0.0000 
     61 CA         24.2270   -7.4700   40.8650 C.3      12 GLL5        0.0000 
     62 CA         24.1620   -8.5734   42.8181 C.3       4 GLC5        0.0000 
     63 CA         22.9750   -7.4010   41.4520 C.3      12 GLL5        0.0000 
@<TRIPOS>BOND
@<TRIPOS>SUBSTRUCTURE
     1 ALC1       30 GROUP        1 X    ALC  0     ROOT ALC X 1
     2 SEC2        1 GROUP        1 X    SEC  0     **** SEC X 2
     3 ZIC7        4 GROUP        1 X    ZIC  0     **** ZIC X 5
     4 GLC5       17 GROUP        1 X    GLC  0     **** GLC X 6
     5 ALP1       32 GROUP        1 Y    ALP  0     ROOT ALP Y 8
     6 SEP2        3 GROUP        1 Y    SEP  0     **** SEP Y 9
     7 ZIP7        6 GROUP        1 Y    ZIP  0     **** ZIP Y 12
     8 GLP5       19 GROUP        1 Y    GLP  0     **** GLP Y 13
     9 ALL1       31 GROUP        1 Z    ALL  0     ROOT ALL Z 15
    10 SEL2        2 GROUP        1 Z    SEL  0     **** SEL Z 16
    11 ZIL7        5 GROUP        1 Z    ZIL  0     **** ZIL Z 19
    12 GLL5       18 GROUP        1 Z    GLL  0     **** GLL Z 20
@<TRIPOS>SET

