#    Name: 3fhy_ATP_1_ligand
#    Modification time : Tue Mar 25 04:09:35 2014

@<TRIPOS>MOLECULE
3fhy_ATP_1_ligand
   43    45     1     0     0
SMALL
NO_CHARGES


@<TRIPOS>ATOM
      1 PG         26.9600    1.1740   46.0260 P.3       1 ATP409      0.0000 
      2 O1G        25.9470    2.4270   46.0590 O.co2     1 ATP409      0.0000 
      3 O2G        28.2050    1.5860   46.9620 O.co2     1 ATP409      0.0000 
      4 O3G        27.3950    0.8310   44.6530 O.co2     1 ATP409      0.0000 
      5 PB         26.3550   -1.5770   46.3540 P.3       1 ATP409      0.0000 
      6 O1B        25.7060   -2.4100   47.3890 O.co2     1 ATP409      0.0000 
      7 O2B        27.7900   -1.8060   46.0710 O.co2     1 ATP409      0.0000 
      8 O3B        26.1860   -0.0300   46.7710 O.3       1 ATP409      0.0000 
      9 PA         25.5350   -2.9980   44.0520 P.3       1 ATP409      0.0000 
     10 O1A        26.7720   -3.7630   44.3230 O.co2     1 ATP409      0.0000 
     11 O2A        25.2730   -2.5700   42.6600 O.co2     1 ATP409      0.0000 
     12 O3A        25.5140   -1.6830   44.9830 O.3       1 ATP409      0.0000 
     13 O5'        24.2740   -3.8450   44.5840 O.3       1 ATP409      0.0000 
     14 C5'        23.0110   -3.2260   44.8400 C.3       1 ATP409      0.0000 
     15 C4'        21.8890   -4.1390   44.3410 C.3       1 ATP409      0.0000 
     16 O4'        21.9300   -4.2460   42.9080 O.3       1 ATP409      0.0000 
     17 C3'        22.0810   -5.5610   44.8670 C.3       1 ATP409      0.0000 
     18 O3'        21.4390   -5.6650   46.1400 O.3       1 ATP409      0.0000 
     19 C2'        21.2480   -6.3260   43.8410 C.3       1 ATP409      0.0000 
     20 O2'        19.8550   -6.1510   44.1130 O.3       1 ATP409      0.0000 
     21 C1'        21.6160   -5.6020   42.5440 C.3       1 ATP409      0.0000 
     22 N9         22.8340   -6.1640   41.9220 N.pl3     1 ATP409      0.0000 
     23 C8         23.9510   -5.4890   41.6540 C.2       1 ATP409      0.0000 
     24 N7         24.8030   -6.2760   41.0060 N.2       1 ATP409      0.0000 
     25 C5         24.2270   -7.4700   40.8650 C.ar      1 ATP409      0.0000 
     26 C6         24.6190   -8.6630   40.2760 C.ar      1 ATP409      0.0000 
     27 N6         25.8160   -8.7720   39.7040 N.pl3     1 ATP409      0.0000 
     28 N1         23.7710   -9.7010   40.2980 N.ar      1 ATP409      0.0000 
     29 C2         22.5810   -9.6000   40.8680 C.ar      1 ATP409      0.0000 
     30 N3         22.1780   -8.4810   41.4370 N.ar      1 ATP409      0.0000 
     31 C4         22.9750   -7.4010   41.4520 C.ar      1 ATP409      0.0000 
     32 H          22.9158   -2.2668   44.3225 H         1 ATP409      0.0000 
     33 H          22.8513   -3.0544   45.9086 H         1 ATP409      0.0000 
     34 H          20.9507   -3.7756   44.6789 H         1 ATP409      0.0000 
     35 H          23.0512   -5.8329   44.8132 H         1 ATP409      0.0000 
     36 H          21.5743   -7.3062   43.7914 H         1 ATP409      0.0000 
     37 H          20.7966   -5.6349   41.8782 H         1 ATP409      0.0000 
     38 H          24.1169   -4.5540   41.8986 H         1 ATP409      0.0000 
     39 H          26.0233   -9.6547   39.2821 H         1 ATP409      0.0000 
     40 H          26.4001   -7.9615   39.7477 H         1 ATP409      0.0000 
     41 H          21.9349  -10.4440   40.8660 H         1 ATP409      0.0000 
     42 H          22.1395   -5.4060   46.8049 H         1 ATP409      0.0000 
     43 H          19.8135   -5.8461   45.0645 H         1 ATP409      0.0000 
@<TRIPOS>BOND
     1    2    1 ar   
     2    3    1 ar   
     3    4    1 ar   
     4    8    1 1    
     5    6    5 ar   
     6    7    5 ar   
     7    8    5 1    
     8   12    5 1    
     9   10    9 ar   
    10   11    9 ar   
    11   12    9 1    
    12   13    9 1    
    13   14   13 1    
    14   15   14 1    
    15   32   14 1    
    16   33   14 1    
    17   16   15 1    
    18   17   15 1    
    19   34   15 1    
    20   21   16 1    
    21   18   17 1    
    22   19   17 1    
    23   35   17 1    
    24   42   18 1    
    25   20   19 1    
    26   21   19 1    
    27   36   19 1    
    28   43   20 1    
    29   22   21 1    
    30   37   21 1    
    31   23   22 1    
    32   31   22 1    
    33   24   23 2    
    34   38   23 1    
    35   25   24 1    
    36   26   25 ar   
    37   31   25 ar   
    38   27   26 1    
    39   28   26 ar   
    40   39   27 1    
    41   40   27 1    
    42   29   28 ar   
    43   30   29 ar   
    44   41   29 1    
    45   31   30 ar   
@<TRIPOS>SUBSTRUCTURE
     1 ATP409      1 GROUP   
@<TRIPOS>SET

