#    Name: 3nhk_VAP_1_INTS_M
#    Modification time : Tue Mar 25 01:34:29 2014

@<TRIPOS>MOLECULE
3nhk_VAP_1_INTS_M
   39     0     6     0     0
SMALL
NO_CHARGES


@<TRIPOS>ATOM
      1 CA         -4.9015   -5.8045  -12.5215 C.3       2 GLC5        0.0000 
      2 CA         -4.6820   -5.4380  -14.7000 C.3       6 GLL5        0.0000 
      3 CA         -5.1210   -6.1710  -10.3430 C.3       4 GLP5        0.0000 
      4 CA         -2.1230  -10.9245  -15.7680 C.3       2 GLC5        0.0000 
      5 CA         -3.7830   -9.4800  -15.8670 C.3       6 GLL5        0.0000 
      6 CA         -0.4630  -12.3690  -15.6690 C.3       4 GLP5        0.0000 
      7 N          -5.2485  -11.3545  -14.3590 N.am      1 SEC2        0.0000 
      8 N          -5.5870  -10.0810  -14.5580 N.am      5 SEL2        0.0000 
      9 N          -4.9100  -12.6280  -14.1600 N.am      3 SEP2        0.0000 
     10 CA         -5.7410   -6.9025  -12.0775 C.3       2 GLC5        0.0000 
     11 CA         -6.3610   -7.6340  -13.8120 C.3       6 GLL5        0.0000 
     12 CA         -6.3675   -8.6885  -12.4670 C.3       2 GLC5        0.0000 
     13 CA         -6.3740   -9.7430  -11.1220 C.3       4 GLP5        0.0000 
     14 CA         -0.8385   -7.7765  -18.5195 C.3       2 GLC5        0.0000 
     15 CA         -1.8040   -8.8330  -17.2410 C.3       6 GLL5        0.0000 
     16 CA          0.1270   -6.7200  -19.7980 C.3       4 GLP5        0.0000 
     17 CA         -1.1335  -10.6010  -16.4550 C.3       2 GLC5        0.0000 
     18 CA         -2.8795   -9.2705  -18.5835 C.3       2 GLC5        0.0000 
     19 CA         -3.9550   -9.7080  -19.9260 C.3       4 GLP5        0.0000 
     20 CA         -0.1285   -4.1320  -18.8570 C.3       2 GLC5        0.0000 
     21 CA         -1.1030   -3.8720  -17.5340 C.3       6 GLL5        0.0000 
     22 CA          0.8460   -4.3920  -20.1800 C.3       4 GLP5        0.0000 
     23 CA         -2.3385   -3.1365  -18.3765 C.3       2 GLC5        0.0000 
     24 CA         -3.5740   -2.4010  -19.2190 C.3       4 GLP5        0.0000 
     25 CA          0.0850   -3.6615  -16.3495 C.3       2 GLC5        0.0000 
     26 CA          1.2730   -3.4510  -15.1650 C.3       4 GLP5        0.0000 
     27 CA         -4.0875   -2.2420  -17.4230 C.3       2 GLC5        0.0000 
     28 CA         -4.6010   -2.0830  -15.6270 C.3       6 GLL5        0.0000 
     29 CA         -5.9230   -5.1735  -12.0330 C.3       2 GLC5        0.0000 
     30 CA         -6.7250   -4.1760  -13.7230 C.3       6 GLL5        0.0000 
     31 CA         -2.9620   -5.9905  -13.9683 C.3       2 GLC5        0.0000 
     32 CA         -4.3820   -6.7560  -15.1110 C.3       6 GLL5        0.0000 
     33 CA         -1.3920   -5.8840  -13.0310 C.3       4 GLP5        0.0000 
     34 CA         -2.3775   -5.2155  -14.3202 C.3       2 GLC5        0.0000 
     35 CA         -3.8910   -4.4090  -15.1860 C.3       6 GLL5        0.0000 
     36 CA         -4.1460   -8.9765  -17.6515 C.3       2 GLC5        0.0000 
     37 CA         -2.9750   -8.4540  -16.3530 C.3       6 GLL5        0.0000 
     38 CA         -4.9130   -8.9860  -19.1930 C.3       4 GLP5        0.0000 
     39 CA         -2.1673   -6.6819  -14.6521 C.3       2 GLC5        0.0000 
@<TRIPOS>BOND
@<TRIPOS>SUBSTRUCTURE
     1 SEC2        7 GROUP        1 X    SEC  0     ROOT SEC X 2
     2 GLC5        1 GROUP        1 X    GLC  0     **** GLC X 6
     3 SEP2        9 GROUP        1 Y    SEP  0     ROOT SEP Y 9
     4 GLP5        3 GROUP        1 Y    GLP  0     **** GLP Y 13
     5 SEL2        8 GROUP        1 Z    SEL  0     ROOT SEL Z 16
     6 GLL5        2 GROUP        1 Z    GLL  0     **** GLL Z 20
@<TRIPOS>SET

