#    Name: 3nhk_VAP_1_ligand
#    Modification time : Tue Mar 25 01:34:30 2014

@<TRIPOS>MOLECULE
3nhk_VAP_1_ligand
   36    37     1     0     0
SMALL
NO_CHARGES


@<TRIPOS>ATOM
      1 C1         -2.5220   -5.9770  -16.4240 C.ar      1 VAP233      0.0000 
      2 C2         -3.2980   -7.0340  -15.9630 C.ar      1 VAP233      0.0000 
      3 C3         -4.3820   -6.7560  -15.1110 C.ar      1 VAP233      0.0000 
      4 C4         -4.6820   -5.4380  -14.7000 C.ar      1 VAP233      0.0000 
      5 C5         -3.8910   -4.4090  -15.1860 C.ar      1 VAP233      0.0000 
      6 C6         -2.8350   -4.6850  -16.0330 C.ar      1 VAP233      0.0000 
      7 C7         -2.9750   -8.4540  -16.3530 C.2       1 VAP233      0.0000 
      8 C8         -3.7830   -9.4800  -15.8670 C.2       1 VAP233      0.0000 
      9 C9         -4.8430   -9.1640  -15.0050 C.2       1 VAP233      0.0000 
     10 N10        -5.1880   -7.8310  -14.6930 N.am      1 VAP233      0.0000 
     11 O11        -5.5870  -10.0810  -14.5580 O.2       1 VAP233      0.0000 
     12 C12        -6.3610   -7.6340  -13.8120 C.3       1 VAP233      0.0000 
     13 O13        -5.7390   -5.2140  -13.7970 O.3       1 VAP233      0.0000 
     14 O14        -4.1790   -3.1320  -14.7770 O.3       1 VAP233      0.0000 
     15 O15        -2.0670   -3.6760  -16.5060 O.3       1 VAP233      0.0000 
     16 C16        -1.8040   -8.8330  -17.2410 C.3       1 VAP233      0.0000 
     17 C17        -1.1030   -3.8720  -17.5340 C.3       1 VAP233      0.0000 
     18 C18        -4.6010   -2.0830  -15.6270 C.3       1 VAP233      0.0000 
     19 C19        -6.7250   -4.1760  -13.7230 C.3       1 VAP233      0.0000 
     20 H          -1.7276   -6.1532  -17.0461 H         1 VAP233      0.0000 
     21 H          -3.6091  -10.4491  -16.1323 H         1 VAP233      0.0000 
     22 H          -6.1026   -7.2308  -12.9341 H         1 VAP233      0.0000 
     23 H          -7.0383   -7.0258  -14.2259 H         1 VAP233      0.0000 
     24 H          -6.8250   -8.4971  -13.6129 H         1 VAP233      0.0000 
     25 H          -0.9304   -8.5518  -16.8438 H         1 VAP233      0.0000 
     26 H          -1.7544   -9.8208  -17.3888 H         1 VAP233      0.0000 
     27 H          -1.8675   -8.4046  -18.1424 H         1 VAP233      0.0000 
     28 H          -0.6236   -3.0240  -17.7602 H         1 VAP233      0.0000 
     29 H          -0.4077   -4.5399  -17.2687 H         1 VAP233      0.0000 
     30 H          -1.5228   -4.2055  -18.3781 H         1 VAP233      0.0000 
     31 H          -3.9214   -1.8799  -16.3319 H         1 VAP233      0.0000 
     32 H          -5.4540   -2.3072  -16.0982 H         1 VAP233      0.0000 
     33 H          -4.7600   -1.2356  -15.1204 H         1 VAP233      0.0000 
     34 H          -6.3073   -3.2743  -13.6115 H         1 VAP233      0.0000 
     35 H          -7.2874   -4.1384  -14.5490 H         1 VAP233      0.0000 
     36 H          -7.3466   -4.3086  -12.9510 H         1 VAP233      0.0000 
@<TRIPOS>BOND
     1    2    1 ar   
     2    6    1 ar   
     3   20    1 1    
     4    3    2 ar   
     5    7    2 1    
     6    4    3 ar   
     7   10    3 1    
     8    5    4 ar   
     9   13    4 1    
    10    6    5 ar   
    11   14    5 1    
    12   15    6 1    
    13    8    7 2    
    14   16    7 1    
    15    9    8 1    
    16   21    8 1    
    17   10    9 am   
    18   11    9 2    
    19   12   10 1    
    20   22   12 1    
    21   23   12 1    
    22   24   12 1    
    23   19   13 1    
    24   18   14 1    
    25   17   15 1    
    26   25   16 1    
    27   26   16 1    
    28   27   16 1    
    29   28   17 1    
    30   29   17 1    
    31   30   17 1    
    32   31   18 1    
    33   32   18 1    
    34   33   18 1    
    35   34   19 1    
    36   35   19 1    
    37   36   19 1    
@<TRIPOS>SUBSTRUCTURE
     1 VAP233      1 GROUP   
@<TRIPOS>SET

