#    Name: 1v0p_PVB_2_INTS_M
#    Modification time : Tue Mar 25 07:25:27 2014

@<TRIPOS>MOLECULE
1v0p_PVB_2_INTS_M
   78     0    12     0     0
SMALL
NO_CHARGES


@<TRIPOS>ATOM
      1 CA         24.0845   29.9170   -2.3575 C.3       4 GLC5        0.0000 
      2 CA         25.9360   29.3610   -2.4260 C.3      12 GLL5        0.0000 
      3 CA         22.2330   30.4730   -2.2890 C.3       8 GLP5        0.0000 
      4 CA         27.4495   27.8170   -4.8510 C.3       4 GLC5        0.0000 
      5 CA         28.0000   29.6170   -3.9030 C.3      12 GLL5        0.0000 
      6 CA         26.8990   26.0170   -5.7990 C.3       8 GLP5        0.0000 
      7 CA         28.4370   27.1520   -4.9215 C.3       4 GLC5        0.0000 
      8 CA         29.9750   28.2870   -4.0440 C.3      12 GLL5        0.0000 
      9 N          27.4360   32.8415   -5.6555 N.am      2 SEC2        0.0000 
     10 N          27.5770   31.4580   -5.0700 N.am     10 SEL2        0.0000 
     11 N          27.2950   34.2250   -6.2410 N.am      6 SEP2        0.0000 
     12 O          29.9185   32.1500   -6.8960 O.2       1 ALC1        0.0000 
     13 O          30.3280   31.0120   -6.4100 O.2       9 ALL1        0.0000 
     14 O          29.5090   33.2880   -7.3820 O.2       5 ALP1        0.0000 
     15 CA         35.1910   30.7680   -4.5890 C.3       4 GLC5        0.0000 
     16 CA         35.1470   29.9520   -6.3310 C.3      12 GLL5        0.0000 
     17 CA         35.2350   31.5840   -2.8470 C.3       8 GLP5        0.0000 
     18 CA         36.6320   30.7945   -7.4445 C.3       4 GLC5        0.0000 
     19 CA         38.1170   31.6370   -8.5580 C.3       8 GLP5        0.0000 
     20 CA         33.9545   31.0430   -4.6075 C.3       4 GLC5        0.0000 
     21 CA         32.6740   30.5020   -6.3680 C.3      12 GLL5        0.0000 
     22 NZ         36.0630   31.4305  -10.4950 N.4       3 LYC4        0.0000 
     23 NZ         34.9250   29.8270  -10.5240 N.4      11 LYL4        0.0000 
     24 NZ         37.2010   33.0340  -10.4660 N.4       7 LYP4        0.0000 
     25 CA         31.4935   26.9545   -6.2120 C.3       4 GLC5        0.0000 
     26 CA         32.0590   27.0390   -4.1040 C.3      12 GLL5        0.0000 
     27 CA         30.9280   26.8700   -8.3200 C.3       8 GLP5        0.0000 
     28 CA         31.2705   25.8150   -6.7110 C.3       4 GLC5        0.0000 
     29 CA         31.6130   24.7600   -5.1020 C.3      12 GLL5        0.0000 
     30 CA         31.6170   23.6155   -6.5060 C.3       4 GLC5        0.0000 
     31 CA         31.6210   22.4710   -7.9100 C.3       8 GLP5        0.0000 
     32 CA         31.3920   22.6780   -4.8895 C.3       4 GLC5        0.0000 
     33 CA         31.1710   20.5960   -4.6770 C.3       8 GLP5        0.0000 
     34 CA         29.7300   24.5850   -4.6365 C.3       4 GLC5        0.0000 
     35 CA         27.8470   24.4100   -4.1710 C.3       8 GLP5        0.0000 
     36 CA         31.5110   23.5525   -1.9780 C.3       4 GLC5        0.0000 
     37 CA         32.2500   24.8940   -2.6980 C.3      12 GLL5        0.0000 
     38 CA         30.7720   22.2110   -1.2580 C.3       8 GLP5        0.0000 
     39 CA         34.0895   25.6630   -1.6980 C.3       4 GLC5        0.0000 
     40 CA         35.9290   26.4320   -0.6980 C.3       8 GLP5        0.0000 
     41 CA         34.0875   29.8155   -3.0890 C.3       4 GLC5        0.0000 
     42 CA         32.9400   28.0470   -3.3310 C.3      12 GLL5        0.0000 
     43 CA         34.4345   27.2395   -2.0145 C.3       4 GLC5        0.0000 
     44 CA         32.3255   29.9315   -2.5220 C.3       4 GLC5        0.0000 
     45 CA         31.7110   31.8160   -1.7130 C.3       8 GLP5        0.0000 
     46 O          34.9360   28.4080   -2.7535 O.2       1 ALC1        0.0000 
     47 O          33.8190   27.4400   -2.4080 O.2       9 ALL1        0.0000 
     48 O          36.0530   29.3760   -3.0990 O.2       5 ALP1        0.0000 
     49 CA         26.3065   26.9405   -4.2385 C.3       4 GLC5        0.0000 
     50 CA         25.7140   27.8640   -2.6780 C.3      12 GLL5        0.0000 
     51 CA         25.5575   25.9455   -1.6185 C.3       4 GLC5        0.0000 
     52 CA         25.4010   24.0270   -0.5590 C.3       8 GLP5        0.0000 
     53 CA         24.0465   28.0380   -1.9365 C.3       4 GLC5        0.0000 
     54 CA         22.3790   28.2120   -1.1950 C.3       8 GLP5        0.0000 
     55 CA         24.3565   29.5965   -1.0535 C.3       4 GLC5        0.0000 
     56 CA         26.5090   29.6040   -1.0360 C.3      12 GLL5        0.0000 
     57 CA         22.2040   29.5890   -1.0710 C.3       8 GLP5        0.0000 
     58 CA         27.5275   30.0755    0.2855 C.3       4 GLC5        0.0000 
     59 CA         28.5460   30.5470    1.6070 C.3       8 GLP5        0.0000 
     60 CA         25.1200   29.0687   -4.2890 C.3       4 GLC5        0.0000 
     61 CA         24.4150   29.5250   -6.0260 C.3       8 GLP5        0.0000 
     62 CA         25.3492   31.1598   -0.9615 C.3       4 GLC5        0.0000 
     63 CA         24.4760   32.8370   -0.1920 C.3       8 GLP5        0.0000 
     64 CA         27.7578   30.9002   -1.8765 C.3       4 GLC5        0.0000 
     65 CA         29.2930   32.3180   -2.0220 C.3       8 GLP5        0.0000 
     66 CA         26.3357   29.7980   -5.2215 C.3       4 GLC5        0.0000 
     67 CA         29.1539   31.2308   -3.4792 C.3       4 GLC5        0.0000 
     68 CA         31.2933   32.5782   -8.3000 C.3       4 GLC5        0.0000 
     69 CA         31.3490   30.3930   -8.4310 C.3      12 GLL5        0.0000 
     70 CA         31.1860   34.6400   -8.8560 C.3       8 GLP5        0.0000 
     71 CA         33.2020   32.3170   -6.7553 C.3       4 GLC5        0.0000 
     72 CA         31.4520   30.6400   -7.0570 C.3      12 GLL5        0.0000 
     73 CA         34.3410   34.0630   -6.7980 C.3       8 GLP5        0.0000 
     74 CA         32.0085   28.4005   -8.5838 C.3       4 GLC5        0.0000 
     75 CA         33.7060   29.8510   -8.5240 C.3      12 GLL5        0.0000 
     76 CA         34.4143   32.0457   -6.7462 C.3       4 GLC5        0.0000 
     77 CA         33.8280   30.1050   -7.0580 C.3      12 GLL5        0.0000 
     78 CA         31.4826   28.6896   -7.6880 C.3       4 GLC5        0.0000 
@<TRIPOS>BOND
@<TRIPOS>SUBSTRUCTURE
     1 ALC1       12 GROUP        1 X    ALC  0     ROOT ALC X 1
     2 SEC2        9 GROUP        1 X    SEC  0     **** SEC X 2
     3 LYC4       22 GROUP        1 X    LYC  0     **** LYC X 4
     4 GLC5        1 GROUP        1 X    GLC  0     **** GLC X 6
     5 ALP1       14 GROUP        1 Y    ALP  0     ROOT ALP Y 8
     6 SEP2       11 GROUP        1 Y    SEP  0     **** SEP Y 9
     7 LYP4       24 GROUP        1 Y    LYP  0     **** LYP Y 11
     8 GLP5        3 GROUP        1 Y    GLP  0     **** GLP Y 13
     9 ALL1       13 GROUP        1 Z    ALL  0     ROOT ALL Z 15
    10 SEL2       10 GROUP        1 Z    SEL  0     **** SEL Z 16
    11 LYL4       23 GROUP        1 Z    LYL  0     **** LYL Z 18
    12 GLL5        2 GROUP        1 Z    GLL  0     **** GLL Z 20
@<TRIPOS>SET

