#    Name: 1v0p_PVB_2_ligand
#    Modification time : Tue Mar 25 07:25:27 2014

@<TRIPOS>MOLECULE
1v0p_PVB_2_ligand
   54    56     1     0     0
SMALL
NO_CHARGES


@<TRIPOS>ATOM
      1 N1         30.4460   29.1190   -5.0080 N.ar      1 PVB1287     0.0000 
      2 C9         25.9360   29.3610   -2.4260 C.3       1 PVB1287     0.0000 
      3 N9         26.8040   30.0010   -3.4610 N.pl3     1 PVB1287     0.0000 
      4 C4         28.0000   29.6170   -3.9030 C.ar      1 PVB1287     0.0000 
      5 N3         28.7800   28.4920   -3.4620 N.ar      1 PVB1287     0.0000 
      6 C2         29.9750   28.2870   -4.0440 C.ar      1 PVB1287     0.0000 
      7 C6         29.7730   30.2160   -5.4560 C.ar      1 PVB1287     0.0000 
      8 C5         28.5130   30.5250   -4.9310 C.ar      1 PVB1287     0.0000 
      9 N7         27.5770   31.4580   -5.0700 N.2       1 PVB1287     0.0000 
     10 C8         26.5560   31.1290   -4.1830 C.2       1 PVB1287     0.0000 
     11 N6         30.3280   31.0120   -6.4100 N.pl3     1 PVB1287     0.0000 
     12 C1A        31.4520   30.6400   -7.0570 C.ar      1 PVB1287     0.0000 
     13 C2A        31.3490   30.3930   -8.4310 C.ar      1 PVB1287     0.0000 
     14 C3A        32.4720   30.0110   -9.1710 C.ar      1 PVB1287     0.0000 
     15 C4A        33.7060   29.8510   -8.5240 C.ar      1 PVB1287     0.0000 
     16 C5A        33.8280   30.1050   -7.0580 C.ar      1 PVB1287     0.0000 
     17 CL1        35.1470   29.9520   -6.3310 Cl        1 PVB1287     0.0000 
     18 C6A        32.6740   30.5020   -6.3680 C.ar      1 PVB1287     0.0000 
     19 CX         34.8850   29.4300   -9.3390 C.2       1 PVB1287     0.0000 
     20 OX1        34.9250   29.8270  -10.5240 O.co2     1 PVB1287     0.0000 
     21 OX2        35.7650   28.7060   -8.8020 O.co2     1 PVB1287     0.0000 
     22 N2         30.6970   27.2180   -3.6480 N.pl3     1 PVB1287     0.0000 
     23 C12        32.0590   27.0390   -4.1040 C.3       1 PVB1287     0.0000 
     24 C13        32.4290   25.5430   -4.0730 C.3       1 PVB1287     0.0000 
     25 C16        31.6130   24.7600   -5.1020 C.3       1 PVB1287     0.0000 
     26 C14        32.2500   24.8940   -2.6980 C.3       1 PVB1287     0.0000 
     27 C15        32.9400   28.0470   -3.3310 C.3       1 PVB1287     0.0000 
     28 O1         33.8190   27.4400   -2.4080 O.3       1 PVB1287     0.0000 
     29 C11        25.7140   27.8640   -2.6780 C.3       1 PVB1287     0.0000 
     30 C10        26.5090   29.6040   -1.0360 C.3       1 PVB1287     0.0000 
     31 H          24.9457   29.8493   -2.4555 H         1 PVB1287     0.0000 
     32 H          25.7343   31.6728   -4.0967 H         1 PVB1287     0.0000 
     33 H          29.8723   31.9255   -6.6417 H         1 PVB1287     0.0000 
     34 H          30.4381   30.4937   -8.9000 H         1 PVB1287     0.0000 
     35 H          32.3962   29.8489  -10.1773 H         1 PVB1287     0.0000 
     36 H          32.7153   30.6926   -5.3632 H         1 PVB1287     0.0000 
     37 H          30.3144   26.4989   -3.0162 H         1 PVB1287     0.0000 
     38 H          32.0827   27.3610   -5.1783 H         1 PVB1287     0.0000 
     39 H          33.4838   25.4474   -4.3557 H         1 PVB1287     0.0000 
     40 H          32.2458   28.7625   -2.8357 H         1 PVB1287     0.0000 
     41 H          33.4866   28.6440   -4.0952 H         1 PVB1287     0.0000 
     42 H          31.7704   25.0927   -6.0318 H         1 PVB1287     0.0000 
     43 H          31.8433   23.7869   -5.0960 H         1 PVB1287     0.0000 
     44 H          30.6307   24.8299   -4.9281 H         1 PVB1287     0.0000 
     45 H          32.4966   23.9250   -2.7098 H         1 PVB1287     0.0000 
     46 H          32.8196   25.3330   -2.0031 H         1 PVB1287     0.0000 
     47 H          31.3035   24.9517   -2.3805 H         1 PVB1287     0.0000 
     48 H          26.5753   27.3559   -2.6796 H         1 PVB1287     0.0000 
     49 H          25.1319   27.4517   -1.9772 H         1 PVB1287     0.0000 
     50 H          25.2736   27.6972   -3.5602 H         1 PVB1287     0.0000 
     51 H          27.4304   29.2267   -0.9429 H         1 PVB1287     0.0000 
     52 H          26.5690   30.5795   -0.8244 H         1 PVB1287     0.0000 
     53 H          25.9468   29.1836   -0.3238 H         1 PVB1287     0.0000 
     54 H          34.7109   27.8545   -2.5891 H         1 PVB1287     0.0000 
@<TRIPOS>BOND
     1    6    1 ar   
     2    7    1 ar   
     3    3    2 1    
     4   29    2 1    
     5   30    2 1    
     6   31    2 1    
     7    4    3 1    
     8   10    3 1    
     9    5    4 ar   
    10    8    4 ar   
    11    6    5 ar   
    12   22    6 1    
    13    8    7 ar   
    14   11    7 1    
    15    9    8 1    
    16   10    9 2    
    17   32   10 1    
    18   12   11 1    
    19   33   11 1    
    20   13   12 ar   
    21   18   12 ar   
    22   14   13 ar   
    23   34   13 1    
    24   15   14 ar   
    25   35   14 1    
    26   16   15 ar   
    27   19   15 1    
    28   17   16 1    
    29   18   16 ar   
    30   36   18 1    
    31   20   19 ar   
    32   21   19 ar   
    33   23   22 1    
    34   37   22 1    
    35   24   23 1    
    36   27   23 1    
    37   38   23 1    
    38   25   24 1    
    39   26   24 1    
    40   39   24 1    
    41   42   25 1    
    42   43   25 1    
    43   44   25 1    
    44   45   26 1    
    45   46   26 1    
    46   47   26 1    
    47   28   27 1    
    48   40   27 1    
    49   41   27 1    
    50   54   28 1    
    51   48   29 1    
    52   49   29 1    
    53   50   29 1    
    54   51   30 1    
    55   52   30 1    
    56   53   30 1    
@<TRIPOS>SUBSTRUCTURE
     1 PVB1287     1 GROUP   
@<TRIPOS>SET

