#    Name: 4dkj_SAH_1_INTS_M
#    Modification time : Mon Apr  7 22:48:29 2014

@<TRIPOS>MOLECULE
4dkj_SAH_1_INTS_M
   74     0     9     0     0
SMALL
NO_CHARGES


@<TRIPOS>ATOM
      1 O          22.7275   27.3735   47.3585 O.2       1 ALC1        0.0000 
      2 O          23.0060   26.2250   46.6360 O.2       7 ALL1        0.0000 
      3 O          22.4490   28.5220   48.0810 O.2       4 ALP1        0.0000 
      4 O          24.1120   26.4920   47.3645 O.2       1 ALC1        0.0000 
      5 O          25.2180   26.7590   48.0930 O.2       4 ALP1        0.0000 
      6 CA         23.8290   23.0875   43.5265 C.3       3 GLC5        0.0000 
      7 CA         23.8600   25.0160   44.6010 C.3       9 GLL5        0.0000 
      8 CA         23.7980   21.1590   42.4520 C.3       6 GLP5        0.0000 
      9 CA         25.3240   25.4650   47.2130 C.3       3 GLC5        0.0000 
     10 CA         25.2770   24.9360   45.1650 C.3       9 GLL5        0.0000 
     11 CA         25.3710   25.9940   49.2610 C.3       6 GLP5        0.0000 
     12 CA         24.9640   22.3320   43.5080 C.3       3 GLC5        0.0000 
     13 CA         26.1300   23.5050   44.5640 C.3       9 GLL5        0.0000 
     14 N          19.4985   27.6775   45.0760 N.am      2 SEC2        0.0000 
     15 N          20.6370   26.7130   44.9410 N.am      8 SEL2        0.0000 
     16 N          18.3600   28.6420   45.2110 N.am      5 SEP2        0.0000 
     17 N          19.8705   26.7645   46.0890 N.am      2 SEC2        0.0000 
     18 N          19.1040   26.8160   47.2370 N.am      5 SEP2        0.0000 
     19 N          19.6845   25.5215   44.8335 N.am      2 SEC2        0.0000 
     20 N          18.7320   24.3300   44.7260 N.am      5 SEP2        0.0000 
     21 N          21.3120   26.5115   42.4020 N.am      2 SEC2        0.0000 
     22 N          21.3660   25.4970   43.5490 N.am      8 SEL2        0.0000 
     23 N          21.2580   27.5260   41.2550 N.am      5 SEP2        0.0000 
     24 N          20.0490   24.9135   44.1375 N.am      2 SEC2        0.0000 
     25 CA         29.3870   23.0870   45.6790 C.3       3 GLC5        0.0000 
     26 CA         27.8080   24.0780   44.5140 C.3       9 GLL5        0.0000 
     27 CA         30.9660   22.0960   46.8440 C.3       6 GLP5        0.0000 
     28 O          26.8235   26.4560   41.3035 O.2       1 ALC1        0.0000 
     29 O          26.7670   24.9520   41.2940 O.2       7 ALL1        0.0000 
     30 O          26.8800   27.9600   41.3130 O.2       4 ALP1        0.0000 
     31 O          27.4230   26.2450   40.4180 O.2       1 ALC1        0.0000 
     32 O          28.0790   27.5380   39.5420 O.2       4 ALP1        0.0000 
     33 CA         29.4475   23.4615   39.5045 C.3       3 GLC5        0.0000 
     34 CA         29.2560   24.7560   41.3070 C.3       9 GLL5        0.0000 
     35 CA         29.6390   22.1670   37.7020 C.3       6 GLP5        0.0000 
     36 O          28.6115   26.2820   39.7360 O.2       1 ALC1        0.0000 
     37 O          29.1440   25.0260   39.9300 O.2       7 ALL1        0.0000 
     38 CA         30.4560   26.9390   43.7940 C.3       3 GLC5        0.0000 
     39 CA         29.7080   25.9990   42.0700 C.3       9 GLL5        0.0000 
     40 CA         31.2040   27.8790   45.5180 C.3       6 GLP5        0.0000 
     41 N          33.9470   24.4850   41.7150 N.am      2 SEC2        0.0000 
     42 N          33.3690   25.9860   42.0320 N.am      8 SEL2        0.0000 
     43 N          34.5250   22.9840   41.3980 N.am      5 SEP2        0.0000 
     44 CA         34.3930   30.4920   41.0010 C.3       3 GLC5        0.0000 
     45 CA         34.0090   28.4950   41.7790 C.3       9 GLL5        0.0000 
     46 CA         34.7770   32.4890   40.2230 C.3       6 GLP5        0.0000 
     47 CA         34.9595   29.3960   43.3595 C.3       3 GLC5        0.0000 
     48 CA         35.9100   30.2970   44.9400 C.3       6 GLP5        0.0000 
     49 O          36.1950   29.6600   41.3610 O.2       1 ALC1        0.0000 
     50 O          35.3550   28.3750   41.7600 O.2       7 ALL1        0.0000 
     51 O          37.0350   30.9450   40.9620 O.2       4 ALP1        0.0000 
     52 N          34.1540   30.9285   42.1470 N.am      2 SEC2        0.0000 
     53 N          33.3930   29.6690   41.6580 N.am      8 SEL2        0.0000 
     54 N          34.9150   32.1880   42.6360 N.am      5 SEP2        0.0000 
     55 CA         31.9205   31.5715   42.2595 C.3       3 GLC5        0.0000 
     56 CA         32.0490   29.7840   41.6430 C.3       9 GLL5        0.0000 
     57 CA         31.7920   33.3590   42.8760 C.3       6 GLP5        0.0000 
     58 CA         30.2940   30.3670   40.9130 C.3       3 GLC5        0.0000 
     59 CA         28.5390   30.9500   40.1830 C.3       6 GLP5        0.0000 
     60 CA         32.1360   29.6010   39.6275 C.3       3 GLC5        0.0000 
     61 CA         32.2230   29.4180   37.6120 C.3       6 GLP5        0.0000 
     62 CA         33.4130   31.1365   40.9330 C.3       3 GLC5        0.0000 
     63 CA         23.5347   26.5265   43.3230 C.3       3 GLC5        0.0000 
     64 CA         23.6310   27.4490   41.7740 C.3       6 GLP5        0.0000 
     65 CA         21.8983   24.1035   44.9845 C.3       3 GLC5        0.0000 
     66 CA         23.0170   26.1920   45.1430 C.3       9 GLL5        0.0000 
     67 CA         20.3580   22.6030   45.0970 C.3       6 GLP5        0.0000 
     68 CA         28.3143   26.2655   44.9288 C.3       3 GLC5        0.0000 
     69 CA         28.7180   27.9710   45.9290 C.3       6 GLP5        0.0000 
     70 CA         30.6395   26.2097   40.0693 C.3       3 GLC5        0.0000 
     71 CA         31.7970   27.0420   38.4500 C.3       6 GLP5        0.0000 
     72 CA         34.7225   26.8515   43.1495 C.3       3 GLC5        0.0000 
     73 CA         33.1550   27.3010   41.8990 C.3       9 GLL5        0.0000 
     74 CA         35.8630   25.8050   44.4600 C.3       6 GLP5        0.0000 
@<TRIPOS>BOND
@<TRIPOS>SUBSTRUCTURE
     1 ALC1        1 GROUP        1 X    ALC  0     ROOT ALC X 1
     2 SEC2       14 GROUP        1 X    SEC  0     **** SEC X 2
     3 GLC5        6 GROUP        1 X    GLC  0     **** GLC X 6
     4 ALP1        3 GROUP        1 Y    ALP  0     ROOT ALP Y 8
     5 SEP2       16 GROUP        1 Y    SEP  0     **** SEP Y 9
     6 GLP5        8 GROUP        1 Y    GLP  0     **** GLP Y 13
     7 ALL1        2 GROUP        1 Z    ALL  0     ROOT ALL Z 15
     8 SEL2       15 GROUP        1 Z    SEL  0     **** SEL Z 16
     9 GLL5        7 GROUP        1 Z    GLL  0     **** GLL Z 20
@<TRIPOS>SET

