#    Name: 4dkj_SAH_1_ligand
#    Modification time : Mon Apr  7 22:48:29 2014

@<TRIPOS>MOLECULE
4dkj_SAH_1_ligand
   46    48     1     0     0
SMALL
NO_CHARGES


@<TRIPOS>ATOM
      1 N          23.0060   26.2250   46.6360 N.4       1 SAH501      0.0000 
      2 CA         23.0170   26.1920   45.1430 C.3       1 SAH501      0.0000 
      3 CB         23.8600   25.0160   44.6010 C.3       1 SAH501      0.0000 
      4 CG         25.2770   24.9360   45.1650 C.3       1 SAH501      0.0000 
      5 SD         26.1300   23.5050   44.5640 S.3       1 SAH501      0.0000 
      6 C          21.6080   26.1410   44.5390 C.2       1 SAH501      0.0000 
      7 O          20.6370   26.7130   44.9410 O.co2     1 SAH501      0.0000 
      8 OXT        21.3660   25.4970   43.5490 O.co2     1 SAH501      0.0000 
      9 C5'        27.8080   24.0780   44.5140 C.3       1 SAH501      0.0000 
     10 C4'        28.0130   25.0420   43.3430 C.3       1 SAH501      0.0000 
     11 O4'        29.2820   25.7140   43.3980 O.3       1 SAH501      0.0000 
     12 C3'        27.9190   24.3920   41.9630 C.3       1 SAH501      0.0000 
     13 O3'        26.7670   24.9520   41.2940 O.3       1 SAH501      0.0000 
     14 C2'        29.2560   24.7560   41.3070 C.3       1 SAH501      0.0000 
     15 O2'        29.1440   25.0260   39.9300 O.3       1 SAH501      0.0000 
     16 C1'        29.7080   25.9990   42.0700 C.3       1 SAH501      0.0000 
     17 N9         31.1680   26.2790   42.0190 N.pl3     1 SAH501      0.0000 
     18 C8         32.1590   25.3820   42.1100 C.2       1 SAH501      0.0000 
     19 N7         33.3690   25.9860   42.0320 N.2       1 SAH501      0.0000 
     20 C5         33.1550   27.3010   41.8990 C.ar      1 SAH501      0.0000 
     21 C6         34.0090   28.4950   41.7790 C.ar      1 SAH501      0.0000 
     22 N6         35.3550   28.3750   41.7600 N.pl3     1 SAH501      0.0000 
     23 N1         33.3930   29.6690   41.6580 N.ar      1 SAH501      0.0000 
     24 C2         32.0490   29.7840   41.6430 C.ar      1 SAH501      0.0000 
     25 N3         31.2170   28.7380   41.7300 N.ar      1 SAH501      0.0000 
     26 C4         31.7060   27.4940   41.8810 C.ar      1 SAH501      0.0000 
     27 H          23.4946   27.1160   44.7705 H         1 SAH501      0.0000 
     28 H          23.9124   25.1017   43.5021 H         1 SAH501      0.0000 
     29 H          23.3288   24.0746   44.8228 H         1 SAH501      0.0000 
     30 H          25.2977   24.8091   46.2269 H         1 SAH501      0.0000 
     31 H          25.8992   25.7465   44.8487 H         1 SAH501      0.0000 
     32 H          28.3734   23.1797   44.4182 H         1 SAH501      0.0000 
     33 H          27.9391   24.5425   45.4642 H         1 SAH501      0.0000 
     34 H          27.2097   25.8024   43.3855 H         1 SAH501      0.0000 
     35 H          27.8673   23.3494   42.0985 H         1 SAH501      0.0000 
     36 H          29.9533   23.9723   41.5394 H         1 SAH501      0.0000 
     37 H          29.1411   26.8356   41.6835 H         1 SAH501      0.0000 
     38 H          32.0334   24.4131   42.2190 H         1 SAH501      0.0000 
     39 H          35.8721   29.2291   41.7035 H         1 SAH501      0.0000 
     40 H          35.7143   27.4429   41.8040 H         1 SAH501      0.0000 
     41 H          31.6303   30.7622   41.5571 H         1 SAH501      0.0000 
     42 H          23.9272   26.3253   47.0121 H         1 SAH501      0.0000 
     43 H          22.4617   26.9871   46.9866 H         1 SAH501      0.0000 
     44 H          22.6210   25.3872   47.0232 H         1 SAH501      0.0000 
     45 H          26.8901   25.9427   41.3526 H         1 SAH501      0.0000 
     46 H          28.7634   25.9493   39.8775 H         1 SAH501      0.0000 
@<TRIPOS>BOND
     1    2    1 1    
     2   42    1 1    
     3   43    1 1    
     4   44    1 1    
     5    3    2 1    
     6    6    2 1    
     7   27    2 1    
     8    4    3 1    
     9   28    3 1    
    10   29    3 1    
    11    5    4 1    
    12   30    4 1    
    13   31    4 1    
    14    9    5 1    
    15    7    6 ar   
    16    8    6 ar   
    17   10    9 1    
    18   32    9 1    
    19   33    9 1    
    20   11   10 1    
    21   12   10 1    
    22   34   10 1    
    23   16   11 1    
    24   13   12 1    
    25   14   12 1    
    26   35   12 1    
    27   45   13 1    
    28   15   14 1    
    29   16   14 1    
    30   36   14 1    
    31   46   15 1    
    32   17   16 1    
    33   37   16 1    
    34   18   17 1    
    35   26   17 1    
    36   19   18 2    
    37   38   18 1    
    38   20   19 1    
    39   21   20 ar   
    40   26   20 ar   
    41   22   21 1    
    42   23   21 ar   
    43   39   22 1    
    44   40   22 1    
    45   24   23 ar   
    46   25   24 ar   
    47   41   24 1    
    48   26   25 ar   
@<TRIPOS>SUBSTRUCTURE
     1 SAH501      1 GROUP   
@<TRIPOS>SET

