#    Name: 4mk7_28O_1_INTS_M
#    Modification time : Tue Mar 25 12:11:16 2014

@<TRIPOS>MOLECULE
4mk7_28O_1_INTS_M
   48     0     9     0     0
SMALL
NO_CHARGES


@<TRIPOS>ATOM
      1 CA         -8.4265   12.0015   17.0225 C.3       3 GLC5        0.0000 
      2 CA         -8.2500   10.0370   17.8810 C.3       9 GLL5        0.0000 
      3 CA         -8.6030   13.9660   16.1640 C.3       6 GLP5        0.0000 
      4 CA         -5.8475   12.3065   22.0350 C.3       3 GLC5        0.0000 
      5 CA         -7.8060   11.6860   21.3690 C.3       9 GLL5        0.0000 
      6 CA         -3.8890   12.9270   22.7010 C.3       6 GLP5        0.0000 
      7 CA         -9.5205   12.5180   22.1115 C.3       3 GLC5        0.0000 
      8 CA        -11.2350   13.3500   22.8540 C.3       6 GLP5        0.0000 
      9 CA         -4.9765    9.4910   22.0180 C.3       3 GLC5        0.0000 
     10 CA         -6.0840   10.2540   20.3270 C.3       9 GLL5        0.0000 
     11 CA         -3.8690    8.7280   23.7090 C.3       6 GLP5        0.0000 
     12 CA         -4.9865   11.5905   21.5140 C.3       3 GLC5        0.0000 
     13 CA         -7.2025    8.4800   20.9485 C.3       3 GLC5        0.0000 
     14 CA         -8.3210    6.7060   21.5700 C.3       6 GLP5        0.0000 
     15 CA         -6.6540    8.5260   19.2075 C.3       3 GLC5        0.0000 
     16 CA         -7.2240    6.7980   18.0880 C.3       6 GLP5        0.0000 
     17 CA         -7.6775   13.1890   17.7120 C.3       3 GLC5        0.0000 
     18 CA         -6.7520   12.4120   19.2600 C.3       9 GLL5        0.0000 
     19 CA         -7.1025    8.3300   14.7345 C.3       3 GLC5        0.0000 
     20 CA         -6.8050    9.7610   15.9780 C.3       9 GLL5        0.0000 
     21 CA         -7.4000    6.8990   13.4910 C.3       6 GLP5        0.0000 
     22 CA         -6.0630    9.6780   14.1250 C.3       3 GLC5        0.0000 
     23 CA         -5.3210    9.5950   12.2720 C.3       6 GLP5        0.0000 
     24 CA         -7.0420   11.5780   15.5255 C.3       3 GLC5        0.0000 
     25 CA         -7.2790   13.3950   15.0730 C.3       6 GLP5        0.0000 
     26 CA         -7.0145    8.2795   17.0330 C.3       3 GLC5        0.0000 
     27 CA        -11.1400    7.9120   21.5965 C.3       3 GLC5        0.0000 
     28 CA        -11.7090    8.8470   20.0780 C.3       9 GLL5        0.0000 
     29 CA        -10.5710    6.9770   23.1150 C.3       6 GLP5        0.0000 
     30 N         -11.2890    5.3875   18.3265 N.am      2 SEC2        0.0000 
     31 N         -11.7010    6.6590   19.0770 N.am      8 SEL2        0.0000 
     32 N         -10.8770    4.1160   17.5760 N.am      5 SEP2        0.0000 
     33 O         -13.8100    5.7055   20.4825 O.2       1 ALC1        0.0000 
     34 O         -13.2520    7.1100   20.6950 O.2       7 ALL1        0.0000 
     35 O         -14.3680    4.3010   20.2700 O.2       4 ALP1        0.0000 
     36 CA        -14.6740    6.6795   23.0225 C.3       3 GLC5        0.0000 
     37 CA        -13.8340    7.9200   21.6200 C.3       9 GLL5        0.0000 
     38 CA        -15.5140    5.4390   24.4250 C.3       6 GLP5        0.0000 
     39 CA        -12.2025    7.4485   22.3675 C.3       3 GLC5        0.0000 
     40 CA         -8.7626    8.3789   20.4919 C.3       3 GLC5        0.0000 
     41 CA        -10.5480    9.3290   19.2830 C.3       9 GLL5        0.0000 
     42 CA         -4.8133   11.6425   19.4651 C.3       3 GLC5        0.0000 
     43 CA         -2.9120   11.7210   19.2140 C.3       6 GLP5        0.0000 
     44 CA        -14.3640    8.7855   23.7447 C.3       3 GLC5        0.0000 
     45 CA        -13.3880    9.1860   21.8090 C.3       9 GLL5        0.0000 
     46 CA        -15.1170    9.0180   25.7750 C.3       6 GLP5        0.0000 
     47 CA        -11.6747    8.8438   22.6798 C.3       3 GLC5        0.0000 
     48 CA        -10.4990    8.2690   23.9450 C.3       6 GLP5        0.0000 
@<TRIPOS>BOND
@<TRIPOS>SUBSTRUCTURE
     1 ALC1       33 GROUP        1 X    ALC  0     ROOT ALC X 1
     2 SEC2       30 GROUP        1 X    SEC  0     **** SEC X 2
     3 GLC5        1 GROUP        1 X    GLC  0     **** GLC X 6
     4 ALP1       35 GROUP        1 Y    ALP  0     ROOT ALP Y 8
     5 SEP2       32 GROUP        1 Y    SEP  0     **** SEP Y 9
     6 GLP5        3 GROUP        1 Y    GLP  0     **** GLP Y 13
     7 ALL1       34 GROUP        1 Z    ALL  0     ROOT ALL Z 15
     8 SEL2       31 GROUP        1 Z    SEL  0     **** SEL Z 16
     9 GLL5        2 GROUP        1 Z    GLL  0     **** GLL Z 20
@<TRIPOS>SET

