#    Name: 4mk7_28O_1_ligand
#    Modification time : Tue Mar 25 12:11:16 2014

@<TRIPOS>MOLECULE
4mk7_28O_1_ligand
   38    39     1     0     0
SMALL
NO_CHARGES


@<TRIPOS>ATOM
      1 C1        -10.5480    9.3290   19.2830 C.ar      1 28O603      0.0000 
      2 C2        -10.4250    9.0210   17.9300 C.ar      1 28O603      0.0000 
      3 C3         -9.2870    9.3720   17.2260 C.ar      1 28O603      0.0000 
      4 C4         -8.2500   10.0370   17.8810 C.ar      1 28O603      0.0000 
      5 C5         -8.3690   10.4160   19.2320 C.ar      1 28O603      0.0000 
      6 C6         -9.5310   10.0460   19.9080 C.ar      1 28O603      0.0000 
      7 C7         -7.2700   11.1780   20.0180 C.3       1 28O603      0.0000 
      8 C8         -7.8060   11.6860   21.3690 C.3       1 28O603      0.0000 
      9 C9         -6.0840   10.2540   20.3270 C.3       1 28O603      0.0000 
     10 C10        -6.7520   12.4120   19.2600 C.3       1 28O603      0.0000 
     11 O11        -7.0310   10.2660   17.2980 O.3       1 28O603      0.0000 
     12 C12        -6.8050    9.7610   15.9780 C.3       1 28O603      0.0000 
     13 C13       -11.7090    8.8470   20.0780 C.2       1 28O603      0.0000 
     14 C14       -12.1770    7.4760   19.8730 C.2       1 28O603      0.0000 
     15 O15       -11.7010    6.6590   19.0770 O.2       1 28O603      0.0000 
     16 N16       -13.2520    7.1100   20.6950 N.am      1 28O603      0.0000 
     17 C18       -13.8340    7.9200   21.6200 C.2       1 28O603      0.0000 
     18 C19       -13.3880    9.1860   21.8090 C.2       1 28O603      0.0000 
     19 C20       -12.3130    9.6510   21.0200 C.2       1 28O603      0.0000 
     20 H         -11.1950    8.5245   17.4505 H         1 28O603      0.0000 
     21 H          -9.2010    9.1472   16.2290 H         1 28O603      0.0000 
     22 H          -9.6405   10.3135   20.9074 H         1 28O603      0.0000 
     23 H         -13.6293    6.1207   20.5737 H         1 28O603      0.0000 
     24 H         -14.6320    7.5610   22.1890 H         1 28O603      0.0000 
     25 H         -13.8036    9.8117   22.5016 H         1 28O603      0.0000 
     26 H         -11.9808   10.6237   21.1643 H         1 28O603      0.0000 
     27 H          -7.1062   12.1814   21.8836 H         1 28O603      0.0000 
     28 H          -8.5792   12.3091   21.2512 H         1 28O603      0.0000 
     29 H          -8.1205   10.9352   21.9498 H         1 28O603      0.0000 
     30 H          -5.6684    9.8915   19.4928 H         1 28O603      0.0000 
     31 H          -5.3632   10.7306   20.8304 H         1 28O603      0.0000 
     32 H          -6.3594    9.4692   20.8821 H         1 28O603      0.0000 
     33 H          -6.0439   12.8944   19.7757 H         1 28O603      0.0000 
     34 H          -6.3542   12.1651   18.3763 H         1 28O603      0.0000 
     35 H          -7.4826   13.0704   19.0789 H         1 28O603      0.0000 
     36 H          -5.8886    9.9851   15.6465 H         1 28O603      0.0000 
     37 H          -6.8950    8.7658   15.9407 H         1 28O603      0.0000 
     38 H          -7.4556   10.1390   15.3193 H         1 28O603      0.0000 
@<TRIPOS>BOND
     1    2    1 ar   
     2    6    1 ar   
     3   13    1 1    
     4    3    2 ar   
     5   20    2 1    
     6    4    3 ar   
     7   21    3 1    
     8    5    4 ar   
     9   11    4 1    
    10    6    5 ar   
    11    7    5 1    
    12   22    6 1    
    13    8    7 1    
    14    9    7 1    
    15   10    7 1    
    16   27    8 1    
    17   28    8 1    
    18   29    8 1    
    19   30    9 1    
    20   31    9 1    
    21   32    9 1    
    22   33   10 1    
    23   34   10 1    
    24   35   10 1    
    25   12   11 1    
    26   36   12 1    
    27   37   12 1    
    28   38   12 1    
    29   14   13 1    
    30   19   13 2    
    31   15   14 2    
    32   16   14 am   
    33   17   16 1    
    34   23   16 1    
    35   18   17 2    
    36   24   17 1    
    37   19   18 1    
    38   25   18 1    
    39   26   19 1    
@<TRIPOS>SUBSTRUCTURE
     1 28O603      1 GROUP   
@<TRIPOS>SET

