#    Name: 1al8_DHP_1_INTS_M
#    Modification time : Mon Mar 24 18:30:02 2014

@<TRIPOS>MOLECULE
1al8_DHP_1_INTS_M
   58     0     9     0     0
SMALL
NO_CHARGES


@<TRIPOS>ATOM
      1 O          24.8575   71.0010   -3.6290 O.2       1 ALC1        0.0000 
      2 O          24.3430   71.5920   -4.9150 O.2       7 ALL1        0.0000 
      3 O          25.3720   70.4100   -2.3430 O.2       4 ALP1        0.0000 
      4 CA         24.4415   71.1270   -9.1865 C.3       3 GLC5        0.0000 
      5 CA         24.5940   71.4280   -7.0310 C.3       9 GLL5        0.0000 
      6 CA         24.2890   70.8260  -11.3420 C.3       6 GLP5        0.0000 
      7 CA         23.5670   69.9545   -7.1620 C.3       3 GLC5        0.0000 
      8 CA         22.5400   68.4810   -7.2930 C.3       6 GLP5        0.0000 
      9 N          25.8955   70.0675   -8.6565 N.am      2 SEC2        0.0000 
     10 N          24.9670   71.1230   -8.1090 N.am      8 SEL2        0.0000 
     11 N          26.8240   69.0120   -9.2040 N.am      5 SEP2        0.0000 
     12 O          24.2355   71.1755   -9.1995 O.2       1 ALC1        0.0000 
     13 O          24.9670   71.1230   -8.1090 O.2       7 ALL1        0.0000 
     14 O          23.5040   71.2280  -10.2900 O.2       4 ALP1        0.0000 
     15 N          26.7190   69.1790   -6.3620 N.am      2 SEC2        0.0000 
     16 N          26.1220   70.2170   -5.5960 N.am      8 SEL2        0.0000 
     17 N          27.3160   68.1410   -7.1280 N.am      5 SEP2        0.0000 
     18 N          22.9015   73.0120   -3.0745 N.am      2 SEC2        0.0000 
     19 N          22.8420   73.0620   -4.3450 N.am      8 SEL2        0.0000 
     20 N          22.9610   72.9620   -1.8040 N.am      5 SEP2        0.0000 
     21 CA         22.9925   70.4480   -6.3885 C.3       3 GLC5        0.0000 
     22 CA         23.5260   72.2910   -6.8530 C.3       9 GLL5        0.0000 
     23 CA         22.4590   68.6050   -5.9240 C.3       6 GLP5        0.0000 
     24 CA         22.5860   70.6945   -7.6185 C.3       3 GLC5        0.0000 
     25 CA         22.6320   72.9080   -7.9440 C.3       9 GLL5        0.0000 
     26 CA         23.1905   71.8380  -12.9550 C.3       3 GLC5        0.0000 
     27 CA         22.6420   73.5990  -13.5460 C.3       9 GLL5        0.0000 
     28 CA         23.7390   70.0770  -12.3640 C.3       6 GLP5        0.0000 
     29 CA         24.1665   72.2425  -12.7620 C.3       3 GLC5        0.0000 
     30 CA         24.0440   73.6590  -14.1820 C.3       9 GLL5        0.0000 
     31 CA         24.4620   71.0280  -14.8995 C.3       3 GLC5        0.0000 
     32 CA         24.3820   72.4130  -16.3980 C.3       9 GLL5        0.0000 
     33 CA         24.5420   69.6430  -13.4010 C.3       6 GLP5        0.0000 
     34 CA         26.5945   71.5660  -18.8610 C.3       3 GLC5        0.0000 
     35 CA         25.7620   72.4990  -17.1330 C.3       9 GLL5        0.0000 
     36 CA         27.4270   70.6330  -20.5890 C.3       6 GLP5        0.0000 
     37 CA         26.2680   70.9490  -15.8280 C.3       3 GLC5        0.0000 
     38 CA         26.7740   69.3990  -14.5230 C.3       6 GLP5        0.0000 
     39 CA         27.3775   73.0805  -16.8545 C.3       3 GLC5        0.0000 
     40 CA         28.9930   73.6620  -16.5760 C.3       6 GLP5        0.0000 
     41 CA         24.9895   73.6405  -18.4505 C.3       3 GLC5        0.0000 
     42 CA         24.2170   74.7820  -19.7680 C.3       6 GLP5        0.0000 
     43 CA         21.1665   72.3642   -7.3942 C.3       3 GLC5        0.0000 
     44 CA         19.2540   72.1290   -7.3900 C.3       6 GLP5        0.0000 
     45 CA         23.6195   72.1692   -9.8213 C.3       3 GLC5        0.0000 
     46 CA         21.9162   74.2026   -6.7959 C.3       3 GLC5        0.0000 
     47 CA         20.6590   75.0470   -5.5640 C.3       6 GLP5        0.0000 
     48 CA         23.3418   72.4865  -11.5028 C.3       3 GLC5        0.0000 
     49 CA         22.2790   73.7670  -11.0050 C.3       9 GLL5        0.0000 
     50 CA         20.3751   74.7548  -11.5155 C.3       3 GLC5        0.0000 
     51 CA         22.5100   74.5270  -12.3220 C.3       9 GLL5        0.0000 
     52 CA         18.3340   75.1330  -11.6760 C.3       6 GLP5        0.0000 
     53 CA         22.1355   72.2365  -14.6250 C.3       3 GLC5        0.0000 
     54 CA         20.9280   70.8440  -15.3860 C.3       6 GLP5        0.0000 
     55 CA         22.5610   71.9608  -15.7222 C.3       3 GLC5        0.0000 
     56 CA         24.0060   73.7420  -15.7190 C.3       9 GLL5        0.0000 
     57 CA         23.6115   73.9933  -17.5553 C.3       3 GLC5        0.0000 
     58 CA         23.0290   74.9090  -19.0520 C.3       6 GLP5        0.0000 
@<TRIPOS>BOND
@<TRIPOS>SUBSTRUCTURE
     1 ALC1        1 GROUP        1 X    ALC  0     ROOT ALC X 1
     2 SEC2        9 GROUP        1 X    SEC  0     **** SEC X 2
     3 GLC5        4 GROUP        1 X    GLC  0     **** GLC X 6
     4 ALP1        3 GROUP        1 Y    ALP  0     ROOT ALP Y 8
     5 SEP2       11 GROUP        1 Y    SEP  0     **** SEP Y 9
     6 GLP5        6 GROUP        1 Y    GLP  0     **** GLP Y 13
     7 ALL1        2 GROUP        1 Z    ALL  0     ROOT ALL Z 15
     8 SEL2       10 GROUP        1 Z    SEL  0     **** SEL Z 16
     9 GLL5        5 GROUP        1 Z    GLL  0     **** GLL Z 20
@<TRIPOS>SET

