#    Name: 1al8_DHP_1_ligand
#    Modification time : Mon Mar 24 18:30:02 2014

@<TRIPOS>MOLECULE
1al8_DHP_1_ligand
   41    41     1     0     0
SMALL
NO_CHARGES


@<TRIPOS>ATOM
      1 N1         24.3430   71.5920   -4.9150 N.am      1 DHP361      0.0000 
      2 C1         24.5940   71.4280   -7.0310 C.2       1 DHP361      0.0000 
      3 O3         24.9670   71.1230   -8.1090 O.3       1 DHP361      0.0000 
      4 C2         25.0730   71.0360   -5.8620 C.2       1 DHP361      0.0000 
      5 O2         26.1220   70.2170   -5.5960 O.2       1 DHP361      0.0000 
      6 C3         23.4580   72.4250   -5.5130 C.2       1 DHP361      0.0000 
      7 O1         22.8420   73.0620   -4.3450 O.2       1 DHP361      0.0000 
      8 C4         23.5260   72.2910   -6.8530 C.2       1 DHP361      0.0000 
      9 C5         22.6320   72.9080   -7.9440 C.3       1 DHP361      0.0000 
     10 C6         23.2680   74.1170   -8.6570 C.3       1 DHP361      0.0000 
     11 C7         22.3660   74.6850   -9.7710 C.3       1 DHP361      0.0000 
     12 C8         22.2790   73.7670  -11.0050 C.3       1 DHP361      0.0000 
     13 C9         22.5100   74.5270  -12.3220 C.3       1 DHP361      0.0000 
     14 C10        22.6420   73.5990  -13.5460 C.3       1 DHP361      0.0000 
     15 C11        24.0440   73.6590  -14.1820 C.3       1 DHP361      0.0000 
     16 C12        24.0060   73.7420  -15.7190 C.3       1 DHP361      0.0000 
     17 C13        24.3820   72.4130  -16.3980 C.3       1 DHP361      0.0000 
     18 C14        25.7620   72.4990  -17.1330 C.3       1 DHP361      0.0000 
     19 H          24.4104   71.4460   -3.9622 H         1 DHP361      0.0000 
     20 H          21.6827   73.2235   -7.4895 H         1 DHP361      0.0000 
     21 H          22.4001   72.1371   -8.6917 H         1 DHP361      0.0000 
     22 H          24.2220   73.8113   -9.0936 H         1 DHP361      0.0000 
     23 H          23.4619   74.9021   -7.9220 H         1 DHP361      0.0000 
     24 H          22.7562   75.6610  -10.0804 H         1 DHP361      0.0000 
     25 H          21.3582   74.8368   -9.3687 H         1 DHP361      0.0000 
     26 H          21.2906   73.2999  -11.0312 H         1 DHP361      0.0000 
     27 H          23.0288   72.9763  -10.9130 H         1 DHP361      0.0000 
     28 H          23.4238   75.1269  -12.2322 H         1 DHP361      0.0000 
     29 H          21.6726   75.2155  -12.4882 H         1 DHP361      0.0000 
     30 H          21.8993   73.8890  -14.2935 H         1 DHP361      0.0000 
     31 H          22.4351   72.5714  -13.2367 H         1 DHP361      0.0000 
     32 H          24.6061   72.7657  -13.8877 H         1 DHP361      0.0000 
     33 H          24.5741   74.5348  -13.7913 H         1 DHP361      0.0000 
     34 H          24.7011   74.5203  -16.0504 H         1 DHP361      0.0000 
     35 H          22.9982   74.0305  -16.0347 H         1 DHP361      0.0000 
     36 H          23.6191   72.1499  -17.1285 H         1 DHP361      0.0000 
     37 H          24.4401   71.6259  -15.6483 H         1 DHP361      0.0000 
     38 H          26.5057   72.7199  -16.5021 H         1 DHP361      0.0000 
     39 H          26.0009   71.6353  -17.5767 H         1 DHP361      0.0000 
     40 H          25.7613   73.2030  -17.8432 H         1 DHP361      0.0000 
     41 H          24.2803   71.4931   -8.7347 H         1 DHP361      0.0000 
@<TRIPOS>BOND
     1    4    1 am   
     2    6    1 am   
     3   19    1 1    
     4    3    2 1    
     5    4    2 1    
     6    8    2 2    
     7   41    3 1    
     8    5    4 2    
     9    7    6 2    
    10    8    6 1    
    11    9    8 1    
    12   10    9 1    
    13   20    9 1    
    14   21    9 1    
    15   11   10 1    
    16   22   10 1    
    17   23   10 1    
    18   12   11 1    
    19   24   11 1    
    20   25   11 1    
    21   13   12 1    
    22   26   12 1    
    23   27   12 1    
    24   14   13 1    
    25   28   13 1    
    26   29   13 1    
    27   15   14 1    
    28   30   14 1    
    29   31   14 1    
    30   16   15 1    
    31   32   15 1    
    32   33   15 1    
    33   17   16 1    
    34   34   16 1    
    35   35   16 1    
    36   18   17 1    
    37   36   17 1    
    38   37   17 1    
    39   38   18 1    
    40   39   18 1    
    41   40   18 1    
@<TRIPOS>SUBSTRUCTURE
     1 DHP361      1 GROUP   
@<TRIPOS>SET

