#    Name: 4giu_636_2_INTS_M
#    Modification time : Mon Mar 24 22:16:48 2014

@<TRIPOS>MOLECULE
4giu_636_2_INTS_M
   56     0     9     0     0
SMALL
NO_CHARGES


@<TRIPOS>ATOM
      1 N          27.2005  -30.9295    4.2780 N.am      1 SEC2        0.0000 
      2 N          26.6970  -31.5920    5.4100 N.am      7 SEL2        0.0000 
      3 N          27.7040  -30.2670    3.1460 N.am      4 SEP2        0.0000 
      4 N          25.5730  -28.9135    7.6085 N.am      1 SEC2        0.0000 
      5 N          26.2020  -29.7170    6.4200 N.am      7 SEL2        0.0000 
      6 N          24.9440  -28.1100    8.7970 N.am      4 SEP2        0.0000 
      7 CA         29.4550  -33.0935    5.5535 C.3       3 GLC5        0.0000 
      8 CA         29.0710  -31.6680    7.0350 C.3       9 GLL5        0.0000 
      9 CA         29.8390  -34.5190    4.0720 C.3       6 GLP5        0.0000 
     10 CA         30.9555  -33.2600    6.6265 C.3       3 GLC5        0.0000 
     11 CA         30.3460  -31.6200    7.5630 C.3       9 GLL5        0.0000 
     12 CA         31.5650  -34.9000    5.6900 C.3       6 GLP5        0.0000 
     13 CA         32.8370  -29.1595    7.8745 C.3       3 GLC5        0.0000 
     14 CA         31.0380  -27.9150    7.5610 C.3       9 GLL5        0.0000 
     15 CA         34.6360  -30.4040    8.1880 C.3       6 GLP5        0.0000 
     16 CA         29.5400  -28.4795    8.9165 C.3       3 GLC5        0.0000 
     17 CA         28.0420  -29.0440   10.2720 C.3       6 GLP5        0.0000 
     18 CA         31.1030  -26.0995    6.9225 C.3       3 GLC5        0.0000 
     19 CA         31.1680  -24.2840    6.2840 C.3       6 GLP5        0.0000 
     20 NZ         25.0680  -26.4710    7.3165 N.4       2 LYC4        0.0000 
     21 NZ         26.1440  -26.8210    6.4650 N.4       8 LYL4        0.0000 
     22 NZ         24.1060  -27.1130    9.0350 N.4       5 LYP4        0.0000 
     23 N          25.5440  -27.4655    7.6310 N.am      1 SEC2        0.0000 
     24 N          26.1440  -26.8210    6.4650 N.am      7 SEL2        0.0000 
     25 N          25.0680  -26.4710    7.3165 N.am      1 SEC2        0.0000 
     26 N          23.9920  -26.1210    8.1680 N.am      4 SEP2        0.0000 
     27 CA         31.0760  -29.0025    4.5520 C.3       3 GLC5        0.0000 
     28 CA         29.8740  -27.4500    4.5930 C.3       9 GLL5        0.0000 
     29 CA         32.2780  -30.5550    4.5110 C.3       6 GLP5        0.0000 
     30 CA         32.1590  -25.2240    1.6155 C.3       3 GLC5        0.0000 
     31 CA         31.5080  -26.8640    2.8040 C.3       9 GLL5        0.0000 
     32 CA         32.8100  -23.5840    0.4270 C.3       6 GLP5        0.0000 
     33 CA         33.5070  -26.9760    3.2310 C.3       3 GLC5        0.0000 
     34 CA         35.5060  -27.0880    3.6580 C.3       6 GLP5        0.0000 
     35 CA         32.3070  -27.6440    1.1930 C.3       3 GLC5        0.0000 
     36 CA         33.1060  -28.4240   -0.4180 C.3       6 GLP5        0.0000 
     37 CA         31.8930  -28.7095    3.6575 C.3       3 GLC5        0.0000 
     38 CA         31.4665  -30.7790    6.0768 C.3       3 GLC5        0.0000 
     39 CA         32.0735  -31.6135    8.6463 C.3       3 GLC5        0.0000 
     40 CA         30.9640  -30.3860    7.7220 C.3       9 GLL5        0.0000 
     41 CA         33.4920  -32.2240    9.6500 C.3       6 GLP5        0.0000 
     42 CA         30.2700  -31.5240    9.6863 C.3       3 GLC5        0.0000 
     43 CA         29.8850  -32.0450   11.7300 C.3       6 GLP5        0.0000 
     44 CA         31.4773  -29.5587    5.9835 C.3       3 GLC5        0.0000 
     45 CA         31.4539  -28.6063    9.4399 C.3       3 GLC5        0.0000 
     46 CA         32.0690  -28.3560   11.3310 C.3       6 GLP5        0.0000 
     47 CA         30.5832  -30.3644    5.6674 C.3       3 GLC5        0.0000 
     48 CA         29.0320  -29.2610    6.8040 C.3       9 GLL5        0.0000 
     49 CA         29.7313  -25.4855    5.7155 C.3       3 GLC5        0.0000 
     50 CA         28.6990  -27.2250    5.3160 C.3       9 GLL5        0.0000 
     51 CA         30.0061  -28.3075    2.4067 C.3       3 GLC5        0.0000 
     52 CA         29.2310  -29.6680    1.3730 C.3       6 GLP5        0.0000 
     53 CA         30.9746  -25.6155    4.8622 C.3       3 GLC5        0.0000 
     54 CA         30.2350  -26.6100    3.5610 C.3       9 GLL5        0.0000 
     55 CA         29.9992  -24.8513    4.9322 C.3       3 GLC5        0.0000 
     56 CA         29.4200  -25.5380    3.2280 C.3       9 GLL5        0.0000 
@<TRIPOS>BOND
@<TRIPOS>SUBSTRUCTURE
     1 SEC2        1 GROUP        1 X    SEC  0     ROOT SEC X 2
     2 LYC4       20 GROUP        1 X    LYC  0     **** LYC X 4
     3 GLC5        7 GROUP        1 X    GLC  0     **** GLC X 6
     4 SEP2        3 GROUP        1 Y    SEP  0     ROOT SEP Y 9
     5 LYP4       22 GROUP        1 Y    LYP  0     **** LYP Y 11
     6 GLP5        9 GROUP        1 Y    GLP  0     **** GLP Y 13
     7 SEL2        2 GROUP        1 Z    SEL  0     ROOT SEL Z 16
     8 LYL4       21 GROUP        1 Z    LYL  0     **** LYL Z 18
     9 GLL5        8 GROUP        1 Z    GLL  0     **** GLL Z 20
@<TRIPOS>SET

