#    Name: 4giu_636_2_ligand
#    Modification time : Mon Mar 24 22:16:48 2014

@<TRIPOS>MOLECULE
4giu_636_2_ligand
   34    35     1     0     0
SMALL
NO_CHARGES


@<TRIPOS>ATOM
      1 OX1        26.6970  -31.5920    5.4100 O.co2     1 636404      0.0000 
      2 CX0        27.0380  -30.6090    6.1150 C.2       1 636404      0.0000 
      3 OX2        26.2020  -29.7170    6.4200 O.co2     1 636404      0.0000 
      4 CX1        28.4190  -30.5050    6.6520 C.ar      1 636404      0.0000 
      5 CX6        29.0710  -31.6680    7.0350 C.ar      1 636404      0.0000 
      6 CX5        30.3460  -31.6200    7.5630 C.ar      1 636404      0.0000 
      7 CX4        30.9640  -30.3860    7.7220 C.ar      1 636404      0.0000 
      8 CX3        30.3150  -29.2100    7.3510 C.ar      1 636404      0.0000 
      9 C3         31.0380  -27.9150    7.5610 C.3       1 636404      0.0000 
     10 CX2        29.0320  -29.2610    6.8040 C.ar      1 636404      0.0000 
     11 N1         28.3130  -28.0790    6.4120 N.pl3     1 636404      0.0000 
     12 CY1        28.6990  -27.2250    5.3160 C.ar      1 636404      0.0000 
     13 CY2        27.8900  -26.1490    4.9780 C.ar      1 636404      0.0000 
     14 CY0        26.6280  -25.9070    5.7430 C.2       1 636404      0.0000 
     15 OY1        26.0640  -24.7850    5.6600 O.co2     1 636404      0.0000 
     16 OY2        26.1440  -26.8210    6.4650 O.co2     1 636404      0.0000 
     17 CY6        29.8740  -27.4500    4.5930 C.ar      1 636404      0.0000 
     18 CY5        30.2350  -26.6100    3.5610 C.ar      1 636404      0.0000 
     19 C5         31.5080  -26.8640    2.8040 C.3       1 636404      0.0000 
     20 CY4        29.4200  -25.5380    3.2280 C.ar      1 636404      0.0000 
     21 CY3        28.2410  -25.2990    3.9330 C.ar      1 636404      0.0000 
     22 H          28.5943  -32.5801    6.9227 H         1 636404      0.0000 
     23 H          30.8319  -32.4788    7.8344 H         1 636404      0.0000 
     24 H          31.9166  -30.3376    8.1201 H         1 636404      0.0000 
     25 H          27.4602  -27.8223    6.9522 H         1 636404      0.0000 
     26 H          30.4719  -28.2556    4.8408 H         1 636404      0.0000 
     27 H          29.6856  -24.9107    2.4530 H         1 636404      0.0000 
     28 H          27.6424  -24.5089    3.6846 H         1 636404      0.0000 
     29 H          31.2660  -27.7688    8.5236 H         1 636404      0.0000 
     30 H          31.8958  -27.8812    7.0482 H         1 636404      0.0000 
     31 H          30.4899  -27.1318    7.2674 H         1 636404      0.0000 
     32 H          32.3089  -26.8284    3.4017 H         1 636404      0.0000 
     33 H          31.5075  -27.7639    2.3679 H         1 636404      0.0000 
     34 H          31.6514  -26.1881    2.0811 H         1 636404      0.0000 
@<TRIPOS>BOND
     1    2    1 ar   
     2    3    2 ar   
     3    4    2 1    
     4    5    4 ar   
     5   10    4 ar   
     6    6    5 ar   
     7   22    5 1    
     8    7    6 ar   
     9   23    6 1    
    10    8    7 ar   
    11   24    7 1    
    12    9    8 1    
    13   10    8 ar   
    14   29    9 1    
    15   30    9 1    
    16   31    9 1    
    17   11   10 1    
    18   12   11 1    
    19   25   11 1    
    20   13   12 ar   
    21   17   12 ar   
    22   14   13 1    
    23   21   13 ar   
    24   15   14 ar   
    25   16   14 ar   
    26   18   17 ar   
    27   26   17 1    
    28   19   18 1    
    29   20   18 ar   
    30   32   19 1    
    31   33   19 1    
    32   34   19 1    
    33   21   20 ar   
    34   27   20 1    
    35   28   21 1    
@<TRIPOS>SUBSTRUCTURE
     1 636404      1 GROUP   
@<TRIPOS>SET

