#    Name: 1gyp_NAD_2_INTS_M
#    Modification time : Tue Mar 25 04:10:44 2014

@<TRIPOS>MOLECULE
1gyp_NAD_2_INTS_M
   68     0     9     0     0
SMALL
NO_CHARGES


@<TRIPOS>ATOM
      1 N          55.9715   47.1200   76.5810 N.am      2 SEC2        0.0000 
      2 N          55.8950   48.5410   76.2480 N.am      8 SEL2        0.0000 
      3 N          56.0480   45.6990   76.9140 N.am      5 SEP2        0.0000 
      4 CA         57.7465   46.1995   70.9105 C.3       3 GLC5        0.0000 
      5 CA         57.4410   47.6930   72.1640 C.3       9 GLL5        0.0000 
      6 CA         58.0520   44.7060   69.6570 C.3       6 GLP5        0.0000 
      7 O          60.1550   47.1070   72.7580 O.2       1 ALC1        0.0000 
      8 O          59.3260   47.9890   73.6650 O.2       7 ALL1        0.0000 
      9 O          60.9840   46.2250   71.8510 O.2       4 ALP1        0.0000 
     10 O          61.5395   48.5330   71.7970 O.2       1 ALC1        0.0000 
     11 O          60.4930   49.4170   71.8350 O.2       7 ALL1        0.0000 
     12 O          62.5860   47.6490   71.7590 O.2       4 ALP1        0.0000 
     13 O          60.7385   47.8210   71.8430 O.2       1 ALC1        0.0000 
     14 CA         58.4680   46.4885   70.0635 C.3       3 GLC5        0.0000 
     15 CA         58.8840   48.2710   70.4700 C.3       9 GLL5        0.0000 
     16 CA         56.8790   47.7395   69.6205 C.3       3 GLC5        0.0000 
     17 CA         54.8740   47.2080   68.7710 C.3       6 GLP5        0.0000 
     18 O          59.6765   48.8420   63.1305 O.2       1 ALC1        0.0000 
     19 O          59.2470   49.5850   64.6470 O.2       7 ALL1        0.0000 
     20 O          60.1060   48.0990   61.6140 O.2       4 ALP1        0.0000 
     21 CA         58.9730   45.6250   68.0340 C.3       3 GLC5        0.0000 
     22 CA         59.8940   46.5440   66.4110 C.3       9 GLL5        0.0000 
     23 CA         61.1020   45.0185   65.9750 C.3       3 GLC5        0.0000 
     24 CA         62.3100   43.4930   65.5390 C.3       6 GLP5        0.0000 
     25 CA         61.4045   46.1500   67.7890 C.3       3 GLC5        0.0000 
     26 CA         62.9150   45.7560   69.1670 C.3       6 GLP5        0.0000 
     27 CA         61.8265   47.1080   65.9015 C.3       3 GLC5        0.0000 
     28 CA         63.7590   47.6720   65.3920 C.3       6 GLP5        0.0000 
     29 CA         58.1240   46.4520   66.6120 C.3       3 GLC5        0.0000 
     30 CA         56.3540   46.3600   66.8130 C.3       6 GLP5        0.0000 
     31 CA         58.6520   46.4170   68.8260 C.3       3 GLC5        0.0000 
     32 CA         59.2520   48.1280   67.9950 C.3       9 GLL5        0.0000 
     33 N          53.6810   45.0660   75.7350 N.am      2 SEC2        0.0000 
     34 N          53.6110   46.2280   74.9070 N.am      8 SEL2        0.0000 
     35 N          53.7510   43.9040   76.5630 N.am      5 SEP2        0.0000 
     36 CA         49.8105   45.0170   74.5345 C.3       3 GLC5        0.0000 
     37 CA         48.6840   46.2620   73.1280 C.3       9 GLL5        0.0000 
     38 CA         50.9370   43.7720   75.9410 C.3       6 GLP5        0.0000 
     39 CA         47.5715   46.1960   71.2490 C.3       3 GLC5        0.0000 
     40 CA         46.4590   46.1300   69.3700 C.3       6 GLP5        0.0000 
     41 N          47.6235   46.9225   80.5280 N.am      2 SEC2        0.0000 
     42 N          47.8490   47.0410   79.0170 N.am      8 SEL2        0.0000 
     43 N          47.3980   46.8040   82.0390 N.am      5 SEP2        0.0000 
     44 CA         48.6930   44.1560   77.0440 C.3       3 GLC5        0.0000 
     45 CA         46.9170   45.2630   76.8480 C.3       9 GLL5        0.0000 
     46 CA         50.4690   43.0490   77.2400 C.3       6 GLP5        0.0000 
     47 CA         46.2095   42.6750   76.5545 C.3       3 GLC5        0.0000 
     48 CA         46.3910   44.7230   75.6720 C.3       9 GLL5        0.0000 
     49 CA         46.0280   40.6270   77.4370 C.3       6 GLP5        0.0000 
     50 CA         48.9595   44.3935   75.1945 C.3       3 GLC5        0.0000 
     51 CA         46.9820   45.0150   74.4480 C.3       9 GLL5        0.0000 
     52 CA         55.8092   47.5662   70.5468 C.3       3 GLC5        0.0000 
     53 CA         57.6906   46.9754   73.8639 C.3       3 GLC5        0.0000 
     54 CA         56.0480   48.1560   72.4810 C.3       9 GLL5        0.0000 
     55 CA         57.7940   45.6600   75.1800 C.3       6 GLP5        0.0000 
     56 CA         61.0560   49.6570   67.7203 C.3       3 GLC5        0.0000 
     57 CA         62.9180   50.7320   67.9590 C.3       6 GLP5        0.0000 
     58 CA         57.6935   50.2602   65.9090 C.3       3 GLC5        0.0000 
     59 CA         59.1360   49.0360   66.9680 C.3       9 GLL5        0.0000 
     60 CA         56.1270   51.6530   65.5150 C.3       6 GLP5        0.0000 
     61 CA         57.8050   47.4289   66.9810 C.3       3 GLC5        0.0000 
     62 CA         51.0939   48.2448   70.4449 C.3       3 GLC5        0.0000 
     63 CA         49.7900   47.9010   71.8680 C.3       9 GLL5        0.0000 
     64 CA         51.6030   49.1090   68.8070 C.3       6 GLP5        0.0000 
     65 CA         49.6400   44.9993   76.0772 C.3       3 GLC5        0.0000 
     66 CA         48.6480   46.3610   75.6030 C.3       9 GLL5        0.0000 
     67 CA         45.4711   45.7556   77.1230 C.3       3 GLC5        0.0000 
     68 CA         44.0080   46.3110   77.9920 C.3       6 GLP5        0.0000 
@<TRIPOS>BOND
@<TRIPOS>SUBSTRUCTURE
     1 ALC1        7 GROUP        1 X    ALC  0     ROOT ALC X 1
     2 SEC2        1 GROUP        1 X    SEC  0     **** SEC X 2
     3 GLC5        4 GROUP        1 X    GLC  0     **** GLC X 6
     4 ALP1        9 GROUP        1 Y    ALP  0     ROOT ALP Y 8
     5 SEP2        3 GROUP        1 Y    SEP  0     **** SEP Y 9
     6 GLP5        6 GROUP        1 Y    GLP  0     **** GLP Y 13
     7 ALL1        8 GROUP        1 Z    ALL  0     ROOT ALL Z 15
     8 SEL2        2 GROUP        1 Z    SEL  0     **** SEL Z 16
     9 GLL5        5 GROUP        1 Z    GLL  0     **** GLL Z 20
@<TRIPOS>SET

