#    Name: 1gyp_NAD_2_ligand
#    Modification time : Tue Mar 25 04:10:44 2014

@<TRIPOS>MOLECULE
1gyp_NAD_2_ligand
   70    74     1     0     0
SMALL
NO_CHARGES


@<TRIPOS>ATOM
      1 PA         55.3640   48.9310   74.8960 P.3       1 NAD361      0.0000 
      2 O1A        55.6270   50.3110   74.3700 O.co2     1 NAD361      0.0000 
      3 O2A        55.8950   48.5410   76.2480 O.co2     1 NAD361      0.0000 
      4 O5B        55.8760   47.8240   73.8540 O.3       1 NAD361      0.0000 
      5 C5B        56.0480   48.1560   72.4810 C.3       1 NAD361      0.0000 
      6 C4B        57.4410   47.6930   72.1640 C.3       1 NAD361      0.0000 
      7 O4B        57.5940   47.7160   70.7450 O.3       1 NAD361      0.0000 
      8 C3B        58.4300   48.6570   72.7730 C.3       1 NAD361      0.0000 
      9 O3B        59.3260   47.9890   73.6650 O.3       1 NAD361      0.0000 
     10 C2B        59.1050   49.2850   71.5700 C.3       1 NAD361      0.0000 
     11 O2B        60.4930   49.4170   71.8350 O.3       1 NAD361      0.0000 
     12 C1B        58.8840   48.2710   70.4700 C.3       1 NAD361      0.0000 
     13 N9A        58.9280   48.8230   69.0900 N.pl3     1 NAD361      0.0000 
     14 C8A        58.6390   50.0770   68.7190 C.2       1 NAD361      0.0000 
     15 N7A        58.7650   50.2330   67.3920 N.2       1 NAD361      0.0000 
     16 C5A        59.1360   49.0360   66.9680 C.ar      1 NAD361      0.0000 
     17 C6A        59.3840   48.6990   65.6380 C.ar      1 NAD361      0.0000 
     18 N6A        59.2470   49.5850   64.6470 N.pl3     1 NAD361      0.0000 
     19 N1A        59.7680   47.4200   65.4100 N.ar      1 NAD361      0.0000 
     20 C2A        59.8940   46.5440   66.4110 C.ar      1 NAD361      0.0000 
     21 N3A        59.6350   46.8680   67.6760 N.ar      1 NAD361      0.0000 
     22 C4A        59.2520   48.1280   67.9950 C.ar      1 NAD361      0.0000 
     23 O3         53.7860   48.7270   74.8430 O.3       1 NAD361      0.0000 
     24 PN         52.8090   47.4920   75.0360 P.3       1 NAD361      0.0000 
     25 O1N        51.9450   47.7570   76.2320 O.co2     1 NAD361      0.0000 
     26 O2N        53.6110   46.2280   74.9070 O.co2     1 NAD361      0.0000 
     27 O5D        51.8580   47.7060   73.7810 O.3       1 NAD361      0.0000 
     28 C5D        52.0740   47.0360   72.5450 C.3       1 NAD361      0.0000 
     29 C4D        50.6850   46.6840   72.0500 C.3       1 NAD361      0.0000 
     30 O4D        50.0530   45.8440   73.0360 O.3       1 NAD361      0.0000 
     31 C3D        49.7900   47.9010   71.8680 C.3       1 NAD361      0.0000 
     32 O3D        49.1670   47.8560   70.5850 O.3       1 NAD361      0.0000 
     33 C2D        48.7570   47.7590   72.9670 C.3       1 NAD361      0.0000 
     34 O2D        47.4790   48.3140   72.6620 O.3       1 NAD361      0.0000 
     35 C1D        48.6840   46.2620   73.1280 C.3       1 NAD361      0.0000 
     36 N1N        48.1100   45.8410   74.4190 N.pl3     1 NAD361      0.0000 
     37 C2N        48.6480   46.3610   75.6030 C.ar      1 NAD361      0.0000 
     38 C3N        48.0380   46.0920   76.8240 C.ar      1 NAD361      0.0000 
     39 C7N        48.6090   46.6980   78.1090 C.2       1 NAD361      0.0000 
     40 O7N        47.8490   47.0410   79.0170 O.2       1 NAD361      0.0000 
     41 N7N        49.9260   46.8370   78.1740 N.am      1 NAD361      0.0000 
     42 C4N        46.9170   45.2630   76.8480 C.ar      1 NAD361      0.0000 
     43 C5N        46.3910   44.7230   75.6720 C.ar      1 NAD361      0.0000 
     44 C6N        46.9820   45.0150   74.4480 C.ar      1 NAD361      0.0000 
     45 H          55.9878   49.2179   72.3110 H         1 NAD361      0.0000 
     46 H          55.3543   47.6292   71.8475 H         1 NAD361      0.0000 
     47 H          57.5942   46.7249   72.5651 H         1 NAD361      0.0000 
     48 H          57.8551   49.4314   73.2653 H         1 NAD361      0.0000 
     49 H          58.6207   50.1771   71.3285 H         1 NAD361      0.0000 
     50 H          59.6352   47.4923   70.5836 H         1 NAD361      0.0000 
     51 H          58.3682   50.7949   69.3401 H         1 NAD361      0.0000 
     52 H          58.9523   50.5024   64.9146 H         1 NAD361      0.0000 
     53 H          59.4515   49.2511   63.7268 H         1 NAD361      0.0000 
     54 H          60.2121   45.5551   66.1875 H         1 NAD361      0.0000 
     55 H          52.6329   46.1225   72.6683 H         1 NAD361      0.0000 
     56 H          52.5450   47.6719   71.8130 H         1 NAD361      0.0000 
     57 H          50.7596   46.1644   71.1148 H         1 NAD361      0.0000 
     58 H          50.3594   48.7689   72.0383 H         1 NAD361      0.0000 
     59 H          49.1888   48.1523   73.8723 H         1 NAD361      0.0000 
     60 H          48.1252   45.8609   72.3056 H         1 NAD361      0.0000 
     61 H          49.4947   46.9416   75.5653 H         1 NAD361      0.0000 
     62 H          50.4439   46.4934   77.3906 H         1 NAD361      0.0000 
     63 H          50.2822   47.2728   79.0005 H         1 NAD361      0.0000 
     64 H          46.4657   45.0431   77.7532 H         1 NAD361      0.0000 
     65 H          45.5674   44.1105   75.7147 H         1 NAD361      0.0000 
     66 H          46.6012   44.6341   73.5816 H         1 NAD361      0.0000 
     67 H          59.9132   47.4349   73.0749 H         1 NAD361      0.0000 
     68 H          60.8758   48.5084   71.6680 H         1 NAD361      0.0000 
     69 H          48.2403   48.2004   70.7352 H         1 NAD361      0.0000 
     70 H          46.8340   47.5593   72.7819 H         1 NAD361      0.0000 
@<TRIPOS>BOND
     1    2    1 ar   
     2    3    1 ar   
     3    4    1 1    
     4   23    1 1    
     5    5    4 1    
     6    6    5 1    
     7   45    5 1    
     8   46    5 1    
     9    7    6 1    
    10    8    6 1    
    11   47    6 1    
    12   12    7 1    
    13    9    8 1    
    14   10    8 1    
    15   48    8 1    
    16   67    9 1    
    17   11   10 1    
    18   12   10 1    
    19   49   10 1    
    20   68   11 1    
    21   13   12 1    
    22   50   12 1    
    23   14   13 1    
    24   22   13 1    
    25   15   14 2    
    26   51   14 1    
    27   16   15 1    
    28   17   16 ar   
    29   22   16 ar   
    30   18   17 1    
    31   19   17 ar   
    32   52   18 1    
    33   53   18 1    
    34   20   19 ar   
    35   21   20 ar   
    36   54   20 1    
    37   22   21 ar   
    38   24   23 1    
    39   25   24 ar   
    40   26   24 ar   
    41   27   24 1    
    42   28   27 1    
    43   29   28 1    
    44   55   28 1    
    45   56   28 1    
    46   30   29 1    
    47   31   29 1    
    48   57   29 1    
    49   35   30 1    
    50   32   31 1    
    51   33   31 1    
    52   58   31 1    
    53   69   32 1    
    54   34   33 1    
    55   35   33 1    
    56   59   33 1    
    57   70   34 1    
    58   36   35 1    
    59   60   35 1    
    60   37   36 ar   
    61   44   36 ar   
    62   38   37 ar   
    63   61   37 1    
    64   39   38 1    
    65   42   38 ar   
    66   40   39 2    
    67   41   39 am   
    68   62   41 1    
    69   63   41 1    
    70   43   42 ar   
    71   64   42 1    
    72   44   43 ar   
    73   65   43 1    
    74   66   44 1    
@<TRIPOS>SUBSTRUCTURE
     1 NAD361      1 GROUP   
@<TRIPOS>SET

