#    Name: 3b2e_ADP_4_INTS_M
#    Modification time : Mon Mar 24 18:48:18 2014

@<TRIPOS>MOLECULE
3b2e_ADP_4_INTS_M
   51     0    12     0     0
SMALL
NO_CHARGES


@<TRIPOS>ATOM
      1 NZ         16.2235  -14.7210  -22.1485 N.4       3 LYC4        0.0000 
      2 NZ         16.9650  -14.6190  -20.5400 N.4      11 LYL4        0.0000 
      3 NZ         15.4820  -14.8230  -23.7570 N.4       7 LYP4        0.0000 
      4 N          15.7020  -14.8560  -20.1095 N.am      2 SEC2        0.0000 
      5 N          16.9650  -14.6190  -20.5400 N.am     10 SEL2        0.0000 
      6 N          14.4390  -15.0930  -19.6790 N.am      6 SEP2        0.0000 
      7 NZ         17.1985  -14.4860  -22.9185 N.4       3 LYC4        0.0000 
      8 NZ         18.9150  -14.1490  -22.0800 N.4      11 LYL4        0.0000 
      9 NZ         16.7630  -15.7045  -22.7310 N.4       3 LYC4        0.0000 
     10 NZ         18.0440  -16.5860  -21.7050 N.4      11 LYL4        0.0000 
     11 N          15.8940  -15.7610  -17.4545 N.am      2 SEC2        0.0000 
     12 N          17.4150  -15.6880  -18.0520 N.am     10 SEL2        0.0000 
     13 N          14.3730  -15.8340  -16.8570 N.am      6 SEP2        0.0000 
     14 N          16.9225  -15.9250  -16.5100 N.am      2 SEC2        0.0000 
     15 N          16.4300  -16.1620  -14.9680 N.am      6 SEP2        0.0000 
     16 CA         21.4720  -19.4760  -13.2635 C.3       4 GLC5        0.0000 
     17 CA         20.2560  -18.0690  -14.3530 C.3      12 GLL5        0.0000 
     18 CA         22.6880  -20.8830  -12.1740 C.3       8 GLP5        0.0000 
     19 CA         21.3365  -18.2685  -11.7645 C.3       4 GLC5        0.0000 
     20 CA         20.7560  -17.2040  -13.2190 C.3      12 GLL5        0.0000 
     21 CA         21.9170  -19.3330  -10.3100 C.3       8 GLP5        0.0000 
     22 N          20.6965  -18.3895  -11.3530 N.am      2 SEC2        0.0000 
     23 N          21.8260  -17.8430  -12.5280 N.am     10 SEL2        0.0000 
     24 N          19.5670  -18.9360  -10.1780 N.am      6 SEP2        0.0000 
     25 N          19.0375  -11.7240  -13.8370 N.am      2 SEC2        0.0000 
     26 N          19.4640  -12.9500  -13.0680 N.am     10 SEL2        0.0000 
     27 N          18.6110  -10.4980  -14.6060 N.am      6 SEP2        0.0000 
     28 CA         21.0685  -11.5870  -12.8800 C.3       4 GLC5        0.0000 
     29 CA         20.0850  -13.1680  -11.8890 C.3      12 GLL5        0.0000 
     30 CA         22.0520  -10.0060  -13.8710 C.3       8 GLP5        0.0000 
     31 CA         19.6840  -12.7430   -8.4575 C.3       4 GLC5        0.0000 
     32 CA         20.1180  -12.5110  -10.6260 C.3      12 GLL5        0.0000 
     33 CA         19.2500  -12.9750   -6.2890 C.3       8 GLP5        0.0000 
     34 O          18.6025  -10.4510  -11.5700 O.2       1 ALC1        0.0000 
     35 O          19.3980  -11.3450  -10.4210 O.2       9 ALL1        0.0000 
     36 O          17.8070   -9.5570  -12.7190 O.2       5 ALP1        0.0000 
     37 O          19.3310  -10.4615   -9.4630 O.2       1 ALC1        0.0000 
     38 O          19.2640   -9.5780   -8.5050 O.2       5 ALP1        0.0000 
     39 N          21.3275  -12.4730   -8.5705 N.am      2 SEC2        0.0000 
     40 N          20.8740  -13.0400   -9.6420 N.am     10 SEL2        0.0000 
     41 N          21.7810  -11.9060   -7.4990 N.am      6 SEP2        0.0000 
     42 CA         22.7005  -12.7515  -10.1785 C.3       4 GLC5        0.0000 
     43 CA         21.5710  -14.1580   -9.8230 C.3      12 GLL5        0.0000 
     44 CA         23.8300  -11.3450  -10.5340 C.3       8 GLP5        0.0000 
     45 CA         21.1825  -14.0045   -8.1190 C.3       4 GLC5        0.0000 
     46 CA         20.7940  -13.8510   -6.4150 C.3       8 GLP5        0.0000 
     47 CA         19.9140  -15.3065   -9.2685 C.3       4 GLC5        0.0000 
     48 CA         18.2570  -16.4550   -8.7140 C.3       8 GLP5        0.0000 
     49 CA         18.8633  -13.9477   -9.9443 C.3       4 GLC5        0.0000 
     50 CA         17.6250  -15.0560   -8.6310 C.3       8 GLP5        0.0000 
     51 CA         22.1496  -12.4694  -11.0879 C.3       4 GLC5        0.0000 
@<TRIPOS>BOND
@<TRIPOS>SUBSTRUCTURE
     1 ALC1       34 GROUP        1 X    ALC  0     ROOT ALC X 1
     2 SEC2        4 GROUP        1 X    SEC  0     **** SEC X 2
     3 LYC4        1 GROUP        1 X    LYC  0     **** LYC X 4
     4 GLC5       16 GROUP        1 X    GLC  0     **** GLC X 6
     5 ALP1       36 GROUP        1 Y    ALP  0     ROOT ALP Y 8
     6 SEP2        6 GROUP        1 Y    SEP  0     **** SEP Y 9
     7 LYP4        3 GROUP        1 Y    LYP  0     **** LYP Y 11
     8 GLP5       18 GROUP        1 Y    GLP  0     **** GLP Y 13
     9 ALL1       35 GROUP        1 Z    ALL  0     ROOT ALL Z 15
    10 SEL2        5 GROUP        1 Z    SEL  0     **** SEL Z 16
    11 LYL4        2 GROUP        1 Z    LYL  0     **** LYL Z 18
    12 GLL5       17 GROUP        1 Z    GLL  0     **** GLL Z 20
@<TRIPOS>SET

