#    Name: 3b2e_ADP_4_ligand
#    Modification time : Mon Mar 24 18:48:18 2014

@<TRIPOS>MOLECULE
3b2e_ADP_4_ligand
   39    41     1     0     0
SMALL
NO_CHARGES


@<TRIPOS>ATOM
      1 PB         18.2510  -15.1520  -21.0070 P.3       1 ADP401      0.0000 
      2 O1B        16.9650  -14.6190  -20.5400 O.co2     1 ADP401      0.0000 
      3 O2B        18.9150  -14.1490  -22.0800 O.co2     1 ADP401      0.0000 
      4 O3B        18.0440  -16.5860  -21.7050 O.co2     1 ADP401      0.0000 
      5 PA         18.6340  -16.2800  -18.6460 P.3       1 ADP401      0.0000 
      6 O1A        17.4150  -15.6880  -18.0520 O.co2     1 ADP401      0.0000 
      7 O2A        18.3390  -17.7410  -19.2580 O.co2     1 ADP401      0.0000 
      8 O3A        19.2550  -15.3070  -19.7800 O.3       1 ADP401      0.0000 
      9 O5'        19.7530  -16.3800  -17.5490 O.3       1 ADP401      0.0000 
     10 C5'        19.3390  -17.2110  -16.5040 C.3       1 ADP401      0.0000 
     11 C4'        20.5210  -17.2110  -15.5870 C.3       1 ADP401      0.0000 
     12 O4'        20.7750  -16.0610  -15.2790 O.3       1 ADP401      0.0000 
     13 C3'        20.2560  -18.0690  -14.3530 C.3       1 ADP401      0.0000 
     14 O3'        20.9560  -19.3200  -14.4750 O.3       1 ADP401      0.0000 
     15 C2'        20.7560  -17.2040  -13.2190 C.3       1 ADP401      0.0000 
     16 O2'        21.8260  -17.8430  -12.5280 O.3       1 ADP401      0.0000 
     17 C1'        21.2220  -15.9550  -13.9190 C.3       1 ADP401      0.0000 
     18 N9         20.6360  -14.7700  -13.3040 N.pl3     1 ADP401      0.0000 
     19 C8         19.7870  -13.8850  -13.9000 C.2       1 ADP401      0.0000 
     20 N7         19.4640  -12.9500  -13.0680 N.2       1 ADP401      0.0000 
     21 C5         20.0850  -13.1680  -11.8890 C.ar      1 ADP401      0.0000 
     22 C6         20.1180  -12.5110  -10.6260 C.ar      1 ADP401      0.0000 
     23 N6         19.3980  -11.3450  -10.4210 N.pl3     1 ADP401      0.0000 
     24 N1         20.8740  -13.0400   -9.6420 N.ar      1 ADP401      0.0000 
     25 C2         21.5710  -14.1580   -9.8230 C.ar      1 ADP401      0.0000 
     26 N3         21.5610  -14.7970  -10.9860 N.ar      1 ADP401      0.0000 
     27 C4         20.8370  -14.3480  -12.0260 C.ar      1 ADP401      0.0000 
     28 H          19.1528  -18.2215  -16.8254 H         1 ADP401      0.0000 
     29 H          18.4902  -16.8174  -15.9713 H         1 ADP401      0.0000 
     30 H          21.3320  -17.7349  -16.1415 H         1 ADP401      0.0000 
     31 H          19.2019  -18.1818  -14.2628 H         1 ADP401      0.0000 
     32 H          19.9322  -16.9585  -12.5970 H         1 ADP401      0.0000 
     33 H          22.2906  -15.9196  -13.8770 H         1 ADP401      0.0000 
     34 H          19.4864  -13.9800  -14.8334 H         1 ADP401      0.0000 
     35 H          18.9002  -10.9903  -11.2125 H         1 ADP401      0.0000 
     36 H          19.4385  -10.9591   -9.4993 H         1 ADP401      0.0000 
     37 H          22.1448  -14.5449   -9.0227 H         1 ADP401      0.0000 
     38 H          20.2687  -20.0207  -14.2837 H         1 ADP401      0.0000 
     39 H          21.8496  -18.7741  -12.8921 H         1 ADP401      0.0000 
@<TRIPOS>BOND
     1    2    1 ar   
     2    3    1 ar   
     3    4    1 ar   
     4    8    1 1    
     5    6    5 ar   
     6    7    5 ar   
     7    8    5 1    
     8    9    5 1    
     9   10    9 1    
    10   11   10 1    
    11   28   10 1    
    12   29   10 1    
    13   12   11 1    
    14   13   11 1    
    15   30   11 1    
    16   17   12 1    
    17   14   13 1    
    18   15   13 1    
    19   31   13 1    
    20   38   14 1    
    21   16   15 1    
    22   17   15 1    
    23   32   15 1    
    24   39   16 1    
    25   18   17 1    
    26   33   17 1    
    27   19   18 1    
    28   27   18 1    
    29   20   19 2    
    30   34   19 1    
    31   21   20 1    
    32   22   21 ar   
    33   27   21 ar   
    34   23   22 1    
    35   24   22 ar   
    36   35   23 1    
    37   36   23 1    
    38   25   24 ar   
    39   26   25 ar   
    40   37   25 1    
    41   27   26 ar   
@<TRIPOS>SUBSTRUCTURE
     1 ADP401      1 GROUP   
@<TRIPOS>SET

