#    Name: 1npa_3NH_1_ligand
#    Modification time : Mon Mar 24 18:29:58 2014

@<TRIPOS>MOLECULE
1npa_3NH_1_ligand
   89    94     1     0     0
SMALL
NO_CHARGES


@<TRIPOS>ATOM
      1 O2          8.2490   28.8630    3.7620 O.3       1 3NH100      0.0000 
      2 C1          7.8180   27.9180    4.3650 C.3       1 3NH100      0.0000 
      3 O1          8.5760   27.2840    5.2550 O.3       1 3NH100      0.0000 
      4 C20         8.1890   26.1200    6.0240 C.3       1 3NH100      0.0000 
      5 C22         7.4440   26.6540    7.2600 C.3       1 3NH100      0.0000 
      6 C23         8.6370   27.1610    8.0100 C.ar      1 3NH100      0.0000 
      7 C24         8.6320   28.1110    9.0310 C.ar      1 3NH100      0.0000 
      8 C25         9.8220   28.3700    9.6880 C.ar      1 3NH100      0.0000 
      9 C26        11.0070   27.7100    9.3180 C.ar      1 3NH100      0.0000 
     10 C27        11.0110   26.7750    8.2760 C.ar      1 3NH100      0.0000 
     11 C28         9.8170   26.5070    7.6230 C.ar      1 3NH100      0.0000 
     12 C19         9.5250   25.5000    6.5350 C.3       1 3NH100      0.0000 
     13 C35        10.5560   25.2870    5.4780 C.3       1 3NH100      0.0000 
     14 C17        10.9040   23.9890    4.9990 C.2       1 3NH100      0.0000 
     15 O18        10.5420   22.9290    5.4510 O.2       1 3NH100      0.0000 
     16 C09        11.9120   24.1240    3.8330 C.3       1 3NH100      0.0000 
     17 N29        12.1730   25.5640    3.8210 N.3       1 3NH100      0.0000 
     18 C30        11.2700   26.1570    4.7970 C.3       1 3NH100      0.0000 
     19 C10        11.2700   23.5450    2.5540 C.3       1 3NH100      0.0000 
     20 C11         9.8450   24.0490    2.3930 C.ar      1 3NH100      0.0000 
     21 C12         9.6550   25.2680    1.7570 C.ar      1 3NH100      0.0000 
     22 C13         8.4140   25.7910    1.5750 C.ar      1 3NH100      0.0000 
     23 C14         7.3390   25.1140    2.0520 C.ar      1 3NH100      0.0000 
     24 C15         7.5240   23.8880    2.6860 C.ar      1 3NH100      0.0000 
     25 C16         8.7640   23.3480    2.8700 C.ar      1 3NH100      0.0000 
     26 C08        13.2080   23.3510    4.2340 C.3       1 3NH100      0.0000 
     27 C06        13.9690   24.0870    5.4140 C.3       1 3NH100      0.0000 
     28 O07        14.9650   24.8220    4.6790 O.3       1 3NH100      0.0000 
     29 C05        14.6830   23.1010    6.3600 C.3       1 3NH100      0.0000 
     30 NP4        15.5800   22.1280    5.6740 N.am      1 3NH100      0.0000 
     31 C02        15.2890   20.8480    5.2260 C.2       1 3NH100      0.0000 
     32 O03        14.2150   20.3330    5.1510 O.2       1 3NH100      0.0000 
     33 O01        16.3590   20.2300    4.8580 O.3       1 3NH100      0.0000 
     34 C44        16.3970   19.1880    3.9240 C.3       1 3NH100      0.0000 
     35 C45        17.5580   18.2690    3.8740 C.3       1 3NH100      0.0000 
     36 O46        17.8440   18.4280    2.5150 O.3       1 3NH100      0.0000 
     37 C47        16.6140   18.4100    1.7530 C.3       1 3NH100      0.0000 
     38 C48        15.5140   18.8350    2.7580 C.3       1 3NH100      0.0000 
     39 C36        15.4810   23.7500    7.4900 C.3       1 3NH100      0.0000 
     40 C37        16.0460   22.6460    8.4050 C.ar      1 3NH100      0.0000 
     41 C38        15.1370   21.8960    9.1690 C.ar      1 3NH100      0.0000 
     42 C39        15.5790   20.7920    9.9160 C.ar      1 3NH100      0.0000 
     43 C40        16.9330   20.4340    9.9640 C.ar      1 3NH100      0.0000 
     44 C41        17.8570   21.2140    9.2590 C.ar      1 3NH100      0.0000 
     45 C42        17.4120   22.3100    8.4810 C.ar      1 3NH100      0.0000 
     46 N1          6.5480   27.5570    4.3160 N.4       1 3NH100      0.0000 
     47 H           8.1642   26.9935    3.3633 H         1 3NH100      0.0000 
     48 H           7.6429   25.4384    5.5186 H         1 3NH100      0.0000 
     49 H           6.9974   25.8599    7.7622 H         1 3NH100      0.0000 
     50 H           6.8220   27.4376    6.9748 H         1 3NH100      0.0000 
     51 H           7.7757   28.5968    9.2817 H         1 3NH100      0.0000 
     52 H           9.8502   29.0545   10.4605 H         1 3NH100      0.0000 
     53 H          11.8809   27.9186    9.8210 H         1 3NH100      0.0000 
     54 H          11.8727   26.3063    8.0085 H         1 3NH100      0.0000 
     55 H           9.2324   24.5753    7.0271 H         1 3NH100      0.0000 
     56 H          11.5954   25.1653    6.4637 H         1 3NH100      0.0000 
     57 H          11.8989   26.8266    5.4680 H         1 3NH100      0.0000 
     58 H          10.6252   26.9099    4.2389 H         1 3NH100      0.0000 
     59 H          11.2697   22.4599    2.6231 H         1 3NH100      0.0000 
     60 H          11.8653   23.8476    1.6959 H         1 3NH100      0.0000 
     61 H          10.4952   25.7869    1.4141 H         1 3NH100      0.0000 
     62 H           8.2919   26.6892    1.0815 H         1 3NH100      0.0000 
     63 H           6.3847   25.4913    1.9536 H         1 3NH100      0.0000 
     64 H           6.6789   23.3740    3.0276 H         1 3NH100      0.0000 
     65 H           8.8884   22.4540    3.3453 H         1 3NH100      0.0000 
     66 H          13.8703   23.2969    3.3827 H         1 3NH100      0.0000 
     67 H          12.9440   22.3577    4.5658 H         1 3NH100      0.0000 
     68 H          13.3057   24.7007    5.9070 H         1 3NH100      0.0000 
     69 H          13.8816   22.4934    6.8662 H         1 3NH100      0.0000 
     70 H          16.5785   22.5031    5.5232 H         1 3NH100      0.0000 
     71 H          15.7207   18.2605    4.7440 H         1 3NH100      0.0000 
     72 H          17.2409   17.2900    4.1156 H         1 3NH100      0.0000 
     73 H          18.3245   18.6380    4.5014 H         1 3NH100      0.0000 
     74 H          16.3740   17.4272    1.3970 H         1 3NH100      0.0000 
     75 H          16.6241   19.1244    0.9531 H         1 3NH100      0.0000 
     76 H          15.0253   19.6789    2.3918 H         1 3NH100      0.0000 
     77 H          14.9170   18.0105    2.9789 H         1 3NH100      0.0000 
     78 H          14.8340   24.3921    8.0688 H         1 3NH100      0.0000 
     79 H          16.2998   24.3191    7.0757 H         1 3NH100      0.0000 
     80 H          14.1444   22.1562    9.1814 H         1 3NH100      0.0000 
     81 H          14.8874   20.2303   10.4431 H         1 3NH100      0.0000 
     82 H          17.2364   19.6264   10.4986 H         1 3NH100      0.0000 
     83 H          18.8559   20.9979    9.3013 H         1 3NH100      0.0000 
     84 H          18.1027   22.8706    7.9617 H         1 3NH100      0.0000 
     85 H           6.2618   27.3311    3.3848 H         1 3NH100      0.0000 
     86 H           6.3687   26.7518    4.8812 H         1 3NH100      0.0000 
     87 H           5.9425   28.2837    4.6406 H         1 3NH100      0.0000 
     88 H           9.1950   28.6220    3.5453 H         1 3NH100      0.0000 
     89 H          14.7463   25.7846    4.8385 H         1 3NH100      0.0000 
@<TRIPOS>BOND
     1    2    1 1    
     2   88    1 1    
     3    3    2 1    
     4   46    2 1    
     5   47    2 1    
     6    4    3 1    
     7    5    4 1    
     8   12    4 1    
     9   48    4 1    
    10    6    5 1    
    11   49    5 1    
    12   50    5 1    
    13    7    6 ar   
    14   11    6 ar   
    15    8    7 ar   
    16   51    7 1    
    17    9    8 ar   
    18   52    8 1    
    19   10    9 ar   
    20   53    9 1    
    21   11   10 ar   
    22   54   10 1    
    23   12   11 1    
    24   13   12 1    
    25   55   12 1    
    26   14   13 1    
    27   18   13 1    
    28   56   13 1    
    29   15   14 2    
    30   16   14 1    
    31   17   16 1    
    32   19   16 1    
    33   26   16 1    
    34   18   17 1    
    35   57   18 1    
    36   58   18 1    
    37   20   19 1    
    38   59   19 1    
    39   60   19 1    
    40   21   20 ar   
    41   25   20 ar   
    42   22   21 ar   
    43   61   21 1    
    44   23   22 ar   
    45   62   22 1    
    46   24   23 ar   
    47   63   23 1    
    48   25   24 ar   
    49   64   24 1    
    50   65   25 1    
    51   27   26 1    
    52   66   26 1    
    53   67   26 1    
    54   28   27 1    
    55   29   27 1    
    56   68   27 1    
    57   89   28 1    
    58   30   29 1    
    59   39   29 1    
    60   69   29 1    
    61   31   30 am   
    62   70   30 1    
    63   32   31 2    
    64   33   31 1    
    65   34   33 1    
    66   35   34 1    
    67   38   34 1    
    68   71   34 1    
    69   36   35 1    
    70   72   35 1    
    71   73   35 1    
    72   37   36 1    
    73   38   37 1    
    74   74   37 1    
    75   75   37 1    
    76   76   38 1    
    77   77   38 1    
    78   40   39 1    
    79   78   39 1    
    80   79   39 1    
    81   41   40 ar   
    82   45   40 ar   
    83   42   41 ar   
    84   80   41 1    
    85   43   42 ar   
    86   81   42 1    
    87   44   43 ar   
    88   82   43 1    
    89   45   44 ar   
    90   83   44 1    
    91   84   45 1    
    92   85   46 1    
    93   86   46 1    
    94   87   46 1    
@<TRIPOS>SUBSTRUCTURE
     1 3NH100      1 GROUP   
@<TRIPOS>SET

