#    Name: 3LCU_1_CAVITY_N1_ALL.mol2
#    Modification time : Tue Mar 11 11:15:01 2014

@<TRIPOS>MOLECULE
3LCU_1_CAVITY_N1_ALL.mol2
   62     0     6     0     0
SMALL
NO_CHARGES


@<TRIPOS>ATOM
      1 OG          6.1337   -1.8741    8.7239 O.2       1 SER1        0.0000 
      2 NZ          4.8651   -1.2968    9.2783 N.2       3 LYS4        0.0000 
      3 CA          3.5965   -0.7195    9.8327 C.3       5 GLY6        0.0000 
      4 N           2.3279   -0.1422   10.3871 N.2       2 ALA2        0.0000 
      5 N           5.9501   -0.4753   10.9055 N.2       2 ALA2        0.0000 
      6 OG          6.5149   -2.3520   10.0938 O.2       1 SER1        0.0000 
      7 N           5.2463   -1.7746   10.6481 N.2       2 ALA2        0.0000 
      8 N           3.9777   -1.1973   11.2025 N.2       2 ALA2        0.0000 
      9 OG          7.0797   -4.2286    9.2820 O.2       1 SER1        0.0000 
     10 OG          5.8111   -3.6513    9.8364 O.2       1 SER1        0.0000 
     11 DU          4.5425   -3.0740   10.3908 H         6 CUB7        0.0000 
     12 DU          3.2739   -2.4967   10.9452 H         6 CUB7        0.0000 
     13 CA          6.3313   -0.9531   12.2754 C.3       5 GLY6        0.0000 
     14 CA          6.8961   -2.8298   11.4636 C.3       5 GLY6        0.0000 
     15 CA          5.6275   -2.2525   12.0180 C.3       5 GLY6        0.0000 
     16 N           4.3589   -1.6751   12.5724 N.2       2 ALA2        0.0000 
     17 CA          6.1923   -4.1291   11.2062 C.3       5 GLY6        0.0000 
     18 DU          4.9237   -3.5518   11.7606 H         6 CUB7        0.0000 
     19 DU          3.6551   -2.9745   12.3150 H         6 CUB7        0.0000 
     20 CZ          2.3865   -2.3972   12.8694 C.ar      4 PHE5        0.0000 
     21 OG          6.7571   -6.0058   10.3944 O.2       1 SER1        0.0000 
     22 OG          5.4885   -5.4285   10.9488 O.2       1 SER1        0.0000 
     23 DU          4.2199   -4.8512   11.5032 H         6 CUB7        0.0000 
     24 DU          1.6827   -3.6966   12.6120 H         6 CUB7        0.0000 
     25 O           7.2773   -3.3076   12.8334 O.2       2 ALA2        0.0000 
     26 CA          6.0087   -2.7303   13.3878 C.3       5 GLY6        0.0000 
     27 CA          6.5735   -4.6070   12.5760 C.3       5 GLY6        0.0000 
     28 DU          5.3049   -4.0297   13.1304 H         6 CUB7        0.0000 
     29 CZ          4.0363   -3.4523   13.6848 C.ar      4 PHE5        0.0000 
     30 CZ          2.7677   -2.8750   14.2392 C.ar      4 PHE5        0.0000 
     31 OG          5.8697   -5.9063   12.3186 O.2       1 SER1        0.0000 
     32 DU          4.6011   -5.3290   12.8730 H         6 CUB7        0.0000 
     33 DU          3.3325   -4.7517   13.4274 H         6 CUB7        0.0000 
     34 CZ          2.0639   -4.1744   13.9818 C.ar      4 PHE5        0.0000 
     35 CZ          0.7953   -3.5971   14.5362 C.ar      4 PHE5        0.0000 
     36 CZ         -0.4733   -3.0198   15.0906 C.ar      4 PHE5        0.0000 
     37 OG          3.8973   -6.6284   12.6156 O.2       1 SER1        0.0000 
     38 DU          2.6287   -6.0511   13.1700 H         6 CUB7        0.0000 
     39 O           7.6585   -3.7854   14.2032 O.2       2 ALA2        0.0000 
     40 CA          6.3899   -3.2081   14.7576 C.3       5 GLY6        0.0000 
     41 CA          6.9547   -5.0848   13.9458 C.3       5 GLY6        0.0000 
     42 DU          5.6861   -4.5075   14.5002 H         6 CUB7        0.0000 
     43 CZ          4.4175   -3.9302   15.0546 C.ar      4 PHE5        0.0000 
     44 CA          6.2509   -6.3842   13.6884 C.3       5 GLY6        0.0000 
     45 CA          4.9823   -5.8069   14.2428 C.3       5 GLY6        0.0000 
     46 CA          3.7137   -5.2295   14.7972 C.3       5 GLY6        0.0000 
     47 CZ          2.4451   -4.6522   15.3516 C.ar      4 PHE5        0.0000 
     48 CZ          1.1765   -4.0749   15.9060 C.ar      4 PHE5        0.0000 
     49 CA          4.2785   -7.1062   13.9854 C.3       5 GLY6        0.0000 
     50 CA          3.0099   -6.5289   14.5398 C.3       5 GLY6        0.0000 
     51 DU          1.7413   -5.9516   15.0942 H         6 CUB7        0.0000 
     52 NZ          0.4727   -5.3743   15.6486 N.2       3 LYS4        0.0000 
     53 NZ         -0.7959   -4.7970   16.2030 N.2       3 LYS4        0.0000 
     54 N           6.0673   -4.9853   15.8700 N.2       2 ALA2        0.0000 
     55 CZ          4.7987   -4.4080   16.4244 C.ar      4 PHE5        0.0000 
     56 CZ          3.5301   -3.8307   16.9788 C.ar      4 PHE5        0.0000 
     57 CA          4.0949   -5.7074   16.1670 C.3       5 GLY6        0.0000 
     58 CZ          2.8263   -5.1300   16.7214 C.ar      4 PHE5        0.0000 
     59 NZ          1.5577   -4.5527   17.2758 N.2       3 LYS4        0.0000 
     60 CA          2.1225   -6.4294   16.4640 C.3       5 GLY6        0.0000 
     61 NZ          0.8539   -5.8521   17.0184 N.2       3 LYS4        0.0000 
     62 OG          3.2075   -5.6079   18.0912 O.2       1 SER1        0.0000 
@<TRIPOS>BOND
@<TRIPOS>SUBSTRUCTURE
     1 SER1        1 GROUP   
     2 ALA2        4 GROUP   
     3 LYS4        2 GROUP   
     4 PHE5       20 GROUP   
     5 GLY6        3 GROUP   
     6 CUB7       11 GROUP   
@<TRIPOS>SET

