#    Name: 3LCU_1_CAVITY_N1_6.mol2
#    Modification time : Tue Mar 11 11:15:01 2014

@<TRIPOS>MOLECULE
3LCU_1_CAVITY_N1_6.mol2
   12     0     6     0     0
SMALL
NO_CHARGES


@<TRIPOS>ATOM
      1 CA          6.0087   -2.7303   13.3878 C.3       5 GLY6        0.0000 
      2 O           7.6585   -3.7854   14.2032 O.2       2 ALA2        0.0000 
      3 CA          6.3899   -3.2081   14.7576 C.3       5 GLY6        0.0000 
      4 DU          5.6861   -4.5075   14.5002 H         6 CUB7        0.0000 
      5 CZ          4.4175   -3.9302   15.0546 C.ar      4 PHE5        0.0000 
      6 N           6.0673   -4.9853   15.8700 N.2       2 ALA2        0.0000 
      7 CZ          4.7987   -4.4080   16.4244 C.ar      4 PHE5        0.0000 
      8 CZ          3.5301   -3.8307   16.9788 C.ar      4 PHE5        0.0000 
      9 CA          4.0949   -5.7074   16.1670 C.3       5 GLY6        0.0000 
     10 CZ          2.8263   -5.1300   16.7214 C.ar      4 PHE5        0.0000 
     11 NZ          1.5577   -4.5527   17.2758 N.2       3 LYS4        0.0000 
     12 OG          3.2075   -5.6079   18.0912 O.2       1 SER1        0.0000 
@<TRIPOS>BOND
@<TRIPOS>SUBSTRUCTURE
     1 SER1       12 GROUP   
     2 ALA2        2 GROUP   
     3 LYS4       11 GROUP   
     4 PHE5        5 GROUP   
     5 GLY6        1 GROUP   
     6 CUB7        4 GROUP   
@<TRIPOS>SET

