#    Name: 3lcu_SAH_1_INTS_M
#    Modification time : Mon Mar 24 21:28:54 2014

@<TRIPOS>MOLECULE
3lcu_SAH_1_INTS_M
   89     0    12     0     0
SMALL
NO_CHARGES


@<TRIPOS>ATOM
      1 O           9.0475   -0.6960   22.4205 O.2       1 ALC1        0.0000 
      2 O           8.5910   -1.9530   22.6830 O.2       9 ALL1        0.0000 
      3 O           9.5040    0.5610   22.1580 O.2       5 ALP1        0.0000 
      4 O          10.1290   -2.2170   23.2500 O.2       1 ALC1        0.0000 
      5 O          11.6670   -2.4810   23.8170 O.2       5 ALP1        0.0000 
      6 O           8.9205   -2.0420   24.1305 O.2       1 ALC1        0.0000 
      7 O           9.2500   -2.1310   25.5780 O.2       5 ALP1        0.0000 
      8 O           9.0255   -2.9955   21.8075 O.2       1 ALC1        0.0000 
      9 O           9.4600   -4.0380   20.9320 O.2       5 ALP1        0.0000 
     10 CA          8.4730   -0.1885   23.9835 C.3       4 GLC5        0.0000 
     11 CA          7.2210   -1.6910   23.0920 C.3      12 GLL5        0.0000 
     12 CA          9.7250    1.3140   24.8750 C.3       8 GLP5        0.0000 
     13 CA          6.8795   -3.9300   19.9670 C.3       4 GLC5        0.0000 
     14 CA          6.5040   -1.8810   20.5930 C.3      12 GLL5        0.0000 
     15 CA          7.2550   -5.9790   19.3410 C.3       8 GLP5        0.0000 
     16 CA          4.8055   -0.8840   17.5005 C.3       4 GLC5        0.0000 
     17 CA          5.6630   -1.0990   19.2250 C.3      12 GLL5        0.0000 
     18 CA          3.9480   -0.6690   15.7760 C.3       8 GLP5        0.0000 
     19 CA          4.2505   -1.8935   19.7625 C.3       4 GLC5        0.0000 
     20 CA          2.8380   -2.6880   20.3000 C.3       8 GLP5        0.0000 
     21 NZ          6.4735   -4.4770   24.6615 N.4       3 LYC4        0.0000 
     22 NZ          7.0660   -4.0160   23.4090 N.4      11 LYL4        0.0000 
     23 NZ          5.9850   -6.2120   25.5960 N.4       7 LYP4        0.0000 
     24 N           6.7285   -5.2865   23.8970 N.am      2 SEC2        0.0000 
     25 N           7.0660   -4.0160   23.4090 N.am     10 SEL2        0.0000 
     26 N           6.3910   -6.5570   24.3850 N.am      6 SEP2        0.0000 
     27 N           6.4735   -4.4770   24.6615 N.am      2 SEC2        0.0000 
     28 N           5.8810   -4.9380   25.9140 N.am      6 SEP2        0.0000 
     29 NZ          5.6600   -4.0045   24.9395 N.4       3 LYC4        0.0000 
     30 NZ          5.4390   -3.0710   23.9650 N.4      11 LYL4        0.0000 
     31 N           4.3975   -2.0475   24.4705 N.am      2 SEC2        0.0000 
     32 N           5.4390   -3.0710   23.9650 N.am     10 SEL2        0.0000 
     33 N           3.3560   -1.0240   24.9760 N.am      6 SEP2        0.0000 
     34 N           5.6600   -4.0045   24.9395 N.am      2 SEC2        0.0000 
     35 CA          5.5870    0.1940   17.2385 C.3       4 GLC5        0.0000 
     36 CA          6.9830   -0.2940   18.4840 C.3      12 GLL5        0.0000 
     37 CA          4.1910    0.6820   15.9930 C.3       8 GLP5        0.0000 
     38 CA          9.4615    1.1105   19.6355 C.3       4 GLC5        0.0000 
     39 CA          7.5630    1.0610   19.0580 C.3      12 GLL5        0.0000 
     40 CA         11.3600    1.1600   20.2130 C.3       8 GLP5        0.0000 
     41 CA          4.9570    1.8020   17.9880 C.3       4 GLC5        0.0000 
     42 CA          6.5660    2.1910   19.1530 C.3      12 GLL5        0.0000 
     43 CA          3.3480    1.4130   16.8230 C.3       8 GLP5        0.0000 
     44 N           4.9610    2.2030   20.9905 N.am      2 SEC2        0.0000 
     45 N           6.3970    2.5750   20.5210 N.am     10 SEL2        0.0000 
     46 N           3.5250    1.8310   21.4600 N.am      6 SEP2        0.0000 
     47 O           7.3110    3.1925   21.3440 O.2       1 ALC1        0.0000 
     48 O           6.3970    2.5750   20.5210 O.2       9 ALL1        0.0000 
     49 O           8.2250    3.8100   22.1670 O.2       5 ALP1        0.0000 
     50 O           7.6790    5.0195   19.6820 O.2       1 ALC1        0.0000 
     51 O           6.9130    4.6220   18.6460 O.2       9 ALL1        0.0000 
     52 O           8.4450    5.4170   20.7180 O.2       5 ALP1        0.0000 
     53 CA         10.0075    2.0295   19.2295 C.3       4 GLC5        0.0000 
     54 CA          8.6550    2.8990   18.2460 C.3      12 GLL5        0.0000 
     55 N          10.4320    3.4130   13.9115 N.am      2 SEC2        0.0000 
     56 N          10.2390    3.8610   15.2320 N.am     10 SEL2        0.0000 
     57 N          10.6250    2.9650   12.5910 N.am      6 SEP2        0.0000 
     58 CA         13.8870    6.1860   16.7005 C.3       4 GLC5        0.0000 
     59 CA         12.5130    4.7090   16.0240 C.3      12 GLL5        0.0000 
     60 CA         15.2610    7.6630   17.3770 C.3       8 GLP5        0.0000 
     61 CA         14.4515    3.8290   16.5930 C.3       4 GLC5        0.0000 
     62 CA         16.3900    2.9490   17.1620 C.3       8 GLP5        0.0000 
     63 CA         13.3480    2.9690   15.2170 C.3       4 GLC5        0.0000 
     64 CA         14.1830    1.2290   14.4100 C.3       8 GLP5        0.0000 
     65 O          14.1325    5.9330   14.7160 O.2       1 ALC1        0.0000 
     66 O          13.0230    5.0240   14.8290 O.2       9 ALL1        0.0000 
     67 O          15.2420    6.8420   14.6030 O.2       5 ALP1        0.0000 
     68 O          12.4630    4.8090   13.2790 O.2       1 ALC1        0.0000 
     69 O          11.9030    4.5940   11.7290 O.2       5 ALP1        0.0000 
     70 N          14.6560    5.1400   17.2100 N.am      2 SEC2        0.0000 
     71 N          13.2230    4.8910   17.1920 N.am     10 SEL2        0.0000 
     72 N          16.0890    5.3890   17.2280 N.am      6 SEP2        0.0000 
     73 CA         12.0460    2.8670   19.3220 C.3       4 GLC5        0.0000 
     74 CA         12.7320    4.5740   18.4310 C.3      12 GLL5        0.0000 
     75 CA         12.3925    6.2345   18.1005 C.3       4 GLC5        0.0000 
     76 CA         12.0530    7.8950   17.7700 C.3       8 GLP5        0.0000 
     77 CA         13.9965    6.1185   17.9040 C.3       4 GLC5        0.0000 
     78 CA         14.2980    3.5390   18.4850 C.3       4 GLC5        0.0000 
     79 CA         15.8640    2.5040   18.5390 C.3       8 GLP5        0.0000 
     80 CA         11.0695    2.5135   18.8470 C.3       4 GLC5        0.0000 
     81 CA         10.7790    3.8670   17.4810 C.3      12 GLL5        0.0000 
     82 CA         10.1870    5.8570   17.8535 C.3       4 GLC5        0.0000 
     83 CA          9.5950    7.8470   18.2260 C.3       8 GLP5        0.0000 
     84 CA          6.4537    0.3112   23.3515 C.3       4 GLC5        0.0000 
     85 CA          6.4860   -1.0800   21.8900 C.3      12 GLL5        0.0000 
     86 CA          6.0540    2.0080   24.2120 C.3       8 GLP5        0.0000 
     87 CA          4.6665   -2.0842   20.7707 C.3       4 GLC5        0.0000 
     88 CA         11.9568    6.1652   16.9482 C.3       4 GLC5        0.0000 
     89 CA         11.2080    4.1620   16.2290 C.3      12 GLL5        0.0000 
@<TRIPOS>BOND
@<TRIPOS>SUBSTRUCTURE
     1 ALC1        1 GROUP        1 X    ALC  0     ROOT ALC X 1
     2 SEC2       24 GROUP        1 X    SEC  0     **** SEC X 2
     3 LYC4       21 GROUP        1 X    LYC  0     **** LYC X 4
     4 GLC5       10 GROUP        1 X    GLC  0     **** GLC X 6
     5 ALP1        3 GROUP        1 Y    ALP  0     ROOT ALP Y 8
     6 SEP2       26 GROUP        1 Y    SEP  0     **** SEP Y 9
     7 LYP4       23 GROUP        1 Y    LYP  0     **** LYP Y 11
     8 GLP5       12 GROUP        1 Y    GLP  0     **** GLP Y 13
     9 ALL1        2 GROUP        1 Z    ALL  0     ROOT ALL Z 15
    10 SEL2       25 GROUP        1 Z    SEL  0     **** SEL Z 16
    11 LYL4       22 GROUP        1 Z    LYL  0     **** LYL Z 18
    12 GLL5       11 GROUP        1 Z    GLL  0     **** GLL Z 20
@<TRIPOS>SET

