#    Name: 3lcu_SAH_1_ligand
#    Modification time : Mon Mar 24 21:28:54 2014

@<TRIPOS>MOLECULE
3lcu_SAH_1_ligand
   46    48     1     0     0
SMALL
NO_CHARGES


@<TRIPOS>ATOM
      1 N           8.5910   -1.9530   22.6830 N.4       1 SAH6732     0.0000 
      2 CA          7.2210   -1.6910   23.0920 C.3       1 SAH6732     0.0000 
      3 CB          6.4860   -1.0800   21.8900 C.3       1 SAH6732     0.0000 
      4 CG          6.5040   -1.8810   20.5930 C.3       1 SAH6732     0.0000 
      5 SD          5.6630   -1.0990   19.2250 S.3       1 SAH6732     0.0000 
      6 C           6.4850   -3.0010   23.5670 C.2       1 SAH6732     0.0000 
      7 O           7.0660   -4.0160   23.4090 O.co2     1 SAH6732     0.0000 
      8 OXT         5.4390   -3.0710   23.9650 O.co2     1 SAH6732     0.0000 
      9 C5'         6.9830   -0.2940   18.4840 C.3       1 SAH6732     0.0000 
     10 C4'         7.5630    1.0610   19.0580 C.3       1 SAH6732     0.0000 
     11 O4'         8.5240    1.4670   18.0950 O.3       1 SAH6732     0.0000 
     12 C3'         6.5660    2.1910   19.1530 C.3       1 SAH6732     0.0000 
     13 O3'         6.3970    2.5750   20.5210 O.3       1 SAH6732     0.0000 
     14 C2'         7.1960    3.3030   18.2080 C.3       1 SAH6732     0.0000 
     15 O2'         6.9130    4.6220   18.6460 O.3       1 SAH6732     0.0000 
     16 C1'         8.6550    2.8990   18.2460 C.3       1 SAH6732     0.0000 
     17 N9          9.4850    3.3500   17.2920 N.pl3     1 SAH6732     0.0000 
     18 C8          9.2390    3.3810   15.9280 C.2       1 SAH6732     0.0000 
     19 N7         10.2390    3.8610   15.2320 N.2       1 SAH6732     0.0000 
     20 C5         11.2080    4.1620   16.2290 C.ar      1 SAH6732     0.0000 
     21 C6         12.5130    4.7090   16.0240 C.ar      1 SAH6732     0.0000 
     22 N6         13.0230    5.0240   14.8290 N.pl3     1 SAH6732     0.0000 
     23 N1         13.2230    4.8910   17.1920 N.ar      1 SAH6732     0.0000 
     24 C2         12.7320    4.5740   18.4310 C.ar      1 SAH6732     0.0000 
     25 N3         11.4770    4.0400   18.6380 N.ar      1 SAH6732     0.0000 
     26 C4         10.7790    3.8670   17.4810 C.ar      1 SAH6732     0.0000 
     27 H           7.1859   -0.9810   23.8984 H         1 SAH6732     0.0000 
     28 H           6.9149   -0.0700   21.6934 H         1 SAH6732     0.0000 
     29 H           5.4262   -0.8968   22.1834 H         1 SAH6732     0.0000 
     30 H           5.9936   -2.8331   20.6764 H         1 SAH6732     0.0000 
     31 H           7.5036   -2.0349   20.2044 H         1 SAH6732     0.0000 
     32 H           6.6653   -0.1473   17.4240 H         1 SAH6732     0.0000 
     33 H           7.7931   -1.0607   18.4407 H         1 SAH6732     0.0000 
     34 H           8.0129    0.8648   19.9894 H         1 SAH6732     0.0000 
     35 H           5.6620    1.8647   18.6796 H         1 SAH6732     0.0000 
     36 H           6.8207    3.0680   17.2232 H         1 SAH6732     0.0000 
     37 H           8.9980    3.0665   19.2682 H         1 SAH6732     0.0000 
     38 H           8.3713    3.0596   15.5528 H         1 SAH6732     0.0000 
     39 H          13.9338    5.4369   14.8343 H         1 SAH6732     0.0000 
     40 H          12.4479    4.8184   14.0371 H         1 SAH6732     0.0000 
     41 H          13.3444    4.7463   19.2760 H         1 SAH6732     0.0000 
     42 H           9.0590   -1.1174   22.3954 H         1 SAH6732     0.0000 
     43 H           9.1306   -2.3505   23.4252 H         1 SAH6732     0.0000 
     44 H           8.6335   -2.5919   21.9149 H         1 SAH6732     0.0000 
     45 H           6.9974    3.3651   20.6440 H         1 SAH6732     0.0000 
     46 H           7.5404    4.7817   19.4082 H         1 SAH6732     0.0000 
@<TRIPOS>BOND
     1    2    1 1    
     2   42    1 1    
     3   43    1 1    
     4   44    1 1    
     5    3    2 1    
     6    6    2 1    
     7   27    2 1    
     8    4    3 1    
     9   28    3 1    
    10   29    3 1    
    11    5    4 1    
    12   30    4 1    
    13   31    4 1    
    14    9    5 1    
    15    7    6 ar   
    16    8    6 ar   
    17   10    9 1    
    18   32    9 1    
    19   33    9 1    
    20   11   10 1    
    21   12   10 1    
    22   34   10 1    
    23   16   11 1    
    24   13   12 1    
    25   14   12 1    
    26   35   12 1    
    27   45   13 1    
    28   15   14 1    
    29   16   14 1    
    30   36   14 1    
    31   46   15 1    
    32   17   16 1    
    33   37   16 1    
    34   18   17 1    
    35   26   17 1    
    36   19   18 2    
    37   38   18 1    
    38   20   19 1    
    39   21   20 ar   
    40   26   20 ar   
    41   22   21 1    
    42   23   21 ar   
    43   39   22 1    
    44   40   22 1    
    45   24   23 ar   
    46   25   24 ar   
    47   41   24 1    
    48   26   25 ar   
@<TRIPOS>SUBSTRUCTURE
     1 SAH6732     1 GROUP   
@<TRIPOS>SET

