#    Name: 1aob_DDU_1_INTS_M
#    Modification time : Mon Mar 24 18:34:25 2014

@<TRIPOS>MOLECULE
1aob_DDU_1_INTS_M
   24     0     9     0     0
SMALL
NO_CHARGES


@<TRIPOS>ATOM
      1 O         -26.8945   -5.5110   19.8800 O.2       1 ALC1        0.0000 
      2 O         -27.9260   -6.5990   19.8550 O.2       7 ALL1        0.0000 
      3 O         -25.8630   -4.4230   19.9050 O.2       4 ALP1        0.0000 
      4 N         -25.2465   -8.9105   20.9065 N.am      2 SEC2        0.0000 
      5 N         -26.2480   -7.9980   20.3730 N.am      8 SEL2        0.0000 
      6 N         -24.2450   -9.8230   21.4400 N.am      5 SEP2        0.0000 
      7 N         -28.5600   -4.3530   19.0430 N.am      2 SEC2        0.0000 
      8 N         -29.5930   -5.1190   19.3530 N.am      8 SEL2        0.0000 
      9 N         -27.5270   -3.5870   18.7330 N.am      5 SEP2        0.0000 
     10 CA        -26.0945  -10.7150   19.9525 C.3       3 GLC5        0.0000 
     11 CA        -27.9550  -10.2400   20.5070 C.3       9 GLL5        0.0000 
     12 CA        -24.2340  -11.1900   19.3980 C.3       6 GLP5        0.0000 
     13 CA        -29.8530   -9.3250   22.2865 C.3       3 GLC5        0.0000 
     14 CA        -28.1930  -10.5440   21.9780 C.3       9 GLL5        0.0000 
     15 CA        -31.5130   -8.1060   22.5950 C.3       6 GLP5        0.0000 
     16 CA        -26.4885   -9.5680   22.7650 C.3       3 GLC5        0.0000 
     17 CA        -24.7840   -8.5920   23.5520 C.3       6 GLP5        0.0000 
     18 N         -25.7490  -12.8105   22.3680 N.am      2 SEC2        0.0000 
     19 N         -26.5720  -12.2870   21.7880 N.am      8 SEL2        0.0000 
     20 N         -24.9260  -13.3340   22.9480 N.am      5 SEP2        0.0000 
     21 CA        -30.7033   -8.0890   21.1237 C.3       3 GLC5        0.0000 
     22 CA        -29.6500   -8.7090   19.8030 C.3       9 GLL5        0.0000 
     23 CA        -28.2440  -10.6435   23.9770 C.3       3 GLC5        0.0000 
     24 CA        -28.4140   -9.9970   25.9380 C.3       6 GLP5        0.0000 
@<TRIPOS>BOND
@<TRIPOS>SUBSTRUCTURE
     1 ALC1        1 GROUP        1 X    ALC  0     ROOT ALC X 1
     2 SEC2        4 GROUP        1 X    SEC  0     **** SEC X 2
     3 GLC5       10 GROUP        1 X    GLC  0     **** GLC X 6
     4 ALP1        3 GROUP        1 Y    ALP  0     ROOT ALP Y 8
     5 SEP2        6 GROUP        1 Y    SEP  0     **** SEP Y 9
     6 GLP5       12 GROUP        1 Y    GLP  0     **** GLP Y 13
     7 ALL1        2 GROUP        1 Z    ALL  0     ROOT ALL Z 15
     8 SEL2        5 GROUP        1 Z    SEL  0     **** SEL Z 16
     9 GLL5       11 GROUP        1 Z    GLL  0     **** GLL Z 20
@<TRIPOS>SET

