#    Name: 1aob_DDU_1_ligand
#    Modification time : Mon Mar 24 18:34:25 2014

@<TRIPOS>MOLECULE
1aob_DDU_1_ligand
   27    28     1     0     0
SMALL
NO_CHARGES


@<TRIPOS>ATOM
      1 N1        -28.3760   -8.8800   20.1160 N.am      1 DDU301      0.0000 
      2 C2        -27.4420   -7.8480   20.1480 C.2       1 DDU301      0.0000 
      3 N3        -27.9260   -6.5990   19.8550 N.am      1 DDU301      0.0000 
      4 C4        -29.2410   -6.2890   19.5240 C.2       1 DDU301      0.0000 
      5 C5        -30.1370   -7.4350   19.5020 C.2       1 DDU301      0.0000 
      6 C6        -29.6500   -8.7090   19.8030 C.2       1 DDU301      0.0000 
      7 O2        -26.2480   -7.9980   20.3730 O.2       1 DDU301      0.0000 
      8 O4        -29.5930   -5.1190   19.3530 O.2       1 DDU301      0.0000 
      9 C1'       -27.9550  -10.2400   20.5070 C.3       1 DDU301      0.0000 
     10 C2'       -28.1930  -10.5440   21.9780 C.3       1 DDU301      0.0000 
     11 C3'       -27.9550  -12.0360   22.0540 C.3       1 DDU301      0.0000 
     12 C4'       -28.8030  -12.4390   20.8400 C.3       1 DDU301      0.0000 
     13 O3'       -26.5720  -12.2870   21.7880 O.3       1 DDU301      0.0000 
     14 O4'       -28.5310  -11.4060   19.8200 O.3       1 DDU301      0.0000 
     15 C5'       -30.2980  -12.4470   21.2160 C.3       1 DDU301      0.0000 
     16 H         -27.2323   -5.7799   19.8814 H         1 DDU301      0.0000 
     17 H         -31.1140   -7.2817   19.2642 H         1 DDU301      0.0000 
     18 H         -30.3188   -9.5063   19.7718 H         1 DDU301      0.0000 
     19 H         -26.8338  -10.3241   20.3954 H         1 DDU301      0.0000 
     20 H         -29.1963  -10.3213   22.2329 H         1 DDU301      0.0000 
     21 H         -27.4813  -10.0305   22.5705 H         1 DDU301      0.0000 
     22 H         -28.3495  -12.4170   22.8993 H         1 DDU301      0.0000 
     23 H         -28.5016  -13.3900   20.5081 H         1 DDU301      0.0000 
     24 H         -30.4910  -13.0895   21.9576 H         1 DDU301      0.0000 
     25 H         -30.6094  -11.5466   21.5199 H         1 DDU301      0.0000 
     26 H         -30.8741  -12.7107   20.4423 H         1 DDU301      0.0000 
     27 H         -26.5459  -12.6177   20.8446 H         1 DDU301      0.0000 
@<TRIPOS>BOND
     1    2    1 1    
     2    6    1 1    
     3    9    1 1    
     4    3    2 1    
     5    7    2 2    
     6    4    3 1    
     7   16    3 1    
     8    5    4 1    
     9    8    4 2    
    10    6    5 2    
    11   17    5 1    
    12   18    6 1    
    13   10    9 1    
    14   14    9 1    
    15   19    9 1    
    16   11   10 1    
    17   20   10 1    
    18   21   10 1    
    19   12   11 1    
    20   13   11 1    
    21   22   11 1    
    22   14   12 1    
    23   15   12 1    
    24   23   12 1    
    25   27   13 1    
    26   24   15 1    
    27   25   15 1    
    28   26   15 1    
@<TRIPOS>SUBSTRUCTURE
     1 DDU301      1 GROUP   
@<TRIPOS>SET

