#    Name: 2x7e_X7E_1_INTS_M
#    Modification time : Tue Mar 25 05:15:23 2014

@<TRIPOS>MOLECULE
2x7e_X7E_1_INTS_M
   80     0     6     0     0
SMALL
NO_CHARGES


@<TRIPOS>ATOM
      1 CA        -35.8775  -14.4260  -28.5345 C.3       2 GLC5        0.0000 
      2 CA        -37.2820  -15.9090  -27.7240 C.3       6 GLL5        0.0000 
      3 CA        -34.4730  -12.9430  -29.3450 C.3       4 GLP5        0.0000 
      4 CA        -35.1105  -16.9215  -28.2280 C.3       2 GLC5        0.0000 
      5 CA        -35.6610  -16.7230  -26.1870 C.3       6 GLL5        0.0000 
      6 CA        -34.5600  -17.1200  -30.2690 C.3       4 GLP5        0.0000 
      7 CA        -34.0350  -16.2800  -26.6975 C.3       2 GLC5        0.0000 
      8 CA        -32.4090  -15.8370  -27.2080 C.3       4 GLP5        0.0000 
      9 CA        -38.2795  -18.4180  -22.8630 C.3       2 GLC5        0.0000 
     10 CA        -37.4660  -17.7110  -24.6170 C.3       6 GLL5        0.0000 
     11 CA        -39.0930  -19.1250  -21.1090 C.3       4 GLP5        0.0000 
     12 O         -39.5020  -12.2900  -29.6370 O.2       1 ALC1        0.0000 
     13 O         -38.6870  -13.7830  -29.2920 O.2       5 ALL1        0.0000 
     14 O         -40.3170  -10.7970  -29.9820 O.2       3 ALP1        0.0000 
     15 CA        -40.6095  -17.9165  -32.0675 C.3       2 GLC5        0.0000 
     16 CA        -40.3680  -17.8210  -29.9050 C.3       6 GLL5        0.0000 
     17 CA        -40.8510  -18.0120  -34.2300 C.3       4 GLP5        0.0000 
     18 CA        -38.6015  -17.9985  -30.2785 C.3       2 GLC5        0.0000 
     19 CA        -36.8350  -18.1760  -30.6520 C.3       4 GLP5        0.0000 
     20 CA        -39.7765  -19.9030  -29.7995 C.3       2 GLC5        0.0000 
     21 CA        -39.1850  -21.9850  -29.6940 C.3       4 GLP5        0.0000 
     22 CA        -40.8640  -19.0430  -28.0835 C.3       2 GLC5        0.0000 
     23 CA        -41.3600  -20.2650  -26.2620 C.3       4 GLP5        0.0000 
     24 CA        -44.5315  -16.9115  -31.5915 C.3       2 GLC5        0.0000 
     25 CA        -43.2390  -17.7710  -30.1260 C.3       6 GLL5        0.0000 
     26 CA        -45.8240  -16.0520  -33.0570 C.3       4 GLP5        0.0000 
     27 CA        -43.9055  -15.4580  -31.7180 C.3       2 GLC5        0.0000 
     28 CA        -43.2440  -15.3420  -29.6840 C.3       6 GLL5        0.0000 
     29 CA        -44.5670  -15.5740  -33.7520 C.3       4 GLP5        0.0000 
     30 CA        -45.3480  -15.8095  -31.3155 C.3       2 GLC5        0.0000 
     31 CA        -44.8720  -15.5670  -29.5740 C.3       6 GLL5        0.0000 
     32 O         -43.0950  -12.9620  -29.0240 O.2       1 ALC1        0.0000 
     33 O         -42.7210  -14.1000  -29.4360 O.2       5 ALL1        0.0000 
     34 O         -43.4690  -11.8240  -28.6120 O.2       3 ALP1        0.0000 
     35 CA        -40.6570  -12.8135  -28.2660 C.3       2 GLC5        0.0000 
     36 CA        -41.3130  -13.9950  -29.7250 C.3       6 GLL5        0.0000 
     37 CA        -40.0010  -11.6320  -26.8070 C.3       4 GLP5        0.0000 
     38 CA        -43.9240  -12.5465  -31.2635 C.3       2 GLC5        0.0000 
     39 CA        -42.1920  -13.2900  -32.1120 C.3       6 GLL5        0.0000 
     40 CA        -45.6560  -11.8030  -30.4150 C.3       4 GLP5        0.0000 
     41 CA        -41.9580  -11.3570  -32.9255 C.3       2 GLC5        0.0000 
     42 CA        -41.7240   -9.4240  -33.7390 C.3       4 GLP5        0.0000 
     43 CA        -40.1300  -12.4220  -33.0735 C.3       2 GLC5        0.0000 
     44 CA        -42.0940  -13.2030  -33.5060 C.3       6 GLL5        0.0000 
     45 CA        -38.1660  -11.6410  -32.6410 C.3       4 GLP5        0.0000 
     46 O         -44.0825  -12.1525  -33.4805 O.2       1 ALC1        0.0000 
     47 O         -43.0700  -12.5330  -34.1810 O.2       5 ALL1        0.0000 
     48 O         -45.0950  -11.7720  -32.7800 O.2       3 ALP1        0.0000 
     49 CA        -38.0215  -14.4243  -26.7760 C.3       2 GLC5        0.0000 
     50 CA        -38.9320  -12.6130  -26.4140 C.3       4 GLP5        0.0000 
     51 CA        -36.9730  -17.2058  -28.8950 C.3       2 GLC5        0.0000 
     52 CA        -37.2285  -19.2777  -25.1120 C.3       2 GLC5        0.0000 
     53 CA        -36.7690  -21.1620  -25.0610 C.3       4 GLP5        0.0000 
     54 CA        -39.1020  -19.0038  -25.1040 C.3       2 GLC5        0.0000 
     55 CA        -40.5160  -20.6140  -25.0450 C.3       4 GLP5        0.0000 
     56 CA        -39.1808  -14.6148  -26.4893 C.3       2 GLC5        0.0000 
     57 CA        -39.2590  -16.9570  -25.9830 C.3       6 GLL5        0.0000 
     58 CA        -40.3948  -18.4408  -26.4133 C.3       2 GLC5        0.0000 
     59 CA        -39.6000  -16.2760  -27.1460 C.3       6 GLL5        0.0000 
     60 CA        -37.8420  -16.8110  -29.6645 C.3       2 GLC5        0.0000 
     61 CA        -38.6400  -15.7720  -28.0210 C.3       6 GLL5        0.0000 
     62 CA        -39.3183  -13.9812  -27.7368 C.3       2 GLC5        0.0000 
     63 CA        -44.8570  -13.6288  -30.0220 C.3       2 GLC5        0.0000 
     64 CA        -43.1410  -14.5910  -32.7355 C.3       2 GLC5        0.0000 
     65 CA        -39.5677  -12.8577  -32.2660 C.3       2 GLC5        0.0000 
     66 CA        -40.2240  -14.5410  -32.0630 C.3       6 GLL5        0.0000 
     67 CA        -38.1977  -15.3373  -32.3640 C.3       2 GLC5        0.0000 
     68 CA        -36.2230  -16.1580  -31.9640 C.3       4 GLP5        0.0000 
     69 CA        -40.6433  -15.1185  -35.6217 C.3       2 GLC5        0.0000 
     70 CA        -40.1210  -14.4920  -33.4650 C.3       6 GLL5        0.0000 
     71 CA        -40.6940  -16.0900  -37.3970 C.3       4 GLP5        0.0000 
     72 CA        -38.9993  -13.2975  -33.7407 C.3       2 GLC5        0.0000 
     73 CA        -41.0640  -13.8020  -34.2280 C.3       6 GLL5        0.0000 
     74 CA        -37.4060  -12.4480  -33.6350 C.3       4 GLP5        0.0000 
     75 CA        -43.0730  -14.5382  -33.8095 C.3       2 GLC5        0.0000 
     76 CA        -41.2190  -11.7022  -34.3795 C.3       2 GLC5        0.0000 
     77 CA        -40.8590   -9.9020  -34.8920 C.3       4 GLP5        0.0000 
     78 CA        -35.7016  -17.3185  -24.4046 C.3       2 GLC5        0.0000 
     79 CA        -36.9400  -16.5620  -26.5520 C.3       6 GLL5        0.0000 
     80 CA        -34.4090  -17.6190  -23.0430 C.3       4 GLP5        0.0000 
@<TRIPOS>BOND
@<TRIPOS>SUBSTRUCTURE
     1 ALC1       12 GROUP        1 X    ALC  0     ROOT ALC X 1
     2 GLC5        1 GROUP        1 X    GLC  0     **** GLC X 6
     3 ALP1       14 GROUP        1 Y    ALP  0     ROOT ALP Y 8
     4 GLP5        3 GROUP        1 Y    GLP  0     **** GLP Y 13
     5 ALL1       13 GROUP        1 Z    ALL  0     ROOT ALL Z 15
     6 GLL5        2 GROUP        1 Z    GLL  0     **** GLL Z 20
@<TRIPOS>SET

