#    Name: 2x7e_X7E_1_ligand
#    Modification time : Tue Mar 25 05:15:23 2014

@<TRIPOS>MOLECULE
2x7e_X7E_1_ligand
   44    46     1     0     0
SMALL
NO_CHARGES


@<TRIPOS>ATOM
      1 CAN       -37.2820  -15.9090  -27.7240 C.ar      1 X7E1365     0.0000 
      2 CAW       -36.9400  -16.5620  -26.5520 C.ar      1 X7E1365     0.0000 
      3 FAG       -35.6610  -16.7230  -26.1870 F         1 X7E1365     0.0000 
      4 CAV       -37.9100  -17.0760  -25.7090 C.ar      1 X7E1365     0.0000 
      5 FAF       -37.4660  -17.7110  -24.6170 F         1 X7E1365     0.0000 
      6 CAL       -39.2590  -16.9570  -25.9830 C.ar      1 X7E1365     0.0000 
      7 CAJ       -39.6000  -16.2760  -27.1460 C.ar      1 X7E1365     0.0000 
      8 CAU       -38.6400  -15.7720  -28.0210 C.ar      1 X7E1365     0.0000 
      9 CAQ       -39.0580  -15.1200  -29.3330 C.3       1 X7E1365     0.0000 
     10 OAC       -38.6870  -13.7830  -29.2920 O.3       1 X7E1365     0.0000 
     11 CAS       -40.5600  -15.2530  -29.4420 C.2       1 X7E1365     0.0000 
     12 CAP       -41.1440  -16.4770  -29.7410 C.2       1 X7E1365     0.0000 
     13 CAA       -40.3680  -17.8210  -29.9050 C.3       1 X7E1365     0.0000 
     14 NAZ       -42.5180  -16.4820  -29.8550 N.am      1 X7E1365     0.0000 
     15 CAB       -43.2390  -17.7710  -30.1260 C.3       1 X7E1365     0.0000 
     16 CAR       -43.2440  -15.3420  -29.6840 C.2       1 X7E1365     0.0000 
     17 SAE       -44.8720  -15.5670  -29.5740 S.2       1 X7E1365     0.0000 
     18 NAO       -42.7210  -14.1000  -29.4360 N.am      1 X7E1365     0.0000 
     19 CAY       -41.3130  -13.9950  -29.7250 C.3       1 X7E1365     0.0000 
     20 CAX       -41.2380  -13.9260  -31.3260 C.ar      1 X7E1365     0.0000 
     21 CAM       -42.1920  -13.2900  -32.1120 C.ar      1 X7E1365     0.0000 
     22 CAK       -40.2240  -14.5410  -32.0630 C.ar      1 X7E1365     0.0000 
     23 CAH       -40.1210  -14.4920  -33.4650 C.ar      1 X7E1365     0.0000 
     24 CAI       -41.0640  -13.8020  -34.2280 C.ar      1 X7E1365     0.0000 
     25 CAT       -42.0940  -13.2030  -33.5060 C.ar      1 X7E1365     0.0000 
     26 OAD       -43.0700  -12.5330  -34.1810 O.3       1 X7E1365     0.0000 
     27 H         -36.5752  -15.5408  -28.3492 H         1 X7E1365     0.0000 
     28 H         -39.9618  -17.3421  -25.3745 H         1 X7E1365     0.0000 
     29 H         -40.6093  -16.1368  -27.3726 H         1 X7E1365     0.0000 
     30 H         -38.6034  -15.6631  -30.1300 H         1 X7E1365     0.0000 
     31 H         -43.2259  -13.3324  -29.0945 H         1 X7E1365     0.0000 
     32 H         -40.8441  -13.1605  -29.3705 H         1 X7E1365     0.0000 
     33 H         -43.0225  -12.8553  -31.6447 H         1 X7E1365     0.0000 
     34 H         -39.4838  -15.0793  -31.5371 H         1 X7E1365     0.0000 
     35 H         -39.3372  -14.9734  -33.9302 H         1 X7E1365     0.0000 
     36 H         -41.0039  -13.7426  -35.2194 H         1 X7E1365     0.0000 
     37 H         -39.6958  -17.7740  -30.6439 H         1 X7E1365     0.0000 
     38 H         -39.8717  -18.0673  -29.0725 H         1 X7E1365     0.0000 
     39 H         -40.9825  -18.5813  -30.1157 H         1 X7E1365     0.0000 
     40 H         -42.9441  -18.1878  -30.9858 H         1 X7E1365     0.0000 
     41 H         -43.0799  -18.4444  -29.4041 H         1 X7E1365     0.0000 
     42 H         -44.2280  -17.6372  -30.1892 H         1 X7E1365     0.0000 
     43 H         -39.5036  -13.2792  -29.5736 H         1 X7E1365     0.0000 
     44 H         -43.4925  -11.9356  -33.4994 H         1 X7E1365     0.0000 
@<TRIPOS>BOND
     1    2    1 ar   
     2    8    1 ar   
     3   27    1 1    
     4    3    2 1    
     5    4    2 ar   
     6    5    4 1    
     7    6    4 ar   
     8    7    6 ar   
     9   28    6 1    
    10    8    7 ar   
    11   29    7 1    
    12    9    8 1    
    13   10    9 1    
    14   11    9 1    
    15   30    9 1    
    16   43   10 1    
    17   12   11 2    
    18   19   11 1    
    19   13   12 1    
    20   14   12 1    
    21   37   13 1    
    22   38   13 1    
    23   39   13 1    
    24   15   14 1    
    25   16   14 am   
    26   40   15 1    
    27   41   15 1    
    28   42   15 1    
    29   17   16 2    
    30   18   16 am   
    31   19   18 1    
    32   31   18 1    
    33   20   19 1    
    34   32   19 1    
    35   21   20 ar   
    36   22   20 ar   
    37   25   21 ar   
    38   33   21 1    
    39   23   22 ar   
    40   34   22 1    
    41   24   23 ar   
    42   35   23 1    
    43   25   24 ar   
    44   36   24 1    
    45   26   25 1    
    46   44   26 1    
@<TRIPOS>SUBSTRUCTURE
     1 X7E1365     1 GROUP   
@<TRIPOS>SET

