#    Name: 4M89_1_CAVITY_N1_6.mol2
#    Modification time : Tue Mar 11 14:54:53 2014

@<TRIPOS>MOLECULE
4M89_1_CAVITY_N1_6.mol2
   64     0     6     0     0
SMALL
NO_CHARGES


@<TRIPOS>ATOM
      1 CA         32.3113  -21.6009   -4.8790 C.3       5 GLY6        0.0000 
      2 O          37.6009  -16.9149   -1.5908 O.2       2 ALA2        0.0000 
      3 CA         36.3880  -16.6063   -0.7638 C.3       5 GLY6        0.0000 
      4 CA         35.1752  -16.2977    0.0631 C.3       5 GLY6        0.0000 
      5 CA         35.8645  -15.7264   -1.8600 C.3       5 GLY6        0.0000 
      6 CA         34.6517  -15.4177   -1.0331 C.3       5 GLY6        0.0000 
      7 CZ         34.1282  -14.5378   -2.1293 C.ar      4 PHE5        0.0000 
      8 N          34.9880  -18.3526    0.5555 N.2       2 ALA2        0.0000 
      9 CA         33.7752  -18.0440    1.3824 C.3       5 GLY6        0.0000 
     10 N          36.8902  -18.0899   -2.1946 N.2       2 ALA2        0.0000 
     11 N          35.6774  -17.7812   -1.3676 N.2       2 ALA2        0.0000 
     12 N          34.4646  -17.4726   -0.5407 N.2       2 ALA2        0.0000 
     13 DU         36.3667  -17.2099   -3.2907 H         6 CUB7        0.0000 
     14 DU         35.1539  -16.9013   -2.4638 H         6 CUB7        0.0000 
     15 CZ         33.9411  -16.5927   -1.6369 C.ar      4 PHE5        0.0000 
     16 CZ         34.6304  -16.0213   -3.5600 C.ar      4 PHE5        0.0000 
     17 CZ         33.4176  -15.7127   -2.7331 C.ar      4 PHE5        0.0000 
     18 CA         37.5841  -23.3560    3.5095 C.3       5 GLY6        0.0000 
     19 CA         37.0607  -22.4760    2.4133 C.3       5 GLY6        0.0000 
     20 CA         35.8478  -22.1674    3.2403 C.3       5 GLY6        0.0000 
     21 CZ         34.6350  -21.8588    4.0672 C.ar      4 PHE5        0.0000 
     22 N          35.3243  -21.2874    2.1441 N.2       2 ALA2        0.0000 
     23 CA         34.1115  -20.9788    2.9710 C.3       5 GLY6        0.0000 
     24 N          34.8009  -20.4075    1.0479 N.2       2 ALA2        0.0000 
     25 CA         33.5880  -20.0988    1.8748 C.3       5 GLY6        0.0000 
     26 N          34.2774  -19.5275   -0.0483 N.2       2 ALA2        0.0000 
     27 O          33.0646  -19.2189    0.7786 O.2       2 ALA2        0.0000 
     28 CA         36.1796  -19.2648   -2.7983 C.3       5 GLY6        0.0000 
     29 CA         34.9667  -18.9561   -1.9714 C.3       5 GLY6        0.0000 
     30 CZ         33.7539  -18.6475   -1.1445 C.ar      4 PHE5        0.0000 
     31 N          32.5411  -18.3389   -0.3176 N.2       2 ALA2        0.0000 
     32 DU         35.6561  -18.3848   -3.8945 H         6 CUB7        0.0000 
     33 DU         34.4433  -18.0762   -3.0676 H         6 CUB7        0.0000 
     34 CZ         33.2304  -17.7676   -2.2407 C.ar      4 PHE5        0.0000 
     35 CZ         33.9198  -17.1962   -4.1638 C.ar      4 PHE5        0.0000 
     36 CZ         36.8735  -24.5309    2.9057 C.ar      4 PHE5        0.0000 
     37 CA         35.6607  -24.2223    3.7327 C.3       5 GLY6        0.0000 
     38 O          36.3500  -23.6509    1.8095 O.2       2 ALA2        0.0000 
     39 OG         35.1372  -23.3423    2.6365 O.2       1 SER1        0.0000 
     40 CZ         33.9243  -23.0337    3.4634 C.ar      4 PHE5        0.0000 
     41 CA         34.6137  -22.4623    1.5403 C.3       5 GLY6        0.0000 
     42 CA         33.4009  -22.1537    2.3672 C.3       5 GLY6        0.0000 
     43 CA         34.0902  -21.5824    0.4441 C.3       5 GLY6        0.0000 
     44 DU         32.8774  -21.2737    1.2710 H         6 CUB7        0.0000 
     45 CA         31.6646  -20.9651    2.0979 C.3       5 GLY6        0.0000 
     46 CA         33.5667  -20.7024   -0.6521 C.3       5 GLY6        0.0000 
     47 CA         32.3539  -20.3938    0.1748 C.3       5 GLY6        0.0000 
     48 CA         35.4689  -20.4397   -3.4021 C.3       5 GLY6        0.0000 
     49 CA         34.2561  -20.1311   -2.5752 C.3       5 GLY6        0.0000 
     50 N          33.0433  -19.8224   -1.7483 N.2       2 ALA2        0.0000 
     51 CA         34.9454  -19.5597   -4.4983 C.3       5 GLY6        0.0000 
     52 CZ         33.7326  -19.2511   -3.6714 C.ar      4 PHE5        0.0000 
     53 CZ         32.5198  -18.9425   -2.8445 C.ar      4 PHE5        0.0000 
     54 CZ         33.2091  -18.3711   -4.7676 C.ar      4 PHE5        0.0000 
     55 OG         33.9031  -23.6372    0.9365 O.2       1 SER1        0.0000 
     56 OG         32.6902  -23.3286    1.7634 O.2       1 SER1        0.0000 
     57 CA         33.3796  -22.7573   -0.1597 C.3       5 GLY6        0.0000 
     58 N          32.1667  -22.4487    0.6672 N.2       2 ALA2        0.0000 
     59 CA         34.7583  -21.6146   -4.0059 C.3       5 GLY6        0.0000 
     60 CA         33.5454  -21.3060   -3.1790 C.3       5 GLY6        0.0000 
     61 NZ         34.2348  -20.7346   -5.1021 N.2       3 LYS4        0.0000 
     62 N          33.0220  -20.4260   -4.2752 N.2       2 ALA2        0.0000 
     63 N          31.8091  -20.1174   -3.4483 N.2       2 ALA2        0.0000 
     64 CZ         31.2857  -19.2374   -4.5445 C.ar      4 PHE5        0.0000 
@<TRIPOS>BOND
@<TRIPOS>SUBSTRUCTURE
     1 SER1       39 GROUP   
     2 ALA2        2 GROUP   
     3 LYS4       61 GROUP   
     4 PHE5        7 GROUP   
     5 GLY6        1 GROUP   
     6 CUB7       13 GROUP   
@<TRIPOS>SET

