#    Name: 4m89_TCL_1_INTS_M
#    Modification time : Tue Mar 25 11:56:37 2014

@<TRIPOS>MOLECULE
4m89_TCL_1_INTS_M
   62     0     9     0     0
SMALL
NO_CHARGES


@<TRIPOS>ATOM
      1 CA         35.0655  -26.5255    6.2585 C.3       3 GLC5        0.0000 
      2 CA         36.0750  -25.2970    5.0800 C.3       9 GLL5        0.0000 
      3 CA         34.0560  -27.7540    7.4370 C.3       6 GLP5        0.0000 
      4 CA         38.3350  -23.2120    1.8605 C.3       3 GLC5        0.0000 
      5 CA         37.1860  -24.4560    2.6180 C.3       9 GLL5        0.0000 
      6 CA         39.4840  -21.9680    1.1030 C.3       6 GLP5        0.0000 
      7 CA         39.2960  -23.8860    2.4675 C.3       3 GLC5        0.0000 
      8 CA         38.0090  -24.7620    3.6970 C.3       9 GLL5        0.0000 
      9 CA         40.5830  -23.0100    1.2380 C.3       6 GLP5        0.0000 
     10 CA         31.2465  -20.6855    0.0155 C.3       3 GLC5        0.0000 
     11 CA         33.0760  -21.3560    0.4870 C.3       9 GLL5        0.0000 
     12 CA         29.4170  -20.0150   -0.4560 C.3       6 GLP5        0.0000 
     13 CA         35.9740  -20.4325    3.7310 C.3       3 GLC5        0.0000 
     14 CA         34.5090  -20.6820    2.3130 C.3       9 GLL5        0.0000 
     15 CA         37.4390  -20.1830    5.1490 C.3       6 GLP5        0.0000 
     16 CA         36.3415  -21.8115    3.9295 C.3       3 GLC5        0.0000 
     17 CA         34.9910  -21.9650    2.4800 C.3       9 GLL5        0.0000 
     18 CA         37.6920  -21.6580    5.3790 C.3       6 GLP5        0.0000 
     19 CA         38.0560  -26.7240    7.5525 C.3       3 GLC5        0.0000 
     20 CA         38.5620  -25.5420    6.2280 C.3       9 GLL5        0.0000 
     21 CA         37.5500  -27.9060    8.8770 C.3       6 GLP5        0.0000 
     22 CA         40.3575  -26.4555    6.3675 C.3       3 GLC5        0.0000 
     23 CA         42.1530  -27.3690    6.5070 C.3       6 GLP5        0.0000 
     24 CA         38.1270  -23.6000    5.8035 C.3       3 GLC5        0.0000 
     25 CA         40.1250  -24.7925    5.4510 C.3       3 GLC5        0.0000 
     26 CA         41.6880  -24.0430    4.6740 C.3       6 GLP5        0.0000 
     27 CA         40.1715  -25.1890    7.7095 C.3       3 GLC5        0.0000 
     28 CA         41.7810  -24.8360    9.1910 C.3       6 GLP5        0.0000 
     29 CA         37.8365  -27.1185    5.1785 C.3       3 GLC5        0.0000 
     30 CA         37.1110  -28.6950    4.1290 C.3       6 GLP5        0.0000 
     31 CA         31.1965  -19.3755    0.3420 C.3       3 GLC5        0.0000 
     32 CA         32.9760  -18.7360    1.1400 C.3       9 GLL5        0.0000 
     33 CA         31.1630  -17.9120    1.5425 C.3       3 GLC5        0.0000 
     34 CA         29.3500  -17.0880    1.9450 C.3       6 GLP5        0.0000 
     35 CA         33.4440  -18.1910    2.7920 C.3       3 GLC5        0.0000 
     36 CA         33.9120  -17.6460    4.4440 C.3       6 GLP5        0.0000 
     37 CA         31.2080  -23.8510   -0.5080 C.3       3 GLC5        0.0000 
     38 CA         32.9670  -23.9130   -0.4270 C.3       9 GLL5        0.0000 
     39 CA         29.4490  -23.7890   -0.5890 C.3       6 GLP5        0.0000 
     40 CA         34.4570  -23.2030   -1.0440 C.3       3 GLC5        0.0000 
     41 CA         35.9470  -22.4930   -1.6610 C.3       6 GLP5        0.0000 
     42 CA         33.1285  -25.3675    0.4290 C.3       3 GLC5        0.0000 
     43 CA         33.2900  -26.8220    1.2850 C.3       6 GLP5        0.0000 
     44 N          33.2350  -25.6090    3.2375 N.am      2 SEC2        0.0000 
     45 N          33.8780  -25.0910    4.1570 N.am      8 SEL2        0.0000 
     46 N          32.5920  -26.1270    2.3180 N.am      5 SEP2        0.0000 
     47 O          33.3030  -24.8945    5.2525 O.2       1 ALC1        0.0000 
     48 O          33.8780  -25.0910    4.1570 O.2       7 ALL1        0.0000 
     49 O          32.7280  -24.6980    6.3480 O.2       4 ALP1        0.0000 
     50 CA         37.2280  -23.4445    5.1830 C.3       3 GLC5        0.0000 
     51 CA         36.6047  -23.2205    4.3878 C.3       3 GLC5        0.0000 
     52 CA         35.2230  -24.9940    4.0340 C.3       9 GLL5        0.0000 
     53 CA         34.4038  -25.8025    2.3407 C.3       3 GLC5        0.0000 
     54 CA         35.8120  -24.5720    2.7590 C.3       9 GLL5        0.0000 
     55 CA         37.6448  -23.1335    4.2683 C.3       3 GLC5        0.0000 
     56 CA         33.9763  -19.0920    3.1350 C.3       3 GLC5        0.0000 
     57 CA         34.6355  -21.6840   -0.3740 C.3       3 GLC5        0.0000 
     58 CA         33.5720  -20.3940    1.3390 C.3       9 GLL5        0.0000 
     59 CA         31.3778  -22.8938   -0.0145 C.3       3 GLC5        0.0000 
     60 CA         33.5370  -22.6410    0.6330 C.3       9 GLL5        0.0000 
     61 CA         33.6623  -24.8172    1.2145 C.3       3 GLC5        0.0000 
     62 CA         35.2299  -22.4409    0.0755 C.3       3 GLC5        0.0000 
@<TRIPOS>BOND
@<TRIPOS>SUBSTRUCTURE
     1 ALC1       47 GROUP        1 X    ALC  0     ROOT ALC X 1
     2 SEC2       44 GROUP        1 X    SEC  0     **** SEC X 2
     3 GLC5        1 GROUP        1 X    GLC  0     **** GLC X 6
     4 ALP1       49 GROUP        1 Y    ALP  0     ROOT ALP Y 8
     5 SEP2       46 GROUP        1 Y    SEP  0     **** SEP Y 9
     6 GLP5        3 GROUP        1 Y    GLP  0     **** GLP Y 13
     7 ALL1       48 GROUP        1 Z    ALL  0     ROOT ALL Z 15
     8 SEL2       45 GROUP        1 Z    SEL  0     **** SEL Z 16
     9 GLL5        2 GROUP        1 Z    GLL  0     **** GLL Z 20
@<TRIPOS>SET

