#    Name: 4m89_TCL_1_ligand
#    Modification time : Tue Mar 25 11:56:37 2014

@<TRIPOS>MOLECULE
4m89_TCL_1_ligand
   24    25     1     0     0
SMALL
NO_CHARGES


@<TRIPOS>ATOM
      1 C1         36.0750  -25.2970    5.0800 C.ar      1 TCL302      0.0000 
      2 C2         37.4530  -25.1650    4.8940 C.ar      1 TCL302      0.0000 
      3 C6         35.2230  -24.9940    4.0340 C.ar      1 TCL302      0.0000 
      4 C5         35.8120  -24.5720    2.7590 C.ar      1 TCL302      0.0000 
      5 C4         37.1860  -24.4560    2.6180 C.ar      1 TCL302      0.0000 
      6 C3         38.0090  -24.7620    3.6970 C.ar      1 TCL302      0.0000 
      7 C11        33.5720  -20.3940    1.3390 C.ar      1 TCL302      0.0000 
      8 C10        33.0760  -21.3560    0.4870 C.ar      1 TCL302      0.0000 
      9 C9         33.5370  -22.6410    0.6330 C.ar      1 TCL302      0.0000 
     10 C8         34.5320  -22.9840    1.6550 C.ar      1 TCL302      0.0000 
     11 C12        34.5090  -20.6820    2.3130 C.ar      1 TCL302      0.0000 
     12 C13        34.9910  -21.9650    2.4800 C.ar      1 TCL302      0.0000 
     13 O7         34.9740  -24.2690    1.7330 O.3       1 TCL302      0.0000 
     14 CL14       38.5620  -25.5420    6.2280 Cl        1 TCL302      0.0000 
     15 CL15       32.9760  -18.7360    1.1400 Cl        1 TCL302      0.0000 
     16 CL16       32.9670  -23.9130   -0.4270 Cl        1 TCL302      0.0000 
     17 O17        33.8780  -25.0910    4.1570 O.3       1 TCL302      0.0000 
     18 H          35.7076  -25.6139    5.9799 H         1 TCL302      0.0000 
     19 H          37.5931  -24.1486    1.7302 H         1 TCL302      0.0000 
     20 H          39.0307  -24.6863    3.5976 H         1 TCL302      0.0000 
     21 H          32.3896  -21.1196   -0.2274 H         1 TCL302      0.0000 
     22 H          34.8558  -19.9210    2.9289 H         1 TCL302      0.0000 
     23 H          35.6855  -22.1688    3.2095 H         1 TCL302      0.0000 
     24 H          33.7237  -25.3562    5.1088 H         1 TCL302      0.0000 
@<TRIPOS>BOND
     1    2    1 ar   
     2    3    1 ar   
     3   18    1 1    
     4    6    2 ar   
     5   14    2 1    
     6    4    3 ar   
     7   17    3 1    
     8    5    4 ar   
     9   13    4 1    
    10    6    5 ar   
    11   19    5 1    
    12   20    6 1    
    13    8    7 ar   
    14   11    7 ar   
    15   15    7 1    
    16    9    8 ar   
    17   21    8 1    
    18   10    9 ar   
    19   16    9 1    
    20   12   10 ar   
    21   13   10 1    
    22   12   11 ar   
    23   22   11 1    
    24   23   12 1    
    25   24   17 1    
@<TRIPOS>SUBSTRUCTURE
     1 TCL302      1 GROUP   
@<TRIPOS>SET

