#    Name: 1boo_SAH_1_INTS_M
#    Modification time : Mon Mar 24 19:40:59 2014

@<TRIPOS>MOLECULE
1boo_SAH_1_INTS_M
   58     0     9     0     0
SMALL
NO_CHARGES


@<TRIPOS>ATOM
      1 N          -4.0855   39.3325   45.8530 N.am      2 SEC2        0.0000 
      2 N          -5.2100   38.7010   46.7670 N.am      8 SEL2        0.0000 
      3 N          -2.9610   39.9640   44.9390 N.am      5 SEP2        0.0000 
      4 N          -4.2890   38.2235   47.9970 N.am      2 SEC2        0.0000 
      5 N          -3.3680   37.7460   49.2270 N.am      5 SEP2        0.0000 
      6 N          -7.3660   36.1625   46.8365 N.am      2 SEC2        0.0000 
      7 N          -6.7340   37.1890   46.2750 N.am      8 SEL2        0.0000 
      8 N          -7.9980   35.1360   47.3980 N.am      5 SEP2        0.0000 
      9 N          -5.9275   36.1895   46.7790 N.am      2 SEC2        0.0000 
     10 N          -5.1210   35.1900   47.2830 N.am      5 SEP2        0.0000 
     11 CA        -12.1010   35.3870   42.4950 C.3       3 GLC5        0.0000 
     12 CA        -12.4890   37.5660   42.7810 C.3       9 GLL5        0.0000 
     13 CA        -11.7130   33.2080   42.2090 C.3       6 GLP5        0.0000 
     14 N         -10.6855   35.9975   43.1210 N.am      2 SEC2        0.0000 
     15 N         -12.0530   36.3200   43.4490 N.am      8 SEL2        0.0000 
     16 N          -9.3180   35.6750   42.7930 N.am      5 SEP2        0.0000 
     17 O         -12.6745   36.2580   44.7075 O.2       1 ALC1        0.0000 
     18 O         -12.0530   36.3200   43.4490 O.2       7 ALL1        0.0000 
     19 O         -13.2960   36.1960   45.9660 O.2       4 ALP1        0.0000 
     20 O         -13.4420   35.6615   44.2220 O.2       1 ALC1        0.0000 
     21 O         -14.8310   35.0030   44.9950 O.2       4 ALP1        0.0000 
     22 O         -14.6880   35.5400   43.7515 O.2       1 ALC1        0.0000 
     23 O         -14.5450   36.0770   42.5080 O.2       7 ALL1        0.0000 
     24 CA        -13.9985   39.7620   44.8710 C.3       3 GLC5        0.0000 
     25 CA        -14.6380   38.0690   43.8670 C.3       9 GLL5        0.0000 
     26 CA        -13.3590   41.4550   45.8750 C.3       6 GLP5        0.0000 
     27 O         -21.4470   40.5250   45.1565 O.2       1 ALC1        0.0000 
     28 O         -20.1050   40.4550   44.2810 O.2       7 ALL1        0.0000 
     29 O         -22.7890   40.5950   46.0320 O.2       4 ALP1        0.0000 
     30 N         -20.0420   39.8200   47.2885 N.am      2 SEC2        0.0000 
     31 N         -19.0270   39.4710   46.0660 N.am      8 SEL2        0.0000 
     32 N         -21.0570   40.1690   48.5110 N.am      5 SEP2        0.0000 
     33 CA        -18.6055   40.2580   47.9490 C.3       3 GLC5        0.0000 
     34 CA        -17.9260   38.8330   46.5710 C.3       9 GLL5        0.0000 
     35 CA        -19.2850   41.6830   49.3270 C.3       6 GLP5        0.0000 
     36 CA        -16.8905   37.4305   47.4690 C.3       3 GLC5        0.0000 
     37 CA        -15.8550   36.0280   48.3670 C.3       6 GLP5        0.0000 
     38 CA        -18.3675   37.0650   45.6245 C.3       3 GLC5        0.0000 
     39 CA        -18.8090   35.2970   44.6780 C.3       6 GLP5        0.0000 
     40 N         -17.0305   36.8595   46.2470 N.am      2 SEC2        0.0000 
     41 N         -16.8130   38.4200   45.9620 N.am      8 SEL2        0.0000 
     42 N         -17.2480   35.2990   46.5320 N.am      5 SEP2        0.0000 
     43 CA        -17.8990   37.0380   44.6640 C.3       3 GLC5        0.0000 
     44 CA        -16.9890   38.7790   44.6500 C.3       9 GLL5        0.0000 
     45 CA         -5.9047   38.7282   44.6838 C.3       3 GLC5        0.0000 
     46 CA         -7.9290   39.1960   44.9080 C.3       9 GLL5        0.0000 
     47 CA         -4.0930   38.1600   43.7300 C.3       6 GLP5        0.0000 
     48 CA         -9.3281   37.6889   45.8596 C.3       3 GLC5        0.0000 
     49 CA        -10.0840   36.0390   46.5590 C.3       6 GLP5        0.0000 
     50 CA        -12.8750   39.9948   41.7135 C.3       3 GLC5        0.0000 
     51 CA        -12.3190   38.8070   43.6550 C.3       9 GLL5        0.0000 
     52 CA        -13.7830   40.6700   40.1130 C.3       6 GLP5        0.0000 
     53 CA        -12.6630   40.3873   44.5945 C.3       3 GLC5        0.0000 
     54 CA        -11.6150   39.8320   42.9730 C.3       9 GLL5        0.0000 
     55 CA        -13.5405   39.0902   41.4047 C.3       3 GLC5        0.0000 
     56 CA        -19.6715   38.1435   43.9458 C.3       3 GLC5        0.0000 
     57 CA        -18.0540   39.4220   44.0460 C.3       9 GLL5        0.0000 
     58 CA        -20.7760   36.6920   43.4810 C.3       6 GLP5        0.0000 
@<TRIPOS>BOND
@<TRIPOS>SUBSTRUCTURE
     1 ALC1       17 GROUP        1 X    ALC  0     ROOT ALC X 1
     2 SEC2        1 GROUP        1 X    SEC  0     **** SEC X 2
     3 GLC5       11 GROUP        1 X    GLC  0     **** GLC X 6
     4 ALP1       19 GROUP        1 Y    ALP  0     ROOT ALP Y 8
     5 SEP2        3 GROUP        1 Y    SEP  0     **** SEP Y 9
     6 GLP5       13 GROUP        1 Y    GLP  0     **** GLP Y 13
     7 ALL1       18 GROUP        1 Z    ALL  0     ROOT ALL Z 15
     8 SEL2        2 GROUP        1 Z    SEL  0     **** SEL Z 16
     9 GLL5       12 GROUP        1 Z    GLL  0     **** GLL Z 20
@<TRIPOS>SET

