#    Name: 1boo_SAH_1_ligand
#    Modification time : Mon Mar 24 19:40:59 2014

@<TRIPOS>MOLECULE
1boo_SAH_1_ligand
   46    48     1     0     0
SMALL
NO_CHARGES


@<TRIPOS>ATOM
      1 N          -7.0780   40.7260   46.6270 N.4       1 SAH401      0.0000 
      2 CA         -7.5040   39.3970   46.3670 C.3       1 SAH401      0.0000 
      3 CB         -7.9290   39.1960   44.9080 C.3       1 SAH401      0.0000 
      4 CG         -9.4280   39.3810   44.6830 C.3       1 SAH401      0.0000 
      5 SD         -9.8250   39.4170   42.9000 S.3       1 SAH401      0.0000 
      6 C          -6.4590   38.3660   46.7370 C.2       1 SAH401      0.0000 
      7 O          -5.2100   38.7010   46.7670 O.co2     1 SAH401      0.0000 
      8 OXT        -6.7340   37.1890   46.2750 O.co2     1 SAH401      0.0000 
      9 C5'       -11.6150   39.8320   42.9730 C.3       1 SAH401      0.0000 
     10 C4'       -12.3190   38.8070   43.6550 C.3       1 SAH401      0.0000 
     11 O4'       -13.7190   39.2130   43.7530 O.3       1 SAH401      0.0000 
     12 C3'       -12.4890   37.5660   42.7810 C.3       1 SAH401      0.0000 
     13 O3'       -12.0530   36.3200   43.4490 O.3       1 SAH401      0.0000 
     14 C2'       -14.1070   37.4550   42.6120 C.3       1 SAH401      0.0000 
     15 O2'       -14.5450   36.0770   42.5080 O.3       1 SAH401      0.0000 
     16 C1'       -14.6380   38.0690   43.8670 C.3       1 SAH401      0.0000 
     17 N9        -16.0240   38.5560   43.6550 N.pl3     1 SAH401      0.0000 
     18 C8        -16.6290   39.0950   42.4980 C.2       1 SAH401      0.0000 
     19 N7        -17.8560   39.6300   42.7300 N.2       1 SAH401      0.0000 
     20 C5        -18.0540   39.4220   44.0460 C.ar      1 SAH401      0.0000 
     21 C6        -19.0800   39.7680   44.7750 C.ar      1 SAH401      0.0000 
     22 N6        -20.1050   40.4550   44.2810 N.pl3     1 SAH401      0.0000 
     23 N1        -19.0270   39.4710   46.0660 N.ar      1 SAH401      0.0000 
     24 C2        -17.9260   38.8330   46.5710 C.ar      1 SAH401      0.0000 
     25 N3        -16.8130   38.4200   45.9620 N.ar      1 SAH401      0.0000 
     26 C4        -16.9890   38.7790   44.6500 C.ar      1 SAH401      0.0000 
     27 H          -8.4061   39.1614   46.9787 H         1 SAH401      0.0000 
     28 H          -7.6399   38.1843   44.5899 H         1 SAH401      0.0000 
     29 H          -7.3800   39.9089   44.2766 H         1 SAH401      0.0000 
     30 H          -9.8002   40.3227   45.0131 H         1 SAH401      0.0000 
     31 H         -10.0192   38.5644   45.0264 H         1 SAH401      0.0000 
     32 H         -11.8255   39.9470   41.9232 H         1 SAH401      0.0000 
     33 H         -11.5670   40.7916   43.4594 H         1 SAH401      0.0000 
     34 H         -11.9512   38.5340   44.5742 H         1 SAH401      0.0000 
     35 H         -12.1043   37.7066   41.8371 H         1 SAH401      0.0000 
     36 H         -14.3587   38.0520   41.7833 H         1 SAH401      0.0000 
     37 H         -14.4564   37.5151   44.6598 H         1 SAH401      0.0000 
     38 H         -16.1816   39.0715   41.6207 H         1 SAH401      0.0000 
     39 H         -20.0410   40.7076   43.3155 H         1 SAH401      0.0000 
     40 H         -20.8477   40.6573   44.9194 H         1 SAH401      0.0000 
     41 H         -17.9795   38.6323   47.6646 H         1 SAH401      0.0000 
     42 H          -6.7993   40.8470   47.5797 H         1 SAH401      0.0000 
     43 H          -6.2970   40.9836   46.0581 H         1 SAH401      0.0000 
     44 H          -7.8034   41.3904   46.4472 H         1 SAH401      0.0000 
     45 H         -12.5415   36.3096   44.3215 H         1 SAH401      0.0000 
     46 H         -14.5849   35.7464   43.4509 H         1 SAH401      0.0000 
@<TRIPOS>BOND
     1    2    1 1    
     2   42    1 1    
     3   43    1 1    
     4   44    1 1    
     5    3    2 1    
     6    6    2 1    
     7   27    2 1    
     8    4    3 1    
     9   28    3 1    
    10   29    3 1    
    11    5    4 1    
    12   30    4 1    
    13   31    4 1    
    14    9    5 1    
    15    7    6 ar   
    16    8    6 ar   
    17   10    9 1    
    18   32    9 1    
    19   33    9 1    
    20   11   10 1    
    21   12   10 1    
    22   34   10 1    
    23   16   11 1    
    24   13   12 1    
    25   14   12 1    
    26   35   12 1    
    27   45   13 1    
    28   15   14 1    
    29   16   14 1    
    30   36   14 1    
    31   46   15 1    
    32   17   16 1    
    33   37   16 1    
    34   18   17 1    
    35   26   17 1    
    36   19   18 2    
    37   38   18 1    
    38   20   19 1    
    39   21   20 ar   
    40   26   20 ar   
    41   22   21 1    
    42   23   21 ar   
    43   39   22 1    
    44   40   22 1    
    45   24   23 ar   
    46   25   24 ar   
    47   41   24 1    
    48   26   25 ar   
@<TRIPOS>SUBSTRUCTURE
     1 SAH401      1 GROUP   
@<TRIPOS>SET

