#    Name: 3ndx_RIT_1_INTS_M
#    Modification time : Tue Mar 25 01:25:49 2014

@<TRIPOS>MOLECULE
3ndx_RIT_1_INTS_M
  103     0     9     0     0
SMALL
NO_CHARGES


@<TRIPOS>ATOM
      1 CA         32.8200   -4.2655   19.4785 C.3       3 GLC5        0.0000 
      2 CA         32.2700   -5.9100   18.9960 C.3       9 GLL5        0.0000 
      3 CA         33.3700   -2.6210   19.9610 C.3       6 GLP5        0.0000 
      4 CA         33.2685   -6.4065   20.5830 C.3       3 GLC5        0.0000 
      5 CA         34.2670   -6.9030   22.1700 C.3       6 GLP5        0.0000 
      6 CA         32.6070   -3.6610   18.3555 C.3       3 GLC5        0.0000 
      7 CA         31.8440   -4.7010   16.7500 C.3       9 GLL5        0.0000 
      8 CA         31.5230    2.3175   15.9505 C.3       3 GLC5        0.0000 
      9 CA         31.8000    0.4980   14.8650 C.3       9 GLL5        0.0000 
     10 CA         31.2460    4.1370   17.0360 C.3       6 GLP5        0.0000 
     11 CA         27.8195   -4.0040   12.5600 C.3       3 GLC5        0.0000 
     12 CA         28.3630   -4.1170   14.6070 C.3       9 GLL5        0.0000 
     13 CA         27.2760   -3.8910   10.5130 C.3       6 GLP5        0.0000 
     14 CA         27.9590   -5.3900   12.4865 C.3       3 GLC5        0.0000 
     15 CA         28.0090   -5.4760   14.5370 C.3       9 GLL5        0.0000 
     16 CA         27.9090   -5.3040   10.4360 C.3       6 GLP5        0.0000 
     17 CA         26.5480   -6.4600   13.4050 C.3       3 GLC5        0.0000 
     18 CA         25.0870   -7.4440   12.2730 C.3       6 GLP5        0.0000 
     19 CA         26.8595   -7.6240   14.8115 C.3       3 GLC5        0.0000 
     20 CA         28.0600   -6.2360   15.6950 C.3       9 GLL5        0.0000 
     21 CA         25.6590   -9.0120   13.9280 C.3       6 GLP5        0.0000 
     22 CA         27.8055   -3.6730   18.7420 C.3       3 GLC5        0.0000 
     23 CA         28.6080   -4.2840   16.9630 C.3       9 GLL5        0.0000 
     24 CA         27.0030   -3.0620   20.5210 C.3       6 GLP5        0.0000 
     25 N          29.1885    0.2845   17.1010 N.am      2 SEC2        0.0000 
     26 N          30.6670    0.2020   16.9310 N.am      8 SEL2        0.0000 
     27 N          27.7100    0.3670   17.2710 N.am      5 SEP2        0.0000 
     28 O          31.8885    0.4840   17.2245 O.2       1 ALC1        0.0000 
     29 O          30.6670    0.2020   16.9310 O.2       7 ALL1        0.0000 
     30 O          33.1100    0.7660   17.5180 O.2       4 ALP1        0.0000 
     31 CA         33.6905    3.0460   13.9535 C.3       3 GLC5        0.0000 
     32 CA         32.9810    1.3490   12.8900 C.3       9 GLL5        0.0000 
     33 CA         34.4000    4.7430   15.0170 C.3       6 GLP5        0.0000 
     34 CA         35.1530   -1.2640    9.8500 C.3       3 GLC5        0.0000 
     35 CA         34.0950    0.3260    9.3990 C.3       9 GLL5        0.0000 
     36 CA         36.2110   -2.8540   10.3010 C.3       6 GLP5        0.0000 
     37 CA         34.4385   -1.4165   10.9290 C.3       3 GLC5        0.0000 
     38 CA         33.8740    0.3320   10.7510 C.3       9 GLL5        0.0000 
     39 CA         35.0030   -3.1650   11.1070 C.3       6 GLP5        0.0000 
     40 O          30.6285    2.4995   13.8260 O.2       1 ALC1        0.0000 
     41 O          30.4630    1.2560   12.9120 O.2       7 ALL1        0.0000 
     42 O          30.7940    3.7430   14.7400 O.2       4 ALP1        0.0000 
     43 O          28.8325    1.4910    9.3535 O.2       1 ALC1        0.0000 
     44 O          28.8720    2.3670   10.5180 O.2       7 ALL1        0.0000 
     45 O          28.7930    0.6150    8.1890 O.2       4 ALP1        0.0000 
     46 CA         28.2455    2.8400   13.3895 C.3       3 GLC5        0.0000 
     47 CA         28.4750    1.6920   11.8070 C.3       9 GLL5        0.0000 
     48 CA         28.0160    3.9880   14.9720 C.3       6 GLP5        0.0000 
     49 CA         24.5960    3.4720   11.2090 C.3       3 GLC5        0.0000 
     50 CA         26.0810    2.0750   11.1860 C.3       9 GLL5        0.0000 
     51 CA         23.1110    4.8690   11.2320 C.3       6 GLP5        0.0000 
     52 CA         24.2605    1.1320   11.5095 C.3       3 GLC5        0.0000 
     53 CA         22.4400    0.1890   11.8330 C.3       6 GLP5        0.0000 
     54 CA         24.7130    0.9115    9.9395 C.3       3 GLC5        0.0000 
     55 CA         23.3450   -0.2520    8.6930 C.3       6 GLP5        0.0000 
     56 CA         25.9245   -1.2345   11.5290 C.3       3 GLC5        0.0000 
     57 CA         26.6730    0.0330   12.5490 C.3       9 GLL5        0.0000 
     58 CA         25.1760   -2.5020   10.5090 C.3       6 GLP5        0.0000 
     59 CA         24.5565    0.1110   12.1910 C.3       3 GLC5        0.0000 
     60 CA         25.9245   -1.1735   13.8955 C.3       3 GLC5        0.0000 
     61 CA         25.1760   -2.3800   15.2420 C.3       6 GLP5        0.0000 
     62 CA         28.5705    6.5505   10.5765 C.3       3 GLC5        0.0000 
     63 CA         30.1550    5.6850    9.5510 C.3       9 GLL5        0.0000 
     64 CA         26.9860    7.4160   11.6020 C.3       6 GLP5        0.0000 
     65 N          28.3390    5.0205   12.5340 N.am      2 SEC2        0.0000 
     66 N          29.2560    4.2720   11.6610 N.am      8 SEL2        0.0000 
     67 N          27.4220    5.7690   13.4070 N.am      5 SEP2        0.0000 
     68 CA         35.8130    4.9695   10.4190 C.3       3 GLC5        0.0000 
     69 CA         34.1260    5.8780    9.7960 C.3       9 GLL5        0.0000 
     70 CA         37.5000    4.0610   11.0420 C.3       6 GLP5        0.0000 
     71 CA         35.8900    3.3730    6.4215 C.3       3 GLC5        0.0000 
     72 CA         34.1520    4.3810    6.3040 C.3       9 GLL5        0.0000 
     73 CA         37.6280    2.3650    6.5390 C.3       6 GLP5        0.0000 
     74 CA         36.7850    4.0700    6.9875 C.3       3 GLC5        0.0000 
     75 CA         35.9420    5.7750    7.4360 C.3       9 GLL5        0.0000 
     76 CA         36.7210    4.9180    9.2390 C.3       3 GLC5        0.0000 
     77 CA         29.6525   -5.5397   13.3275 C.3       3 GLC5        0.0000 
     78 CA         31.1190   -6.2830   12.0830 C.3       6 GLP5        0.0000 
     79 CA         26.6810   -3.5882   14.9070 C.3       3 GLC5        0.0000 
     80 CA         26.9632   -2.9624   15.8296 C.3       3 GLC5        0.0000 
     81 CA         31.8798    0.3455    9.8335 C.3       3 GLC5        0.0000 
     82 CA         33.1610    1.3510   11.3890 C.3       9 GLL5        0.0000 
     83 CA         30.8690   -1.1790    8.6540 C.3       6 GLP5        0.0000 
     84 CA         34.6080    2.6763   10.6333 C.3       3 GLC5        0.0000 
     85 CA         32.8140    2.3520    9.2800 C.3       9 GLL5        0.0000 
     86 CA         36.4990    2.9820   11.3080 C.3       6 GLP5        0.0000 
     87 CA         32.0363    0.3440    8.8057 C.3       3 GLC5        0.0000 
     88 CA         35.2910    1.0895    8.0740 C.3       3 GLC5        0.0000 
     89 CA         33.5930    1.3820    8.6350 C.3       9 GLL5        0.0000 
     90 CA         36.7380    1.3250    7.1310 C.3       6 GLP5        0.0000 
     91 CA         35.1715    1.9180   10.1625 C.3       3 GLC5        0.0000 
     92 CA         32.4267   -0.4250    9.3645 C.3       3 GLC5        0.0000 
     93 CA         34.9857    1.9115   11.3766 C.3       3 GLC5        0.0000 
     94 CA         34.9128    0.3135   12.7471 C.3       3 GLC5        0.0000 
     95 CA         36.3530   -0.2140   14.0490 C.3       6 GLP5        0.0000 
     96 CA         26.7749    1.9456   13.7140 C.3       3 GLC5        0.0000 
     97 CA         27.1000    1.3920   12.1320 C.3       9 GLL5        0.0000 
     98 CA         26.9180    3.0080   15.3240 C.3       6 GLP5        0.0000 
     99 CA         33.1172    7.5695   11.0390 C.3       3 GLC5        0.0000 
    100 CA         32.5650    5.8960   10.4320 C.3       9 GLL5        0.0000 
    101 CA         32.8890    9.2520   11.9640 C.3       6 GLP5        0.0000 
    102 CA         26.7514   -5.5091   16.6655 C.3       3 GLC5        0.0000 
    103 CA         25.2120   -5.7030   17.4560 C.3       6 GLP5        0.0000 
@<TRIPOS>BOND
@<TRIPOS>SUBSTRUCTURE
     1 ALC1       28 GROUP        1 X    ALC  0     ROOT ALC X 1
     2 SEC2       25 GROUP        1 X    SEC  0     **** SEC X 2
     3 GLC5        1 GROUP        1 X    GLC  0     **** GLC X 6
     4 ALP1       30 GROUP        1 Y    ALP  0     ROOT ALP Y 8
     5 SEP2       27 GROUP        1 Y    SEP  0     **** SEP Y 9
     6 GLP5        3 GROUP        1 Y    GLP  0     **** GLP Y 13
     7 ALL1       29 GROUP        1 Z    ALL  0     ROOT ALL Z 15
     8 SEL2       26 GROUP        1 Z    SEL  0     **** SEL Z 16
     9 GLL5        2 GROUP        1 Z    GLL  0     **** GLL Z 20
@<TRIPOS>SET

