#    Name: 3ndx_RIT_1_ligand
#    Modification time : Tue Mar 25 01:25:49 2014

@<TRIPOS>MOLECULE
3ndx_RIT_1_ligand
   98   101     1     0     0
SMALL
NO_CHARGES


@<TRIPOS>ATOM
      1 C1         31.2900   -7.2170   17.2400 C.2       1 RIT100      0.0000 
      2 C2         32.0650   -6.0980   17.2900 C.2       1 RIT100      0.0000 
      3 S3         32.2700   -5.9100   18.9960 S.3       1 RIT100      0.0000 
      4 C4         31.3070   -7.2800   19.3840 C.2       1 RIT100      0.0000 
      5 N5         30.8620   -7.9200   18.3910 N.2       1 RIT100      0.0000 
      6 C6         31.8440   -4.7010   16.7500 C.3       1 RIT100      0.0000 
      7 O7         32.8840   -4.1710   15.9390 O.3       1 RIT100      0.0000 
      8 C10        32.3110   -3.1470   15.2510 C.2       1 RIT100      0.0000 
      9 O24        32.5520   -3.0660   14.0800 O.2       1 RIT100      0.0000 
     10 N11        31.4920   -2.3960   15.9730 N.am      1 RIT100      0.0000 
     11 C12        30.4190   -1.6560   15.3340 C.3       1 RIT100      0.0000 
     12 C13        30.5860   -0.1340   15.5610 C.3       1 RIT100      0.0000 
     13 C14        31.8000    0.4980   14.8650 C.3       1 RIT100      0.0000 
     14 C15        31.6800    0.6320   13.3440 C.3       1 RIT100      0.0000 
     15 C26        29.0670   -2.0610   15.9260 C.3       1 RIT100      0.0000 
     16 C28        28.7190   -3.5500   15.8170 C.ar      1 RIT100      0.0000 
     17 C31        28.3630   -4.1170   14.6070 C.ar      1 RIT100      0.0000 
     18 C32        28.0090   -5.4760   14.5370 C.ar      1 RIT100      0.0000 
     19 C33        28.0600   -6.2360   15.6950 C.ar      1 RIT100      0.0000 
     20 C34        28.4310   -5.6320   16.8780 C.ar      1 RIT100      0.0000 
     21 C35        28.6080   -4.2840   16.9630 C.ar      1 RIT100      0.0000 
     22 O41        30.6670    0.2020   16.9310 O.3       1 RIT100      0.0000 
     23 C44        32.9810    1.3490   12.8900 C.3       1 RIT100      0.0000 
     24 C45        33.1610    1.3510   11.3890 C.ar      1 RIT100      0.0000 
     25 C48        32.6200    2.3890   10.6370 C.ar      1 RIT100      0.0000 
     26 C49        32.8140    2.3520    9.2800 C.ar      1 RIT100      0.0000 
     27 C50        33.5930    1.3820    8.6350 C.ar      1 RIT100      0.0000 
     28 C51        34.0950    0.3260    9.3990 C.ar      1 RIT100      0.0000 
     29 C52        33.8740    0.3320   10.7510 C.ar      1 RIT100      0.0000 
     30 N58        30.4630    1.2560   12.9120 N.am      1 RIT100      0.0000 
     31 N20        28.8720    2.3670   10.5180 N.am      1 RIT100      0.0000 
     32 C19        28.4750    1.6920   11.8070 C.3       1 RIT100      0.0000 
     33 C18        29.5460    0.6770   12.1500 C.2       1 RIT100      0.0000 
     34 O61        29.5980   -0.4840   11.7620 O.2       1 RIT100      0.0000 
     35 C62        27.1000    1.3920   12.1320 C.3       1 RIT100      0.0000 
     36 C64        26.0810    2.0750   11.1860 C.3       1 RIT100      0.0000 
     37 C68        26.6730    0.0330   12.5490 C.3       1 RIT100      0.0000 
     38 C21        29.2700    3.6540   10.5860 C.2       1 RIT100      0.0000 
     39 N74        29.6480    4.3130    9.4460 N.am      1 RIT100      0.0000 
     40 C75        30.1550    5.6850    9.5510 C.3       1 RIT100      0.0000 
     41 O76        29.2560    4.2720   11.6610 O.2       1 RIT100      0.0000 
     42 C77        31.6720    5.7240    9.3990 C.2       1 RIT100      0.0000 
     43 C80        32.5650    5.8960   10.4320 C.2       1 RIT100      0.0000 
     44 S81        34.1260    5.8780    9.7960 S.3       1 RIT100      0.0000 
     45 C82        33.5170    5.6960    8.2310 C.2       1 RIT100      0.0000 
     46 N83        32.2220    5.6270    8.1620 N.2       1 RIT100      0.0000 
     47 C85        34.4660    5.6730    7.1260 C.3       1 RIT100      0.0000 
     48 C86        34.1520    4.3810    6.3040 C.3       1 RIT100      0.0000 
     49 C90        35.9420    5.7750    7.4360 C.3       1 RIT100      0.0000 
     50 C95        29.6050    3.6400    8.1410 C.3       1 RIT100      0.0000 
     51 H          30.9820   -7.5958   16.3069 H         1 RIT100      0.0000 
     52 H          31.2402   -7.3694   20.3580 H         1 RIT100      0.0000 
     53 H          31.6432   -4.0309   17.6321 H         1 RIT100      0.0000 
     54 H          30.8664   -4.7105   16.1918 H         1 RIT100      0.0000 
     55 H          31.5709   -2.2998   16.9988 H         1 RIT100      0.0000 
     56 H          30.3885   -1.8296   14.2771 H         1 RIT100      0.0000 
     57 H          29.6894    0.3596   15.1218 H         1 RIT100      0.0000 
     58 H          32.6968   -0.1054   15.1003 H         1 RIT100      0.0000 
     59 H          31.9746    1.5005   15.2988 H         1 RIT100      0.0000 
     60 H          31.7634   -0.4013   12.9471 H         1 RIT100      0.0000 
     61 H          28.2698   -1.4733   15.4287 H         1 RIT100      0.0000 
     62 H          29.0441   -1.7689   16.9949 H         1 RIT100      0.0000 
     63 H          28.3539   -3.5503   13.7479 H         1 RIT100      0.0000 
     64 H          27.7227   -5.8842   13.6507 H         1 RIT100      0.0000 
     65 H          27.8246   -7.2330   15.6692 H         1 RIT100      0.0000 
     66 H          28.5778   -6.2280   17.7238 H         1 RIT100      0.0000 
     67 H          28.6579   -3.8204   17.8845 H         1 RIT100      0.0000 
     68 H          33.8325    0.8469   13.3661 H         1 RIT100      0.0000 
     69 H          32.9510    2.3806   13.2624 H         1 RIT100      0.0000 
     70 H          32.1045    3.1384   11.0834 H         1 RIT100      0.0000 
     71 H          32.3573    3.0882    8.6782 H         1 RIT100      0.0000 
     72 H          33.7853    1.4467    7.6432 H         1 RIT100      0.0000 
     73 H          34.6141   -0.4286    8.9478 H         1 RIT100      0.0000 
     74 H          34.2482   -0.4504   11.3384 H         1 RIT100      0.0000 
     75 H          30.3263    2.2578   13.2511 H         1 RIT100      0.0000 
     76 H          28.8165    1.8176    9.6840 H         1 RIT100      0.0000 
     77 H          28.7827    2.5763   12.6112 H         1 RIT100      0.0000 
     78 H          26.8973    2.0491   13.1406 H         1 RIT100      0.0000 
     79 H          29.8948    6.1204   10.5242 H         1 RIT100      0.0000 
     80 H          29.7142    6.3211    8.7729 H         1 RIT100      0.0000 
     81 H          32.5023    6.0105   11.3291 H         1 RIT100      0.0000 
     82 H          34.2027    6.5035    6.4184 H         1 RIT100      0.0000 
     83 H          26.1596    3.0715   11.2126 H         1 RIT100      0.0000 
     84 H          26.2124    1.7959   10.2348 H         1 RIT100      0.0000 
     85 H          25.1380    1.8488   11.4302 H         1 RIT100      0.0000 
     86 H          26.8627   -0.6490   11.8427 H         1 RIT100      0.0000 
     87 H          27.1439   -0.2659   13.3790 H         1 RIT100      0.0000 
     88 H          25.6919   -0.0063   12.7384 H         1 RIT100      0.0000 
     89 H          34.7607    4.2848    5.5165 H         1 RIT100      0.0000 
     90 H          34.2556    3.5545    6.8573 H         1 RIT100      0.0000 
     91 H          33.2159    4.3829    5.9524 H         1 RIT100      0.0000 
     92 H          36.4984    5.7522    6.6054 H         1 RIT100      0.0000 
     93 H          36.1633    6.6252    7.9138 H         1 RIT100      0.0000 
     94 H          36.2523    5.0228    8.0173 H         1 RIT100      0.0000 
     95 H          29.9124    4.2408    7.4030 H         1 RIT100      0.0000 
     96 H          30.1900    2.8292    8.1218 H         1 RIT100      0.0000 
     97 H          28.6800    3.3396    7.9084 H         1 RIT100      0.0000 
     98 H          31.4479    0.8229   16.9993 H         1 RIT100      0.0000 
@<TRIPOS>BOND
     1    2    1 2    
     2    5    1 1    
     3   51    1 1    
     4    3    2 1    
     5    6    2 1    
     6    4    3 1    
     7    5    4 2    
     8   52    4 1    
     9    7    6 1    
    10   53    6 1    
    11   54    6 1    
    12    8    7 1    
    13    9    8 2    
    14   10    8 am   
    15   11   10 1    
    16   55   10 1    
    17   12   11 1    
    18   15   11 1    
    19   56   11 1    
    20   13   12 1    
    21   22   12 1    
    22   57   12 1    
    23   14   13 1    
    24   58   13 1    
    25   59   13 1    
    26   23   14 1    
    27   30   14 1    
    28   60   14 1    
    29   16   15 1    
    30   61   15 1    
    31   62   15 1    
    32   17   16 ar   
    33   21   16 ar   
    34   18   17 ar   
    35   63   17 1    
    36   19   18 ar   
    37   64   18 1    
    38   20   19 ar   
    39   65   19 1    
    40   21   20 ar   
    41   66   20 1    
    42   67   21 1    
    43   98   22 1    
    44   24   23 1    
    45   68   23 1    
    46   69   23 1    
    47   25   24 ar   
    48   29   24 ar   
    49   26   25 ar   
    50   70   25 1    
    51   27   26 ar   
    52   71   26 1    
    53   28   27 ar   
    54   72   27 1    
    55   29   28 ar   
    56   73   28 1    
    57   74   29 1    
    58   33   30 am   
    59   75   30 1    
    60   32   31 1    
    61   38   31 am   
    62   76   31 1    
    63   33   32 1    
    64   35   32 1    
    65   77   32 1    
    66   34   33 2    
    67   36   35 1    
    68   37   35 1    
    69   78   35 1    
    70   83   36 1    
    71   84   36 1    
    72   85   36 1    
    73   86   37 1    
    74   87   37 1    
    75   88   37 1    
    76   39   38 am   
    77   41   38 2    
    78   40   39 1    
    79   50   39 1    
    80   42   40 1    
    81   79   40 1    
    82   80   40 1    
    83   43   42 2    
    84   46   42 1    
    85   44   43 1    
    86   81   43 1    
    87   45   44 1    
    88   46   45 2    
    89   47   45 1    
    90   48   47 1    
    91   49   47 1    
    92   82   47 1    
    93   89   48 1    
    94   90   48 1    
    95   91   48 1    
    96   92   49 1    
    97   93   49 1    
    98   94   49 1    
    99   95   50 1    
   100   96   50 1    
   101   97   50 1    
@<TRIPOS>SUBSTRUCTURE
     1 RIT100      1 GROUP   
@<TRIPOS>SET

