#    Name: 4fl1_ANP_1_INTS_M
#    Modification time : Mon Mar 24 20:15:33 2014

@<TRIPOS>MOLECULE
4fl1_ANP_1_INTS_M
   51     0    15     0     0
SMALL
NO_CHARGES


@<TRIPOS>ATOM
      1 Zn         -0.4245    7.3495   10.5690 Zn        4 ZIC7        0.0000 
      2 Zn         -1.1310    6.8560   10.1190 Zn       14 ZIL7        0.0000 
      3 Zn          0.2820    7.8430   11.0190 Zn        9 ZIP7        0.0000 
      4 Zn          0.8915    8.0495   10.2000 Zn        4 ZIC7        0.0000 
      5 Zn          1.5010    8.2560    9.3810 Zn       14 ZIL7        0.0000 
      6 NZ          5.2885    5.6680   10.9345 N.4       3 LYC4        0.0000 
      7 NZ          3.7690    5.5720   11.6890 N.4      13 LYL4        0.0000 
      8 NZ          6.8080    5.7640   10.1800 N.4       8 LYP4        0.0000 
      9 N           5.2885    5.6680   10.9345 N.am      2 SEC2        0.0000 
     10 N           3.7690    5.5720   11.6890 N.am     12 SEL2        0.0000 
     11 N           6.8080    5.7640   10.1800 N.am      7 SEP2        0.0000 
     12 Zn          0.8030    7.0180   11.3050 Zn        4 ZIC7        0.0000 
     13 Zn          1.3240    6.1930   11.5910 Zn       14 ZIL7        0.0000 
     14 CA         -1.2500    2.6185   15.0640 C.3       5 GLC5        0.0000 
     15 CA          0.1700    1.6820   13.7250 C.3      15 GLL5        0.0000 
     16 CA         -2.6700    3.5550   16.4030 C.3      10 GLP5        0.0000 
     17 CA          0.6305    2.5580   15.6890 C.3       5 GLC5        0.0000 
     18 CA          1.0910    3.4340   17.6530 C.3      10 GLP5        0.0000 
     19 CA          0.7440   -1.1735   12.2955 C.3       5 GLC5        0.0000 
     20 CA          1.1560    0.8200   12.8810 C.3      15 GLL5        0.0000 
     21 CA          0.3320   -3.1670   11.7100 C.3      10 GLP5        0.0000 
     22 CA          2.5075   -0.0850   11.6455 C.3       5 GLC5        0.0000 
     23 CA          3.8590   -0.9900   10.4100 C.3      10 GLP5        0.0000 
     24 O           7.1340   -0.7845   16.7115 O.2       1 ALC1        0.0000 
     25 O           6.3570    0.2410   16.0860 O.2      11 ALL1        0.0000 
     26 O           7.9110   -1.8100   17.3370 O.2       6 ALP1        0.0000 
     27 N           4.4455   -1.7285   17.8415 N.am      2 SEC2        0.0000 
     28 N           4.4040   -0.9860   16.5000 N.am     12 SEL2        0.0000 
     29 N           4.4870   -2.4710   19.1830 N.am      7 SEP2        0.0000 
     30 CA          4.5820   -1.9635   15.0905 C.3       5 GLC5        0.0000 
     31 CA          3.1410   -1.2910   16.2740 C.3      15 GLL5        0.0000 
     32 CA          6.0230   -2.6360   13.9070 C.3      10 GLP5        0.0000 
     33 CA          3.3105   -3.0635   16.3030 C.3       5 GLC5        0.0000 
     34 CA          3.4800   -4.8360   16.3320 C.3      10 GLP5        0.0000 
     35 CA          3.2810   -0.9035   18.2555 C.3       5 GLC5        0.0000 
     36 CA          3.4210   -0.5160   20.2370 C.3      10 GLP5        0.0000 
     37 CA          3.3200    0.6680   16.8155 C.3       5 GLC5        0.0000 
     38 CA          3.4990    2.6270   17.3570 C.3      10 GLP5        0.0000 
     39 CA          3.4305   -0.4160   12.4475 C.3       5 GLC5        0.0000 
     40 CA          3.0020    0.1580   14.4850 C.3      15 GLL5        0.0000 
     41 CA         -0.2780    1.4672    9.8323 C.3       5 GLC5        0.0000 
     42 CA          0.1620    2.4370   11.4530 C.3      15 GLL5        0.0000 
     43 CA         -0.9770   -0.0180    8.7150 C.3      10 GLP5        0.0000 
     44 CA          1.9205    1.9278    9.8763 C.3       5 GLC5        0.0000 
     45 CA          3.4200    0.9030    8.8030 C.3      10 GLP5        0.0000 
     46 CA          6.2890    0.6000   13.8365 C.3       5 GLC5        0.0000 
     47 CA          5.0470   -0.0750   15.7570 C.3      15 GLL5        0.0000 
     48 CA          7.8810    0.9680   12.4520 C.3      10 GLP5        0.0000 
     49 CA          4.9362   -1.2205   14.3800 C.3       5 GLC5        0.0000 
     50 CA          4.3470    0.5390   14.6850 C.3      15 GLL5        0.0000 
     51 CA          3.6742    1.4110   16.1050 C.3       5 GLC5        0.0000 
@<TRIPOS>BOND
@<TRIPOS>SUBSTRUCTURE
     1 ALC1       24 GROUP        1 X    ALC  0     ROOT ALC X 1
     2 SEC2        9 GROUP        1 X    SEC  0     **** SEC X 2
     3 LYC4        6 GROUP        1 X    LYC  0     **** LYC X 4
     4 ZIC7        1 GROUP        1 X    ZIC  0     **** ZIC X 5
     5 GLC5       14 GROUP        1 X    GLC  0     **** GLC X 6
     6 ALP1       26 GROUP        1 Y    ALP  0     ROOT ALP Y 8
     7 SEP2       11 GROUP        1 Y    SEP  0     **** SEP Y 9
     8 LYP4        8 GROUP        1 Y    LYP  0     **** LYP Y 11
     9 ZIP7        3 GROUP        1 Y    ZIP  0     **** ZIP Y 12
    10 GLP5       16 GROUP        1 Y    GLP  0     **** GLP Y 13
    11 ALL1       25 GROUP        1 Z    ALL  0     ROOT ALL Z 15
    12 SEL2       10 GROUP        1 Z    SEL  0     **** SEL Z 16
    13 LYL4        7 GROUP        1 Z    LYL  0     **** LYL Z 18
    14 ZIL7        2 GROUP        1 Z    ZIL  0     **** ZIL Z 19
    15 GLL5       15 GROUP        1 Z    GLL  0     **** GLL Z 20
@<TRIPOS>SET

