#    Name: 4fl1_ANP_1_ligand
#    Modification time : Mon Mar 24 20:15:33 2014

@<TRIPOS>MOLECULE
4fl1_ANP_1_ligand
   43    45     1     0     0
SMALL
NO_CHARGES


@<TRIPOS>ATOM
      1 PG         -1.1030    6.8570    8.5530 P.3       1 ANP701      0.0000 
      2 O1G        -1.1310    6.8560   10.1190 O.co2     1 ANP701      0.0000 
      3 O2G        -1.3840    8.3120    8.0270 O.co2     1 ANP701      0.0000 
      4 O3G        -2.2630    5.9090    8.0810 O.co2     1 ANP701      0.0000 
      5 PB          1.7870    7.0150    8.4970 P.3       1 ANP701      0.0000 
      6 O1B         2.6810    7.4380    7.3050 O.co2     1 ANP701      0.0000 
      7 O2B         1.5010    8.2560    9.3810 O.co2     1 ANP701      0.0000 
      8 N3B         0.3670    6.2880    7.9320 N.4       1 ANP701      0.0000 
      9 PA          2.4540    5.3990   10.8840 P.3       1 ANP701      0.0000 
     10 O1A         3.7690    5.5720   11.6890 O.co2     1 ANP701      0.0000 
     11 O2A         1.3240    6.1930   11.5910 O.co2     1 ANP701      0.0000 
     12 O3A         2.6220    5.9510    9.3770 O.3       1 ANP701      0.0000 
     13 O5'         2.0270    3.8530   10.7630 O.3       1 ANP701      0.0000 
     14 C5'         0.6800    3.4680   10.4460 C.3       1 ANP701      0.0000 
     15 C4'         0.1620    2.4370   11.4530 C.3       1 ANP701      0.0000 
     16 O4'         1.0720    1.3140   11.5180 O.3       1 ANP701      0.0000 
     17 C3'         0.1100    2.9870   12.8950 C.3       1 ANP701      0.0000 
     18 O3'        -1.0880    3.7270   13.1310 O.3       1 ANP701      0.0000 
     19 C2'         0.1700    1.6820   13.7250 C.3       1 ANP701      0.0000 
     20 O2'        -1.1260    1.0610   13.7740 O.3       1 ANP701      0.0000 
     21 C1'         1.1560    0.8200   12.8810 C.3       1 ANP701      0.0000 
     22 N9          2.5330    0.8730   13.4110 N.pl3     1 ANP701      0.0000 
     23 C8          3.5550    1.6970   13.0160 C.2       1 ANP701      0.0000 
     24 N7          4.6280    1.4840   13.7450 N.2       1 ANP701      0.0000 
     25 C5          4.3470    0.5390   14.6850 C.ar      1 ANP701      0.0000 
     26 C6          5.0470   -0.0750   15.7570 C.ar      1 ANP701      0.0000 
     27 N6          6.3570    0.2410   16.0860 N.pl3     1 ANP701      0.0000 
     28 N1          4.4040   -0.9860   16.5000 N.ar      1 ANP701      0.0000 
     29 C2          3.1410   -1.2910   16.2740 C.ar      1 ANP701      0.0000 
     30 N3          2.4530   -0.7660   15.2890 N.ar      1 ANP701      0.0000 
     31 C4          3.0020    0.1580   14.4850 C.ar      1 ANP701      0.0000 
     32 H           0.6136    3.0202    9.4452 H         1 ANP701      0.0000 
     33 H          -0.0014    4.3292   10.4690 H         1 ANP701      0.0000 
     34 H          -0.8145    2.1153   11.1806 H         1 ANP701      0.0000 
     35 H           1.0054    3.5203   13.0673 H         1 ANP701      0.0000 
     36 H           0.6071    1.8850   14.6418 H         1 ANP701      0.0000 
     37 H           0.7766   -0.1999   12.9200 H         1 ANP701      0.0000 
     38 H           3.4662    2.3470   12.2848 H         1 ANP701      0.0000 
     39 H           6.7627   -0.2866   16.8324 H         1 ANP701      0.0000 
     40 H           6.7823    0.9690   15.5484 H         1 ANP701      0.0000 
     41 H           2.6614   -1.9955   16.9223 H         1 ANP701      0.0000 
     42 H          -0.7872    4.5722   13.5729 H         1 ANP701      0.0000 
     43 H          -1.7753    1.8044   13.6132 H         1 ANP701      0.0000 
@<TRIPOS>BOND
     1    2    1 ar   
     2    3    1 ar   
     3    4    1 ar   
     4    8    1 1    
     5    6    5 ar   
     6    7    5 ar   
     7    8    5 1    
     8   12    5 1    
     9   10    9 ar   
    10   11    9 ar   
    11   12    9 1    
    12   13    9 1    
    13   14   13 1    
    14   15   14 1    
    15   32   14 1    
    16   33   14 1    
    17   16   15 1    
    18   17   15 1    
    19   34   15 1    
    20   21   16 1    
    21   18   17 1    
    22   19   17 1    
    23   35   17 1    
    24   42   18 1    
    25   20   19 1    
    26   21   19 1    
    27   36   19 1    
    28   43   20 1    
    29   22   21 1    
    30   37   21 1    
    31   23   22 1    
    32   31   22 1    
    33   24   23 2    
    34   38   23 1    
    35   25   24 1    
    36   26   25 ar   
    37   31   25 ar   
    38   27   26 1    
    39   28   26 ar   
    40   39   27 1    
    41   40   27 1    
    42   29   28 ar   
    43   30   29 ar   
    44   41   29 1    
    45   31   30 ar   
@<TRIPOS>SUBSTRUCTURE
     1 ANP701      1 GROUP   
@<TRIPOS>SET

