#    Name: 1i9o_IOC_1_INTS_M
#    Modification time : Tue Mar 25 06:49:01 2014

@<TRIPOS>MOLECULE
1i9o_IOC_1_INTS_M
   45     0    12     0     0
SMALL
NO_CHARGES


@<TRIPOS>ATOM
      1 CA         -2.4125   -0.3285   15.1810 C.3       4 GLC5        0.0000 
      2 CA         -4.2800    0.8310   15.4190 C.3      12 GLL5        0.0000 
      3 CA         -0.5450   -1.4880   14.9430 C.3       8 GLP5        0.0000 
      4 O          -4.6365   -2.9060   17.0815 O.2       1 ALC1        0.0000 
      5 O          -5.4410   -2.2260   16.2460 O.2       9 ALL1        0.0000 
      6 O          -3.8320   -3.5860   17.9170 O.2       5 ALP1        0.0000 
      7 Zn         -6.2060   -2.2700   15.8865 Zn        3 ZIC7        0.0000 
      8 Zn         -5.4410   -2.2260   16.2460 Zn       11 ZIL7        0.0000 
      9 Zn         -6.9710   -2.3140   15.5270 Zn        7 ZIP7        0.0000 
     10 Zn         -7.2100   -1.4210   16.2515 Zn        3 ZIC7        0.0000 
     11 Zn         -7.4490   -0.5280   16.9760 Zn       11 ZIL7        0.0000 
     12 N          -4.1040   -0.7520   18.7035 N.am      2 SEC2        0.0000 
     13 N          -5.3920   -0.2990   18.1360 N.am     10 SEL2        0.0000 
     14 N          -2.8160   -1.2050   19.2710 N.am      6 SEP2        0.0000 
     15 CA          0.4220    5.8475   14.2775 C.3       4 GLC5        0.0000 
     16 CA         -0.6110    6.9760   12.9220 C.3      12 GLL5        0.0000 
     17 CA          1.4550    4.7190   15.6330 C.3       8 GLP5        0.0000 
     18 CA         -1.1435   10.0980   16.9785 C.3       4 GLC5        0.0000 
     19 CA          0.1860    8.8150   15.9810 C.3      12 GLL5        0.0000 
     20 CA         -2.4730   11.3810   17.9760 C.3       8 GLP5        0.0000 
     21 CA         -2.2335    5.9865   17.4725 C.3       4 GLC5        0.0000 
     22 CA         -2.1330    7.6090   16.9100 C.3      12 GLL5        0.0000 
     23 CA         -2.3340    4.3640   18.0350 C.3       8 GLP5        0.0000 
     24 CA         -0.1925    6.7040   16.7725 C.3       4 GLC5        0.0000 
     25 CA          1.7480    5.7990   16.6350 C.3       8 GLP5        0.0000 
     26 CA         -1.2570    7.9045   18.1010 C.3       4 GLC5        0.0000 
     27 CA         -0.3810    8.2000   19.2920 C.3       8 GLP5        0.0000 
     28 CA         -4.3745    2.3925   16.6920 C.3       4 GLC5        0.0000 
     29 CA         -3.9360    1.9150   14.5970 C.3      12 GLL5        0.0000 
     30 CA         -4.6410    3.4120   18.3760 C.3       8 GLP5        0.0000 
     31 CA         -5.3855    2.2748   17.0108 C.3       4 GLC5        0.0000 
     32 CA         -5.6590    0.6690   15.8500 C.3      12 GLL5        0.0000 
     33 CA         -8.2245    2.0485   15.0165 C.3       4 GLC5        0.0000 
     34 CA         -6.6010    1.6060   15.4410 C.3      12 GLL5        0.0000 
     35 CA        -10.0410    1.9470   15.0090 C.3       8 GLP5        0.0000 
     36 CA         -5.0992    3.0932   16.3845 C.3       4 GLC5        0.0000 
     37 CA         -6.2150    2.6940   14.6070 C.3      12 GLL5        0.0000 
     38 CA         -0.3487    5.5578   14.8450 C.3       4 GLC5        0.0000 
     39 CA         -2.4240    6.4970   14.7420 C.3      12 GLL5        0.0000 
     40 CA         -3.0805    8.5437   17.1148 C.3       4 GLC5        0.0000 
     41 CA         -4.2620    9.5830   17.9500 C.3       8 GLP5        0.0000 
     42 CA          0.8026    7.0513   15.9703 C.3       4 GLC5        0.0000 
     43 CA         -0.4049    8.2374   17.4979 C.3       4 GLC5        0.0000 
     44 CA         -0.4220    8.0690   15.2040 C.3      12 GLL5        0.0000 
     45 CA         -2.5426    5.4069   16.5981 C.3       4 GLC5        0.0000 
@<TRIPOS>BOND
@<TRIPOS>SUBSTRUCTURE
     1 ALC1        4 GROUP        1 X    ALC  0     ROOT ALC X 1
     2 SEC2       12 GROUP        1 X    SEC  0     **** SEC X 2
     3 ZIC7        7 GROUP        1 X    ZIC  0     **** ZIC X 5
     4 GLC5        1 GROUP        1 X    GLC  0     **** GLC X 6
     5 ALP1        6 GROUP        1 Y    ALP  0     ROOT ALP Y 8
     6 SEP2       14 GROUP        1 Y    SEP  0     **** SEP Y 9
     7 ZIP7        9 GROUP        1 Y    ZIP  0     **** ZIP Y 12
     8 GLP5        3 GROUP        1 Y    GLP  0     **** GLP Y 13
     9 ALL1        5 GROUP        1 Z    ALL  0     ROOT ALL Z 15
    10 SEL2       13 GROUP        1 Z    SEL  0     **** SEL Z 16
    11 ZIL7        8 GROUP        1 Z    ZIL  0     **** ZIL Z 19
    12 GLL5        2 GROUP        1 Z    GLL  0     **** GLL Z 20
@<TRIPOS>SET

