#    Name: 1i9o_IOC_1_ligand
#    Modification time : Tue Mar 25 06:49:01 2014

@<TRIPOS>MOLECULE
1i9o_IOC_1_ligand
   34    35     1     0     0
SMALL
NO_CHARGES


@<TRIPOS>ATOM
      1 C01        -3.9360    1.9150   14.5970 C.ar      1 IOC555      0.0000 
      2 C02        -4.2800    0.8310   15.4190 C.ar      1 IOC555      0.0000 
      3 C03        -5.6590    0.6690   15.8500 C.ar      1 IOC555      0.0000 
      4 C04        -6.6010    1.6060   15.4410 C.ar      1 IOC555      0.0000 
      5 C05        -6.2150    2.6940   14.6070 C.ar      1 IOC555      0.0000 
      6 C06        -4.9000    2.8550   14.1790 C.ar      1 IOC555      0.0000 
      7 C07        -4.4480    4.0020   13.2670 C.2       1 IOC555      0.0000 
      8 O08        -5.3330    4.8290   12.8840 O.2       1 IOC555      0.0000 
      9 N09        -3.0390    4.1480   12.8440 N.am      1 IOC555      0.0000 
     10 C10        -2.5630    5.4530   12.4640 C.3       1 IOC555      0.0000 
     11 S11        -6.0320   -0.7390   16.8650 S.o2      1 IOC555      0.0000 
     12 NP2        -5.4410   -2.2260   16.2460 N.pl3     1 IOC555      0.0000 
     13 O13        -7.4490   -0.5280   16.9760 O.2       1 IOC555      0.0000 
     14 O14        -5.3920   -0.2990   18.1360 O.2       1 IOC555      0.0000 
     15 C15        -1.8810    6.2960   13.3720 C.ar      1 IOC555      0.0000 
     16 C16        -2.4240    6.4970   14.7420 C.ar      1 IOC555      0.0000 
     17 C17        -1.6650    7.4000   15.6490 C.ar      1 IOC555      0.0000 
     18 C18        -0.4220    8.0690   15.2040 C.ar      1 IOC555      0.0000 
     19 C19         0.1000    7.8500   13.8340 C.ar      1 IOC555      0.0000 
     20 C20        -0.6110    6.9760   12.9220 C.ar      1 IOC555      0.0000 
     21 F21         0.1860    8.8150   15.9810 F         1 IOC555      0.0000 
     22 F22        -3.4580    5.9510   15.1270 F         1 IOC555      0.0000 
     23 F23        -2.1330    7.6090   16.9100 F         1 IOC555      0.0000 
     24 H          -2.9563    2.0292   14.2901 H         1 IOC555      0.0000 
     25 H          -3.5902    0.1549   15.7217 H         1 IOC555      0.0000 
     26 H          -7.5800    1.5269   15.7324 H         1 IOC555      0.0000 
     27 H          -6.9393    3.3738   14.3197 H         1 IOC555      0.0000 
     28 H          -2.4445    3.3492   12.8280 H         1 IOC555      0.0000 
     29 H          -3.4575    6.0383   12.0118 H         1 IOC555      0.0000 
     30 H          -1.9131    5.3289   11.5104 H         1 IOC555      0.0000 
     31 H          -5.1508   -2.9008   16.9246 H         1 IOC555      0.0000 
     32 H          -5.4281   -2.3139   15.2500 H         1 IOC555      0.0000 
     33 H           0.9438    8.3118   13.5527 H         1 IOC555      0.0000 
     34 H          -0.2835    6.8077   11.9950 H         1 IOC555      0.0000 
@<TRIPOS>BOND
     1    2    1 ar   
     2    6    1 ar   
     3   24    1 1    
     4    3    2 ar   
     5   25    2 1    
     6    4    3 ar   
     7   11    3 1    
     8    5    4 ar   
     9   26    4 1    
    10    6    5 ar   
    11   27    5 1    
    12    7    6 1    
    13    8    7 2    
    14    9    7 am   
    15   10    9 1    
    16   28    9 1    
    17   15   10 1    
    18   29   10 1    
    19   30   10 1    
    20   12   11 1    
    21   13   11 2    
    22   14   11 2    
    23   31   12 1    
    24   32   12 1    
    25   16   15 ar   
    26   20   15 ar   
    27   17   16 ar   
    28   22   16 1    
    29   18   17 ar   
    30   23   17 1    
    31   19   18 ar   
    32   21   18 1    
    33   20   19 ar   
    34   33   19 1    
    35   34   20 1    
@<TRIPOS>SUBSTRUCTURE
     1 IOC555      1 GROUP   
@<TRIPOS>SET

