#    Name: 3uf9_FST_4_INTS_M
#    Modification time : Mon Mar 24 22:17:26 2014

@<TRIPOS>MOLECULE
3uf9_FST_4_INTS_M
   46     0     3     0     0
SMALL
NO_CHARGES


@<TRIPOS>ATOM
      1 CA        -69.3890   12.3390  -60.2770 C.3       1 GLC5        0.0000 
      2 CA        -68.0240   11.7690  -59.0940 C.3       3 GLL5        0.0000 
      3 CA        -70.7540   12.9090  -61.4600 C.3       2 GLP5        0.0000 
      4 CA        -67.4745   12.8830  -60.4970 C.3       1 GLC5        0.0000 
      5 CA        -66.9250   13.9970  -61.9000 C.3       2 GLP5        0.0000 
      6 CA        -69.6460   11.6385  -57.7205 C.3       1 GLC5        0.0000 
      7 CA        -71.2680   11.5080  -56.3470 C.3       2 GLP5        0.0000 
      8 CA        -69.4610   10.3130  -59.2055 C.3       1 GLC5        0.0000 
      9 CA        -70.8980    8.8570  -59.3170 C.3       2 GLP5        0.0000 
     10 CA        -67.3260   10.8115  -60.5340 C.3       1 GLC5        0.0000 
     11 CA        -66.6280    9.8540  -61.9740 C.3       2 GLP5        0.0000 
     12 CA        -69.9875    7.2420  -58.9290 C.3       1 GLC5        0.0000 
     13 CA        -69.0770    5.6270  -58.5410 C.3       3 GLL5        0.0000 
     14 CA        -68.1105    6.3825  -59.8715 C.3       1 GLC5        0.0000 
     15 CA        -67.1440    7.1380  -61.2020 C.3       2 GLP5        0.0000 
     16 CA        -68.8990    3.6975  -59.1970 C.3       1 GLC5        0.0000 
     17 CA        -68.7210    1.7680  -59.8530 C.3       2 GLP5        0.0000 
     18 CA        -70.9125    5.2255  -58.4605 C.3       1 GLC5        0.0000 
     19 CA        -72.7480    4.8240  -58.3800 C.3       2 GLP5        0.0000 
     20 CA        -65.7675    6.2255  -59.5850 C.3       1 GLC5        0.0000 
     21 CA        -65.6210    4.6990  -58.2140 C.3       3 GLL5        0.0000 
     22 CA        -65.9140    7.7520  -60.9560 C.3       2 GLP5        0.0000 
     23 CA        -71.4605    4.5355  -57.0650 C.3       1 GLC5        0.0000 
     24 CA        -70.1730    4.2470  -55.7500 C.3       3 GLL5        0.0000 
     25 CA        -68.9650    1.8660  -55.2385 C.3       1 GLC5        0.0000 
     26 CA        -70.8900    2.9960  -55.2920 C.3       3 GLL5        0.0000 
     27 CA        -67.0400    0.7360  -55.1850 C.3       2 GLP5        0.0000 
     28 CA        -71.8360    3.1505  -56.8760 C.3       1 GLC5        0.0000 
     29 CA        -72.7820    3.3050  -58.4600 C.3       2 GLP5        0.0000 
     30 CA        -70.8770    2.8715  -53.1660 C.3       1 GLC5        0.0000 
     31 CA        -70.8640    2.7470  -51.0400 C.3       2 GLP5        0.0000 
     32 CA        -67.5678    7.6008  -54.1055 C.3       1 GLC5        0.0000 
     33 CA        -68.3320    8.2230  -55.9140 C.3       3 GLL5        0.0000 
     34 CA        -67.2740    7.4120  -52.0240 C.3       2 GLP5        0.0000 
     35 CA        -69.6809   10.2616  -56.3314 C.3       1 GLC5        0.0000 
     36 CA        -69.4959    8.9361  -57.8164 C.3       1 GLC5        0.0000 
     37 CA        -68.3290    9.5680  -56.2680 C.3       3 GLL5        0.0000 
     38 CA        -64.9290    2.9192  -56.7865 C.3       1 GLC5        0.0000 
     39 CA        -64.7130    1.6640  -55.0920 C.3       2 GLP5        0.0000 
     40 CA        -64.3690    4.6218  -56.8765 C.3       1 GLC5        0.0000 
     41 CA        -64.6690    3.6500  -58.7480 C.3       3 GLL5        0.0000 
     42 CA        -63.5930    5.0690  -55.2720 C.3       2 GLP5        0.0000 
     43 CA        -69.7368    4.5918  -53.8985 C.3       1 GLC5        0.0000 
     44 CA        -68.9420    5.5620  -52.2760 C.3       2 GLP5        0.0000 
     45 CA        -71.4222    5.1988  -54.7140 C.3       1 GLC5        0.0000 
     46 CA        -72.3130    6.7760  -53.9070 C.3       2 GLP5        0.0000 
@<TRIPOS>BOND
@<TRIPOS>SUBSTRUCTURE
     1 GLC5        1 GROUP        1 X    GLC  0     ROOT GLC X 6
     2 GLP5        3 GROUP        1 Y    GLP  0     ROOT GLP Y 13
     3 GLL5        2 GROUP        1 Z    GLL  0     ROOT GLL Z 20
@<TRIPOS>SET

