#    Name: 3uf9_FST_4_ligand
#    Modification time : Mon Mar 24 22:17:26 2014

@<TRIPOS>MOLECULE
3uf9_FST_4_ligand
   35    35     1     0     0
SMALL
NO_CHARGES


@<TRIPOS>ATOM
      1 C1        -68.0240   11.7690  -59.0940 C.3       1 FST317      0.0000 
      2 S2        -67.3730   11.5900  -57.5750 S.o       1 FST317      0.0000 
      3 O3        -68.2510   12.4520  -56.4990 O.2       1 FST317      0.0000 
      4 C4        -67.3820   10.0470  -57.1670 C.ar      1 FST317      0.0000 
      5 C5        -66.4390    9.1810  -57.7100 C.ar      1 FST317      0.0000 
      6 C6        -66.4430    7.8360  -57.3570 C.ar      1 FST317      0.0000 
      7 C7        -67.3910    7.3560  -56.4600 C.ar      1 FST317      0.0000 
      8 C8        -68.3320    8.2230  -55.9140 C.ar      1 FST317      0.0000 
      9 C9        -68.3290    9.5680  -56.2680 C.ar      1 FST317      0.0000 
     10 O10       -67.3940    6.0330  -56.1050 O.3       1 FST317      0.0000 
     11 P11       -67.9990    4.9080  -57.0840 P.3       1 FST317      0.0000 
     12 S12       -69.0770    5.6270  -58.5410 S.2       1 FST317      0.0000 
     13 O13       -66.7300    4.0560  -57.5890 O.3       1 FST317      0.0000 
     14 C14       -65.6210    4.6990  -58.2140 C.3       1 FST317      0.0000 
     15 C15       -64.6690    3.6500  -58.7480 C.3       1 FST317      0.0000 
     16 O16       -68.8380    3.9190  -56.1310 O.3       1 FST317      0.0000 
     17 C17       -70.1730    4.2470  -55.7500 C.3       1 FST317      0.0000 
     18 C18       -70.8900    2.9960  -55.2920 C.3       1 FST317      0.0000 
     19 H         -65.7376    9.5359  -58.3737 H         1 FST317      0.0000 
     20 H         -65.7454    7.1967  -57.7590 H         1 FST317      0.0000 
     21 H         -69.0310    7.8687  -55.2475 H         1 FST317      0.0000 
     22 H         -69.0259   10.2073  -55.8657 H         1 FST317      0.0000 
     23 H         -65.0700    5.3314  -57.5084 H         1 FST317      0.0000 
     24 H         -65.9389    5.3289  -59.0527 H         1 FST317      0.0000 
     25 H         -70.7377    4.6768  -56.5864 H         1 FST317      0.0000 
     26 H         -70.1916    4.9715  -54.9266 H         1 FST317      0.0000 
     27 H         -68.0249   12.7250  -59.3874 H         1 FST317      0.0000 
     28 H         -67.5125   11.2522  -59.7805 H         1 FST317      0.0000 
     29 H         -68.9709   11.4498  -59.1322 H         1 FST317      0.0000 
     30 H         -63.8745    4.0621  -59.1940 H         1 FST317      0.0000 
     31 H         -64.3224    3.0581  -58.0203 H         1 FST317      0.0000 
     32 H         -65.1095    3.0578  -59.4227 H         1 FST317      0.0000 
     33 H         -70.9277    2.3044  -56.0133 H         1 FST317      0.0000 
     34 H         -70.4373    2.5752  -54.5058 H         1 FST317      0.0000 
     35 H         -71.8330    3.1871  -55.0196 H         1 FST317      0.0000 
@<TRIPOS>BOND
     1    2    1 1    
     2   27    1 1    
     3   28    1 1    
     4   29    1 1    
     5    3    2 2    
     6    4    2 1    
     7    5    4 ar   
     8    9    4 ar   
     9    6    5 ar   
    10   19    5 1    
    11    7    6 ar   
    12   20    6 1    
    13    8    7 ar   
    14   10    7 1    
    15    9    8 ar   
    16   21    8 1    
    17   22    9 1    
    18   11   10 1    
    19   12   11 2    
    20   13   11 1    
    21   16   11 1    
    22   14   13 1    
    23   15   14 1    
    24   23   14 1    
    25   24   14 1    
    26   30   15 1    
    27   31   15 1    
    28   32   15 1    
    29   17   16 1    
    30   18   17 1    
    31   25   17 1    
    32   26   17 1    
    33   33   18 1    
    34   34   18 1    
    35   35   18 1    
@<TRIPOS>SUBSTRUCTURE
     1 FST317      1 GROUP   
@<TRIPOS>SET

