#    Name: 4f1s_F1S_1_INTS_M
#    Modification time : Mon Mar 24 18:53:37 2014

@<TRIPOS>MOLECULE
4f1s_F1S_1_INTS_M
   72     0     9     0     0
SMALL
NO_CHARGES


@<TRIPOS>ATOM
      1 N          29.4565   13.4845   16.7785 N.am      2 SEC2        0.0000 
      2 N          28.2990   14.7050   16.5080 N.am      8 SEL2        0.0000 
      3 N          30.6140   12.2640   17.0490 N.am      5 SEP2        0.0000 
      4 CA         29.6535   11.9515   18.0140 C.3       3 GLC5        0.0000 
      5 CA         29.4910   11.9420   20.1960 C.3       9 GLL5        0.0000 
      6 CA         29.8160   11.9610   15.8320 C.3       6 GLP5        0.0000 
      7 CA         29.9880   10.0115   19.6225 C.3       3 GLC5        0.0000 
      8 CA         30.4850    8.0810   19.0490 C.3       6 GLP5        0.0000 
      9 CA         29.8175   12.9895   21.8980 C.3       3 GLC5        0.0000 
     10 CA         30.1440   14.0370   23.6000 C.3       6 GLP5        0.0000 
     11 CA         26.3030   11.1095   21.0915 C.3       3 GLC5        0.0000 
     12 CA         26.3700   12.8480   22.3490 C.3       9 GLL5        0.0000 
     13 CA         26.2360    9.3710   19.8340 C.3       6 GLP5        0.0000 
     14 CA         26.4095   13.8100   23.9525 C.3       3 GLC5        0.0000 
     15 CA         26.4490   14.7720   25.5560 C.3       6 GLP5        0.0000 
     16 CA         28.2570   13.4425   22.9745 C.3       3 GLC5        0.0000 
     17 CA         25.4200   15.0460   22.7840 C.3       3 GLC5        0.0000 
     18 CA         25.4910   13.5040   21.4880 C.3       9 GLL5        0.0000 
     19 CA         25.3490   16.5880   24.0800 C.3       6 GLP5        0.0000 
     20 CA         22.7670   15.2935   19.4465 C.3       3 GLC5        0.0000 
     21 CA         23.5980   14.9560   21.4850 C.3       9 GLL5        0.0000 
     22 CA         21.9360   15.6310   17.4080 C.3       6 GLP5        0.0000 
     23 CA         24.4300   16.7070   22.0875 C.3       3 GLC5        0.0000 
     24 CA         23.5110   16.8260   20.0950 C.3       9 GLL5        0.0000 
     25 CA         19.0765   16.3745   19.6405 C.3       3 GLC5        0.0000 
     26 CA         19.9510   18.0300   19.6760 C.3       9 GLL5        0.0000 
     27 CA         18.2020   14.7190   19.6050 C.3       6 GLP5        0.0000 
     28 CA         21.6935   12.1800   21.9430 C.3       3 GLC5        0.0000 
     29 CA         21.7770   12.4040   24.1420 C.3       9 GLL5        0.0000 
     30 CA         21.6100   11.9560   19.7440 C.3       6 GLP5        0.0000 
     31 CA         21.6450   14.4365   24.8145 C.3       3 GLC5        0.0000 
     32 CA         21.5130   16.4690   25.4870 C.3       6 GLP5        0.0000 
     33 CA         23.3790   10.0535   25.7435 C.3       3 GLC5        0.0000 
     34 CA         22.6010   11.2410   24.6810 C.3       9 GLL5        0.0000 
     35 CA         24.1570    8.8660   26.8060 C.3       6 GLP5        0.0000 
     36 CA         23.2740   10.0110   23.3970 C.3       3 GLC5        0.0000 
     37 CA         23.9470    8.7810   22.1130 C.3       6 GLP5        0.0000 
     38 CA         21.1395   10.8630   26.3050 C.3       3 GLC5        0.0000 
     39 CA         19.6780   10.4850   27.9290 C.3       6 GLP5        0.0000 
     40 CA         22.4360   12.4370   26.5335 C.3       3 GLC5        0.0000 
     41 CA         22.2710   13.6330   28.3860 C.3       6 GLP5        0.0000 
     42 N          19.3200   11.5440   24.9395 N.am      2 SEC2        0.0000 
     43 N          20.5070   12.5830   24.5220 N.am      8 SEL2        0.0000 
     44 N          18.1330   10.5050   25.3570 N.am      5 SEP2        0.0000 
     45 CA         18.1770   12.4490   23.2470 C.3       3 GLC5        0.0000 
     46 CA         19.8060   13.6180   24.0330 C.3       9 GLL5        0.0000 
     47 CA         16.5480   11.2800   22.4610 C.3       6 GLP5        0.0000 
     48 CA         20.6595   15.0435   24.7600 C.3       3 GLC5        0.0000 
     49 O          17.4080   13.1685   25.1870 O.2       1 ALC1        0.0000 
     50 O          18.5500   13.7880   24.4180 O.2       7 ALL1        0.0000 
     51 O          16.2660   12.5490   25.9560 O.2       4 ALP1        0.0000 
     52 CA         26.3682   11.4002   19.8953 C.3       3 GLC5        0.0000 
     53 CA         25.8770   13.6650   20.1580 C.3       9 GLL5        0.0000 
     54 CA         28.6568   14.0470   21.4630 C.3       3 GLC5        0.0000 
     55 CA         27.1240   13.1940   19.7550 C.3       9 GLL5        0.0000 
     56 CA         29.7790   15.2210   22.7120 C.3       6 GLP5        0.0000 
     57 CA         27.4770   10.8090   20.1343 C.3       3 GLC5        0.0000 
     58 CA         27.9450   12.5520   20.6730 C.3       9 GLL5        0.0000 
     59 CA         24.1393   15.8205   22.8795 C.3       3 GLC5        0.0000 
     60 CA         22.2610   15.1500   21.8730 C.3       9 GLL5        0.0000 
     61 CA         21.3223   16.8905   18.5760 C.3       3 GLC5        0.0000 
     62 CA         21.4660   18.2700   19.8120 C.3       9 GLL5        0.0000 
     63 CA         21.6612   20.3610   22.2470 C.3       3 GLC5        0.0000 
     64 CA         21.7330   19.5150   20.6600 C.3       9 GLL5        0.0000 
     65 CA         21.9810   20.6260   24.1320 C.3       6 GLP5        0.0000 
     66 CA         22.0676   16.1073   19.1050 C.3       3 GLC5        0.0000 
     67 CA         21.5500   16.2220   21.3390 C.3       9 GLL5        0.0000 
     68 CA         21.9469   13.3135   20.9860 C.3       3 GLC5        0.0000 
     69 CA         21.6380   14.2890   22.7770 C.3       9 GLL5        0.0000 
     70 CA         21.6424   15.7283   23.8392 C.3       3 GLC5        0.0000 
     71 CA         23.6845   13.0708   25.3352 C.3       3 GLC5        0.0000 
     72 CA         25.1800   14.3190   26.2590 C.3       6 GLP5        0.0000 
@<TRIPOS>BOND
@<TRIPOS>SUBSTRUCTURE
     1 ALC1       49 GROUP        1 X    ALC  0     ROOT ALC X 1
     2 SEC2        1 GROUP        1 X    SEC  0     **** SEC X 2
     3 GLC5        4 GROUP        1 X    GLC  0     **** GLC X 6
     4 ALP1       51 GROUP        1 Y    ALP  0     ROOT ALP Y 8
     5 SEP2        3 GROUP        1 Y    SEP  0     **** SEP Y 9
     6 GLP5        6 GROUP        1 Y    GLP  0     **** GLP Y 13
     7 ALL1       50 GROUP        1 Z    ALL  0     ROOT ALL Z 15
     8 SEL2        2 GROUP        1 Z    SEL  0     **** SEL Z 16
     9 GLL5        5 GROUP        1 Z    GLL  0     **** GLL Z 20
@<TRIPOS>SET

