#    Name: 4f1s_F1S_1_ligand
#    Modification time : Mon Mar 24 18:53:37 2014

@<TRIPOS>MOLECULE
4f1s_F1S_1_ligand
   56    59     1     0     0
SMALL
NO_CHARGES


@<TRIPOS>ATOM
      1 C31        27.6930   16.1280   18.7160 C.3       1 F1S1207     0.0000 
      2 S30        27.3540   14.7220   17.6710 S.o2      1 F1S1207     0.0000 
      3 O32        28.2990   14.7050   16.5080 O.2       1 F1S1207     0.0000 
      4 O33        25.9390   14.7830   17.1680 O.2       1 F1S1207     0.0000 
      5 N27        27.5430   13.3310   18.4980 N.pl3     1 F1S1207     0.0000 
      6 C26        27.1240   13.1940   19.7550 C.ar      1 F1S1207     0.0000 
      7 C25        25.8770   13.6650   20.1580 C.ar      1 F1S1207     0.0000 
      8 C21        27.9450   12.5520   20.6730 C.ar      1 F1S1207     0.0000 
      9 CL2        29.4910   11.9420   20.1960 Cl        1 F1S1207     0.0000 
     10 N22        27.5450   12.4010   21.9400 N.ar      1 F1S1207     0.0000 
     11 C23        26.3700   12.8480   22.3490 C.ar      1 F1S1207     0.0000 
     12 C24        25.4910   13.5040   21.4880 C.ar      1 F1S1207     0.0000 
     13 N28        24.3140   13.9310   21.9820 N.pl3     1 F1S1207     0.0000 
     14 C2         23.5980   14.9560   21.4850 C.ar      1 F1S1207     0.0000 
     15 N1         24.1660   15.8090   20.6160 N.ar      1 F1S1207     0.0000 
     16 C6         23.5110   16.8260   20.0950 C.ar      1 F1S1207     0.0000 
     17 C5         22.1860   17.0640   20.4350 C.ar      1 F1S1207     0.0000 
     18 C15        21.4660   18.2700   19.8120 C.3       1 F1S1207     0.0000 
     19 C16        19.9510   18.0300   19.6760 C.3       1 F1S1207     0.0000 
     20 C17        19.2680   19.2950   19.1450 C.3       1 F1S1207     0.0000 
     21 O18        19.5570   20.3240   20.1050 O.3       1 F1S1207     0.0000 
     22 C19        20.9500   20.6770   20.0640 C.3       1 F1S1207     0.0000 
     23 C20        21.7330   19.5150   20.6600 C.3       1 F1S1207     0.0000 
     24 C4         21.5500   16.2220   21.3390 C.ar      1 F1S1207     0.0000 
     25 C3         22.2610   15.1500   21.8730 C.ar      1 F1S1207     0.0000 
     26 C7         21.6380   14.2890   22.7770 C.ar      1 F1S1207     0.0000 
     27 N12        20.3660   14.4700   23.1610 N.ar      1 F1S1207     0.0000 
     28 N8         22.3330   13.2570   23.2760 N.ar      1 F1S1207     0.0000 
     29 C9         21.7770   12.4040   24.1420 C.ar      1 F1S1207     0.0000 
     30 C13        22.6010   11.2410   24.6810 C.3       1 F1S1207     0.0000 
     31 N10        20.5070   12.5830   24.5220 N.ar      1 F1S1207     0.0000 
     32 C11        19.8060   13.6180   24.0330 C.ar      1 F1S1207     0.0000 
     33 N14        18.5500   13.7880   24.4180 N.pl3     1 F1S1207     0.0000 
     34 H          28.0082   12.6206   17.9300 H         1 F1S1207     0.0000 
     35 H          25.2545   14.1212   19.4905 H         1 F1S1207     0.0000 
     36 H          26.0604   12.7204   23.3469 H         1 F1S1207     0.0000 
     37 H          23.9162   13.4139   22.8383 H         1 F1S1207     0.0000 
     38 H          23.9651   17.4789   19.4157 H         1 F1S1207     0.0000 
     39 H          21.8778   18.4406   18.8238 H         1 F1S1207     0.0000 
     40 H          19.5424   17.7807   20.6475 H         1 F1S1207     0.0000 
     41 H          19.7816   17.2125   18.9862 H         1 F1S1207     0.0000 
     42 H          18.2107   19.0985   19.0681 H         1 F1S1207     0.0000 
     43 H          19.6825   19.5183   18.1750 H         1 F1S1207     0.0000 
     44 H          21.1570   21.5649   20.6541 H         1 F1S1207     0.0000 
     45 H          21.2951   20.8332   19.0462 H         1 F1S1207     0.0000 
     46 H          22.7875   19.7408   20.6416 H         1 F1S1207     0.0000 
     47 H          21.4034   19.3363   21.6713 H         1 F1S1207     0.0000 
     48 H          20.5797   16.3848   21.6077 H         1 F1S1207     0.0000 
     49 H          18.0623   14.5553   24.0018 H         1 F1S1207     0.0000 
     50 H          18.2034   13.1336   25.0901 H         1 F1S1207     0.0000 
     51 H          28.6257   16.1069   19.0760 H         1 F1S1207     0.0000 
     52 H          27.5889   16.9914   18.2223 H         1 F1S1207     0.0000 
     53 H          27.0761   16.1637   19.5022 H         1 F1S1207     0.0000 
     54 H          22.9185   10.6396   23.9479 H         1 F1S1207     0.0000 
     55 H          23.4123   11.5571   25.1729 H         1 F1S1207     0.0000 
     56 H          22.0747   10.6759   25.3164 H         1 F1S1207     0.0000 
@<TRIPOS>BOND
     1    2    1 1    
     2   51    1 1    
     3   52    1 1    
     4   53    1 1    
     5    3    2 2    
     6    4    2 2    
     7    5    2 1    
     8    6    5 1    
     9   34    5 1    
    10    7    6 ar   
    11    8    6 ar   
    12   12    7 ar   
    13   35    7 1    
    14    9    8 1    
    15   10    8 ar   
    16   11   10 ar   
    17   12   11 ar   
    18   36   11 1    
    19   13   12 1    
    20   14   13 1    
    21   37   13 1    
    22   15   14 ar   
    23   25   14 ar   
    24   16   15 ar   
    25   17   16 ar   
    26   38   16 1    
    27   18   17 1    
    28   24   17 ar   
    29   19   18 1    
    30   23   18 1    
    31   39   18 1    
    32   20   19 1    
    33   40   19 1    
    34   41   19 1    
    35   21   20 1    
    36   42   20 1    
    37   43   20 1    
    38   22   21 1    
    39   23   22 1    
    40   44   22 1    
    41   45   22 1    
    42   46   23 1    
    43   47   23 1    
    44   25   24 ar   
    45   48   24 1    
    46   26   25 1    
    47   27   26 ar   
    48   28   26 ar   
    49   32   27 ar   
    50   29   28 ar   
    51   30   29 1    
    52   31   29 ar   
    53   54   30 1    
    54   55   30 1    
    55   56   30 1    
    56   32   31 ar   
    57   33   32 1    
    58   49   33 1    
    59   50   33 1    
@<TRIPOS>SUBSTRUCTURE
     1 F1S1207     1 GROUP   
@<TRIPOS>SET

