#    Name: 4F3C_1_CAVITY_N1_ALL.mol2
#    Modification time : Mon Mar 10 18:38:07 2014

@<TRIPOS>MOLECULE
4F3C_1_CAVITY_N1_ALL.mol2
   63     0     6     0     0
SMALL
NO_CHARGES


@<TRIPOS>ATOM
      1 NZ        -36.8984    3.1999   -0.4427 N.2       3 LYS4        0.0000 
      2 CZ        -37.7124    2.7744    0.7432 C.ar      4 PHE5        0.0000 
      3 CZ        -35.6878    3.3271    0.4338 C.ar      4 PHE5        0.0000 
      4 CZ        -36.5018    2.9016    1.6197 C.ar      4 PHE5        0.0000 
      5 CA        -33.7106    2.7455   -2.2124 C.3       5 GLY6        0.0000 
      6 CZ        -34.5246    2.3199   -1.0265 C.ar      4 PHE5        0.0000 
      7 CZ        -35.3386    1.8944    0.1594 C.ar      4 PHE5        0.0000 
      8 CZ        -36.1525    1.4689    1.3453 C.ar      4 PHE5        0.0000 
      9 DU        -34.8266    4.8871    1.5847 H         6 CUB7        0.0000 
     10 CA        -35.6405    4.4616    2.7706 C.3       5 GLY6        0.0000 
     11 OG        -33.6633    3.8799    0.1244 O.2       1 SER1        0.0000 
     12 DU        -34.4773    3.4544    1.3104 H         6 CUB7        0.0000 
     13 CA        -35.2912    3.0289    2.4963 C.3       5 GLY6        0.0000 
     14 CA        -33.3140    2.4472   -0.1499 C.3       5 GLY6        0.0000 
     15 CZ        -34.1280    2.0216    1.0360 C.ar      4 PHE5        0.0000 
     16 CZ        -34.9420    1.5961    2.2219 C.ar      4 PHE5        0.0000 
     17 CZ        -35.7559    1.1706    3.4078 C.ar      4 PHE5        0.0000 
     18 CZ        -35.4067   -0.2621    3.1334 C.ar      4 PHE5        0.0000 
     19 CZ        -36.2206   -0.6877    4.3193 C.ar      4 PHE5        0.0000 
     20 CZ        -37.4993   -2.9715    6.4168 C.ar      4 PHE5        0.0000 
     21 CZ        -37.1500   -4.4042    6.1424 C.ar      4 PHE5        0.0000 
     22 OG        -32.8020    5.4399    1.2754 O.2       1 SER1        0.0000 
     23 OG        -33.6160    5.0144    2.4613 O.2       1 SER1        0.0000 
     24 CA        -34.4300    4.5888    3.6472 C.3       5 GLY6        0.0000 
     25 OG        -33.2667    3.5816    2.1869 O.2       1 SER1        0.0000 
     26 CA        -34.0807    3.1561    3.3728 C.3       5 GLY6        0.0000 
     27 CA        -34.8947    2.7306    4.5587 C.3       5 GLY6        0.0000 
     28 CA        -32.9174    2.1489    1.9125 C.3       5 GLY6        0.0000 
     29 CA        -33.7314    1.7234    3.0984 C.3       5 GLY6        0.0000 
     30 CA        -34.5454    1.2978    4.2844 C.3       5 GLY6        0.0000 
     31 CA        -35.3594    0.8723    5.4703 C.3       5 GLY6        0.0000 
     32 CA        -36.1733    0.4468    6.6562 C.3       5 GLY6        0.0000 
     33 OG        -36.9873    0.0212    7.8421 O.2       1 SER1        0.0000 
     34 CZ        -33.3821    0.2906    2.8241 C.ar      4 PHE5        0.0000 
     35 CZ        -34.1961   -0.1349    4.0100 C.ar      4 PHE5        0.0000 
     36 CZ        -35.0101   -0.5604    5.1959 C.ar      4 PHE5        0.0000 
     37 CZ        -35.8241   -0.9860    6.3818 C.ar      4 PHE5        0.0000 
     38 OG        -36.6380   -1.4115    7.5677 O.2       1 SER1        0.0000 
     39 CZ        -33.8468   -1.5676    3.7356 C.ar      4 PHE5        0.0000 
     40 CZ        -34.6608   -1.9932    4.9215 C.ar      4 PHE5        0.0000 
     41 CZ        -35.4748   -2.4187    6.1074 C.ar      4 PHE5        0.0000 
     42 DU        -36.2887   -2.8442    7.2933 H         6 CUB7        0.0000 
     43 OG        -37.1027   -3.2698    8.4793 O.2       1 SER1        0.0000 
     44 CZ        -35.9395   -4.2770    7.0190 C.ar      4 PHE5        0.0000 
     45 CA        -32.5209    1.8506    3.9750 C.3       5 GLY6        0.0000 
     46 CA        -34.1488    0.9996    6.3468 C.3       5 GLY6        0.0000 
     47 CA        -34.9628    0.5740    7.5327 C.3       5 GLY6        0.0000 
     48 NZ        -35.7767    0.1485    8.7186 N.2       3 LYS4        0.0000 
     49 NZ        -36.5907   -0.2770    9.9045 N.2       3 LYS4        0.0000 
     50 CA        -32.1716    0.4179    3.7006 C.3       5 GLY6        0.0000 
     51 CA        -32.9856   -0.0077    4.8865 C.3       5 GLY6        0.0000 
     52 CA        -33.7995   -0.4332    6.0724 C.3       5 GLY6        0.0000 
     53 CA        -34.6135   -0.8587    7.2584 C.3       5 GLY6        0.0000 
     54 DU        -35.4275   -1.2842    8.4443 H         6 CUB7        0.0000 
     55 O         -36.2414   -1.7098    9.6302 O.2       2 ALA2        0.0000 
     56 CA        -34.2642   -2.2914    6.9840 C.3       5 GLY6        0.0000 
     57 CA        -35.0782   -2.7170    8.1699 C.3       5 GLY6        0.0000 
     58 CA        -35.8922   -3.1425    9.3558 C.3       5 GLY6        0.0000 
     59 CA        -34.7289   -4.1497    7.8955 C.3       5 GLY6        0.0000 
     60 NZ        -33.7522    0.7013    8.4093 N.2       3 LYS4        0.0000 
     61 NZ        -34.5662    0.2757    9.5952 N.2       3 LYS4        0.0000 
     62 NZ        -33.4029   -0.7315    8.1349 N.2       3 LYS4        0.0000 
     63 NZ        -34.2169   -1.1570    9.3208 N.2       3 LYS4        0.0000 
@<TRIPOS>BOND
@<TRIPOS>SUBSTRUCTURE
     1 SER1       11 GROUP   
     2 ALA2       55 GROUP   
     3 LYS4        1 GROUP   
     4 PHE5        2 GROUP   
     5 GLY6        5 GROUP   
     6 CUB7        9 GROUP   
@<TRIPOS>SET

