#    Name: 4f3c_BIG_1_INTS_M
#    Modification time : Mon Mar 24 18:54:23 2014

@<TRIPOS>MOLECULE
4f3c_BIG_1_INTS_M
  102     0     9     0     0
SMALL
NO_CHARGES


@<TRIPOS>ATOM
      1 CA        -33.2255   -6.0180    5.2385 C.3       3 GLC5        0.0000 
      2 CA        -34.3010   -6.1450    6.7960 C.3       9 GLL5        0.0000 
      3 CA        -32.1500   -5.8910    3.6810 C.3       6 GLP5        0.0000 
      4 CA        -33.6020   -8.1230    6.1585 C.3       3 GLC5        0.0000 
      5 CA        -32.9030  -10.1010    5.5210 C.3       6 GLP5        0.0000 
      6 CA        -34.0630   -7.9585    7.9835 C.3       3 GLC5        0.0000 
      7 CA        -33.8250   -9.7720    9.1710 C.3       6 GLP5        0.0000 
      8 CA        -34.4555   -6.0825    8.7450 C.3       3 GLC5        0.0000 
      9 CA        -34.6100   -6.0200   10.6940 C.3       6 GLP5        0.0000 
     10 CA        -32.9495   -5.0345    7.5795 C.3       3 GLC5        0.0000 
     11 CA        -31.5980   -3.9240    8.3630 C.3       6 GLP5        0.0000 
     12 CA        -35.3775   -5.4065    8.9555 C.3       3 GLC5        0.0000 
     13 CA        -36.1450   -4.7930    7.2170 C.3       9 GLL5        0.0000 
     14 CA        -39.5475   -2.4810    7.9310 C.3       3 GLC5        0.0000 
     15 CA        -38.2390   -3.9550    7.1050 C.3       9 GLL5        0.0000 
     16 CA        -40.8560   -1.0070    8.7570 C.3       6 GLP5        0.0000 
     17 CA        -38.9630   -5.9945    7.3440 C.3       3 GLC5        0.0000 
     18 CA        -39.6870   -8.0340    7.5830 C.3       6 GLP5        0.0000 
     19 N         -35.1355    0.3490    9.7290 N.am      2 SEC2        0.0000 
     20 N         -33.9220    0.5060    8.7140 N.am      8 SEL2        0.0000 
     21 N         -36.3490    0.1920   10.7440 N.am      5 SEP2        0.0000 
     22 O         -33.0540    0.3320    9.6700 O.2       1 ALC1        0.0000 
     23 O         -33.9220    0.5060    8.7140 O.2       7 ALL1        0.0000 
     24 O         -32.1860    0.1580   10.6260 O.2       4 ALP1        0.0000 
     25 O         -33.8055   -0.0740   10.3535 O.2       1 ALC1        0.0000 
     26 O         -33.6890   -0.6540   11.9930 O.2       4 ALP1        0.0000 
     27 CA        -32.3285    0.3000    7.5380 C.3       3 GLC5        0.0000 
     28 CA        -34.0160   -0.5930    7.8130 C.3       9 GLL5        0.0000 
     29 CA        -30.6410    1.1930    7.2630 C.3       6 GLP5        0.0000 
     30 CA        -32.7870   -1.8660    7.2850 C.3       3 GLC5        0.0000 
     31 CA        -31.5580   -3.1390    6.7570 C.3       6 GLP5        0.0000 
     32 CA        -33.8420    1.5290    6.4460 C.3       3 GLC5        0.0000 
     33 CA        -35.0500   -0.2820    6.7570 C.3       9 GLL5        0.0000 
     34 CA        -32.6340    3.3400    6.1350 C.3       6 GLP5        0.0000 
     35 CA        -32.0685   -0.7020    3.0110 C.3       3 GLC5        0.0000 
     36 CA        -33.4450   -0.3240    4.4570 C.3       9 GLL5        0.0000 
     37 CA        -30.6920   -1.0800    1.5650 C.3       6 GLP5        0.0000 
     38 CA        -31.6530    0.9685    4.0350 C.3       3 GLC5        0.0000 
     39 CA        -29.8610    2.2610    3.6130 C.3       6 GLP5        0.0000 
     40 CA        -36.3360    0.8395    3.3845 C.3       3 GLC5        0.0000 
     41 CA        -34.3670    0.8330    3.4680 C.3       9 GLL5        0.0000 
     42 CA        -38.3050    0.8460    3.3010 C.3       6 GLP5        0.0000 
     43 CA        -32.0840    0.2210    2.0015 C.3       3 GLC5        0.0000 
     44 CA        -33.4760    1.5220    2.4380 C.3       9 GLL5        0.0000 
     45 CA        -33.6070    0.2040    1.3025 C.3       3 GLC5        0.0000 
     46 CA        -33.7380   -1.1140    0.1670 C.3       6 GLP5        0.0000 
     47 CA        -33.9810    1.2970    0.5510 C.3       3 GLC5        0.0000 
     48 CA        -33.9780    2.9170    2.0230 C.3       9 GLL5        0.0000 
     49 CA        -33.9840   -0.3230   -0.9210 C.3       6 GLP5        0.0000 
     50 CA        -36.8155    1.8520    2.3395 C.3       3 GLC5        0.0000 
     51 CA        -35.3260    2.8580    1.3780 C.3       9 GLL5        0.0000 
     52 CA        -35.3080    1.3605    0.0310 C.3       3 GLC5        0.0000 
     53 CA        -35.2900   -0.1370   -1.3160 C.3       6 GLP5        0.0000 
     54 CA        -37.7230   -0.7285    6.1840 C.3       3 GLC5        0.0000 
     55 CA        -36.3450   -0.8620    7.3340 C.3       9 GLL5        0.0000 
     56 CA        -39.1010   -0.5950    5.0340 C.3       6 GLP5        0.0000 
     57 O         -36.1640   -0.7035    9.6475 O.2       1 ALC1        0.0000 
     58 O         -35.9790   -1.5990    8.5510 O.2       7 ALL1        0.0000 
     59 O         -36.3490    0.1920   10.7440 O.2       4 ALP1        0.0000 
     60 CA        -33.0645   -2.8995    8.4085 C.3       3 GLC5        0.0000 
     61 CA        -34.5310   -1.8750    8.4540 C.3       9 GLL5        0.0000 
     62 CA        -38.8485   -1.8745    8.8190 C.3       3 GLC5        0.0000 
     63 CA        -36.8410   -2.7420    8.8810 C.3       9 GLL5        0.0000 
     64 O         -39.2265   -5.0885    5.3670 O.2       1 ALC1        0.0000 
     65 O         -38.1540   -4.9610    6.2040 O.2       7 ALL1        0.0000 
     66 O         -40.2990   -5.2160    4.5300 O.2       4 ALP1        0.0000 
     67 CA        -35.1190   -8.4140    4.9855 C.3       3 GLC5        0.0000 
     68 CA        -36.2680   -6.6050    5.5260 C.3       9 GLL5        0.0000 
     69 CA        -33.9700  -10.2230    4.4450 C.3       6 GLP5        0.0000 
     70 CA        -36.1590   -8.2990    6.8135 C.3       3 GLC5        0.0000 
     71 CA        -36.0500   -9.9930    8.1010 C.3       6 GLP5        0.0000 
     72 O         -36.3975   -8.1260    3.4835 O.2       1 ALC1        0.0000 
     73 O         -36.9570   -7.2870    4.5720 O.2       7 ALL1        0.0000 
     74 O         -35.8380   -8.9650    2.3950 O.2       4 ALP1        0.0000 
     75 O         -38.3510   -7.3060    4.3385 O.2       1 ALC1        0.0000 
     76 O         -39.7450   -7.3250    4.1050 O.2       4 ALP1        0.0000 
     77 N         -34.1765   -7.4080    4.7395 N.am      2 SEC2        0.0000 
     78 N         -34.9510   -6.8550    5.8340 N.am      8 SEL2        0.0000 
     79 N         -33.4020   -7.9610    3.6450 N.am      5 SEP2        0.0000 
     80 CA        -38.1423   -7.0468    6.7298 C.3       3 GLC5        0.0000 
     81 CA        -36.2927    1.3710    6.8803 C.3       3 GLC5        0.0000 
     82 CA        -36.8880    3.3140    6.7150 C.3       6 GLP5        0.0000 
     83 CA        -36.6767   -0.0347    5.3653 C.3       3 GLC5        0.0000 
     84 CA        -38.4400    0.5570    4.6390 C.3       6 GLP5        0.0000 
     85 CA        -34.5140   -2.3908    4.2528 C.3       3 GLC5        0.0000 
     86 CA        -34.7770   -0.9710    5.4260 C.3       9 GLL5        0.0000 
     87 CA        -34.9170   -4.1340    3.5640 C.3       6 GLP5        0.0000 
     88 CA        -32.8345   -1.8932    5.8492 C.3       3 GLC5        0.0000 
     89 CA        -33.2700    1.7973    5.0488 C.3       3 GLC5        0.0000 
     90 CA        -34.3385   -0.7107    2.4212 C.3       3 GLC5        0.0000 
     91 CA        -34.7710   -1.6760    0.8800 C.3       6 GLP5        0.0000 
     92 CA        -33.1805    2.7797    4.1828 C.3       3 GLC5        0.0000 
     93 CA        -31.9140    2.4937    0.9898 C.3       3 GLC5        0.0000 
     94 CA        -30.1010    2.7680   -0.2510 C.3       6 GLP5        0.0000 
     95 CA        -31.7940    2.2403    2.9218 C.3       3 GLC5        0.0000 
     96 CA        -35.7405    3.5722    3.4467 C.3       3 GLC5        0.0000 
     97 CA        -36.8290    4.2570    5.1930 C.3       6 GLP5        0.0000 
     98 CA        -38.5186   -4.1926    9.0739 C.3       3 GLC5        0.0000 
     99 CA        -39.7920   -5.0800    9.9810 C.3       6 GLP5        0.0000 
    100 CA        -36.2698   -4.1980    9.9028 C.3       3 GLC5        0.0000 
    101 CA        -37.0600   -3.7820    7.8000 C.3       9 GLL5        0.0000 
    102 CA        -35.5890   -5.1340   11.4650 C.3       6 GLP5        0.0000 
@<TRIPOS>BOND
@<TRIPOS>SUBSTRUCTURE
     1 ALC1       22 GROUP        1 X    ALC  0     ROOT ALC X 1
     2 SEC2       19 GROUP        1 X    SEC  0     **** SEC X 2
     3 GLC5        1 GROUP        1 X    GLC  0     **** GLC X 6
     4 ALP1       24 GROUP        1 Y    ALP  0     ROOT ALP Y 8
     5 SEP2       21 GROUP        1 Y    SEP  0     **** SEP Y 9
     6 GLP5        3 GROUP        1 Y    GLP  0     **** GLP Y 13
     7 ALL1       23 GROUP        1 Z    ALL  0     ROOT ALL Z 15
     8 SEL2       20 GROUP        1 Z    SEL  0     **** SEL Z 16
     9 GLL5        2 GROUP        1 Z    GLL  0     **** GLL Z 20
@<TRIPOS>SET

