#    Name: 4f3c_BIG_1_ligand
#    Modification time : Mon Mar 24 18:54:23 2014

@<TRIPOS>MOLECULE
4f3c_BIG_1_ligand
   49    51     1     0     0
SMALL
NO_CHARGES


@<TRIPOS>ATOM
      1 C2        -34.3010   -6.1450    6.7960 C.ar      1 BIG301      0.0000 
      2 C5        -36.9270   -5.5140    6.2270 C.ar      1 BIG301      0.0000 
      3 C4        -36.1450   -4.7930    7.2170 C.ar      1 BIG301      0.0000 
      4 C8        -38.2390   -3.9550    7.1050 C.2       1 BIG301      0.0000 
      5 O3'       -33.9220    0.5060    8.7140 O.3       1 BIG301      0.0000 
      6 C3'       -34.0160   -0.5930    7.8130 C.3       1 BIG301      0.0000 
      7 C4'       -35.0500   -0.2820    6.7570 C.3       1 BIG301      0.0000 
      8 C5'       -34.7770   -0.9710    5.4260 C.3       1 BIG301      0.0000 
      9 S5'       -33.4450   -0.3240    4.4570 S.3       1 BIG301      0.0000 
     10 C20       -34.3670    0.8330    3.4680 C.3       1 BIG301      0.0000 
     11 C21       -33.4760    1.5220    2.4380 C.3       1 BIG301      0.0000 
     12 C22       -33.9780    2.9170    2.0230 C.3       1 BIG301      0.0000 
     13 C23       -35.3260    2.8580    1.3780 C.3       1 BIG301      0.0000 
     14 C1'       -36.3450   -0.8620    7.3340 C.3       1 BIG301      0.0000 
     15 N1'       -35.9790   -1.5990    8.5510 N.4       1 BIG301      0.0000 
     16 C2'       -34.5310   -1.8750    8.4540 C.3       1 BIG301      0.0000 
     17 C10       -36.8410   -2.7420    8.8810 C.3       1 BIG301      0.0000 
     18 N7        -38.1540   -4.9610    6.2040 N.pl3     1 BIG301      0.0000 
     19 C6        -36.2680   -6.6050    5.5260 C.ar      1 BIG301      0.0000 
     20 N6        -36.9570   -7.2870    4.5720 N.pl3     1 BIG301      0.0000 
     21 N3        -34.8650   -5.1210    7.4960 N.ar      1 BIG301      0.0000 
     22 C9        -37.0600   -3.7820    7.8000 C.2       1 BIG301      0.0000 
     23 N1        -34.9510   -6.8550    5.8340 N.ar      1 BIG301      0.0000 
     24 H         -33.2919   -6.4045    7.0152 H         1 BIG301      0.0000 
     25 H         -39.0389   -3.4048    7.2569 H         1 BIG301      0.0000 
     26 H         -33.0982   -0.8111    7.3122 H         1 BIG301      0.0000 
     27 H         -35.1671    0.7517    6.6419 H         1 BIG301      0.0000 
     28 H         -35.6293   -0.9150    4.7423 H         1 BIG301      0.0000 
     29 H         -34.5054   -2.0239    5.5468 H         1 BIG301      0.0000 
     30 H         -34.7697    1.5077    4.1940 H         1 BIG301      0.0000 
     31 H         -35.1275    0.2241    3.0259 H         1 BIG301      0.0000 
     32 H         -33.4074    0.8912    1.5398 H         1 BIG301      0.0000 
     33 H         -32.4602    1.6211    2.8475 H         1 BIG301      0.0000 
     34 H         -33.2485    3.3545    1.3317 H         1 BIG301      0.0000 
     35 H         -34.0157    3.5501    2.9170 H         1 BIG301      0.0000 
     36 H         -36.7850   -1.5186    6.5992 H         1 BIG301      0.0000 
     37 H         -37.0159   -0.0474    7.5596 H         1 BIG301      0.0000 
     38 H         -36.0788   -0.8370    9.3998 H         1 BIG301      0.0000 
     39 H         -34.0977   -1.9844    9.4137 H         1 BIG301      0.0000 
     40 H         -34.3399   -2.6906    7.8067 H         1 BIG301      0.0000 
     41 H         -37.8506   -2.3708    9.2105 H         1 BIG301      0.0000 
     42 H         -36.4373   -3.2697    9.7889 H         1 BIG301      0.0000 
     43 H         -38.8860   -5.2444    5.6182 H         1 BIG301      0.0000 
     44 H         -36.4759   -8.0522    4.1442 H         1 BIG301      0.0000 
     45 H         -37.8839   -6.9631    4.3825 H         1 BIG301      0.0000 
     46 H         -35.6487    3.7653    1.1083 H         1 BIG301      0.0000 
     47 H         -35.3187    2.2924    0.5534 H         1 BIG301      0.0000 
     48 H         -36.0149    2.4724    1.9918 H         1 BIG301      0.0000 
     49 H         -33.2135    0.2436    9.3691 H         1 BIG301      0.0000 
@<TRIPOS>BOND
     1   21    1 ar   
     2   23    1 ar   
     3   24    1 1    
     4    3    2 ar   
     5   18    2 1    
     6   19    2 ar   
     7   21    3 ar   
     8   22    3 1    
     9   18    4 1    
    10   22    4 2    
    11   25    4 1    
    12    6    5 1    
    13   49    5 1    
    14    7    6 1    
    15   16    6 1    
    16   26    6 1    
    17    8    7 1    
    18   14    7 1    
    19   27    7 1    
    20    9    8 1    
    21   28    8 1    
    22   29    8 1    
    23   10    9 1    
    24   11   10 1    
    25   30   10 1    
    26   31   10 1    
    27   12   11 1    
    28   32   11 1    
    29   33   11 1    
    30   13   12 1    
    31   34   12 1    
    32   35   12 1    
    33   46   13 1    
    34   47   13 1    
    35   48   13 1    
    36   15   14 1    
    37   36   14 1    
    38   37   14 1    
    39   16   15 1    
    40   17   15 1    
    41   38   15 1    
    42   39   16 1    
    43   40   16 1    
    44   22   17 1    
    45   41   17 1    
    46   42   17 1    
    47   43   18 1    
    48   20   19 1    
    49   23   19 ar   
    50   44   20 1    
    51   45   20 1    
@<TRIPOS>SUBSTRUCTURE
     1 BIG301      1 GROUP   
@<TRIPOS>SET

