#    Name: 1TA6_1_CAVITY_N1_6.mol2
#    Modification time : Tue Mar 11 10:40:03 2014

@<TRIPOS>MOLECULE
1TA6_1_CAVITY_N1_6.mol2
  110     0     7     0     0
SMALL
NO_CHARGES


@<TRIPOS>ATOM
      1 NZ         11.8526  -19.4708   21.9385 N.2       4 LYS4        0.0000 
      2 OG         20.0810  -16.1478   21.9116 O.2       1 SER1        0.0000 
      3 CZ         18.8631  -16.5238   21.1208 C.ar      5 PHE5        0.0000 
      4 N          13.9748  -17.2666   23.3124 N.2       2 ALA2        0.0000 
      5 N          14.7923  -17.2697   22.0548 N.2       2 ALA2        0.0000 
      6 O          12.7569  -17.6427   22.5217 O.2       2 ALA2        0.0000 
      7 DU         13.5743  -17.6458   21.2640 H         7 CUB7        0.0000 
      8 CA         11.5389  -18.0187   21.7310 C.3       6 GLY6        0.0000 
      9 DU         12.3564  -18.0218   20.4733 H         7 CUB7        0.0000 
     10 CA         11.1385  -18.3979   19.6826 C.3       6 GLY6        0.0000 
     11 N           9.9205  -18.7740   18.8919 N.2       2 ALA2        0.0000 
     12 N          10.7380  -18.7771   17.6342 N.2       2 ALA2        0.0000 
     13 OG         19.7673  -14.6957   21.7041 O.2       1 SER1        0.0000 
     14 N          16.9144  -15.0655   23.4287 N.2       2 ALA2        0.0000 
     15 DU         17.7319  -15.0686   22.1710 H         7 CUB7        0.0000 
     16 CZ         18.5494  -15.0717   20.9134 C.ar      5 PHE5        0.0000 
     17 CZ         19.3669  -15.0748   19.6557 C.ar      5 PHE5        0.0000 
     18 N          15.6965  -15.4416   22.6380 N.2       2 ALA2        0.0000 
     19 DU         16.5140  -15.4447   21.3803 H         7 CUB7        0.0000 
     20 CZ         17.3315  -15.4478   20.1227 C.ar      5 PHE5        0.0000 
     21 N          14.4786  -15.8176   21.8473 N.2       2 ALA2        0.0000 
     22 DU         15.2961  -15.8207   20.5896 H         7 CUB7        0.0000 
     23 N          12.4432  -16.1906   22.3143 N.2       2 ALA2        0.0000 
     24 DU         13.2607  -16.1937   21.0566 H         7 CUB7        0.0000 
     25 DU         14.0781  -16.1968   19.7989 H         7 CUB7        0.0000 
     26 CA         11.2253  -16.5666   21.5235 C.3       6 GLY6        0.0000 
     27 CA         12.0427  -16.5697   20.2659 C.3       6 GLY6        0.0000 
     28 CA         12.8602  -16.5728   19.0082 C.3       6 GLY6        0.0000 
     29 CA         10.8248  -16.9458   19.4752 C.3       6 GLY6        0.0000 
     30 CA         11.6423  -16.9489   18.2175 C.3       6 GLY6        0.0000 
     31 NZ         10.4243  -17.3250   17.4268 N.2       4 LYS4        0.0000 
     32 CA         19.4536  -13.2436   21.4966 C.3       6 GLY6        0.0000 
     33 CZ         20.2711  -13.2467   20.2390 C.ar      5 PHE5        0.0000 
     34 CA         16.6008  -13.6134   23.2213 C.3       6 GLY6        0.0000 
     35 CA         17.4182  -13.6165   21.9636 C.3       6 GLY6        0.0000 
     36 DU         18.2357  -13.6196   20.7059 H         7 CUB7        0.0000 
     37 CZ         19.0532  -13.6227   19.4482 C.ar      5 PHE5        0.0000 
     38 CZ         19.8707  -13.6258   18.1906 C.ar      5 PHE5        0.0000 
     39 N          15.3828  -13.9895   22.4305 N.2       2 ALA2        0.0000 
     40 DU         16.2003  -13.9926   21.1729 H         7 CUB7        0.0000 
     41 CZ         17.0178  -13.9957   19.9152 C.ar      5 PHE5        0.0000 
     42 N          13.3474  -14.3624   22.8975 N.2       2 ALA2        0.0000 
     43 N          14.1649  -14.3655   21.6398 N.2       2 ALA2        0.0000 
     44 DU         14.9824  -14.3686   20.3822 H         7 CUB7        0.0000 
     45 CZ         15.7999  -14.3717   19.1245 C.ar      5 PHE5        0.0000 
     46 N          12.1295  -14.7385   22.1068 N.2       2 ALA2        0.0000 
     47 DU         12.9470  -14.7416   20.8491 H         7 CUB7        0.0000 
     48 DU         13.7645  -14.7447   19.5915 H         7 CUB7        0.0000 
     49 CZ         14.5819  -14.7478   18.3338 C.ar      5 PHE5        0.0000 
     50 CZ         15.3994  -14.7509   17.0761 C.ar      5 PHE5        0.0000 
     51 O          11.7291  -15.1177   20.0584 O.2       2 ALA2        0.0000 
     52 CA         12.5465  -15.1208   18.8007 C.3       6 GLY6        0.0000 
     53 CA         13.3640  -15.1239   17.5431 C.3       6 GLY6        0.0000 
     54 CA         14.1815  -15.1270   16.2854 C.3       6 GLY6        0.0000 
     55 NZ         14.9989  -15.1301   15.0277 N.2       4 LYS4        0.0000 
     56 O          10.5111  -15.4937   19.2677 O.2       2 ALA2        0.0000 
     57 N          17.1046  -12.1644   21.7561 N.2       2 ALA2        0.0000 
     58 N          17.9220  -12.1675   20.4985 N.2       2 ALA2        0.0000 
     59 CA         18.7395  -12.1706   19.2408 C.3       6 GLY6        0.0000 
     60 CA         15.0692  -12.5374   22.2231 C.3       6 GLY6        0.0000 
     61 N          15.8866  -12.5405   20.9654 N.2       2 ALA2        0.0000 
     62 N          16.7041  -12.5436   19.7077 N.2       2 ALA2        0.0000 
     63 CA         17.5216  -12.5467   18.4501 C.3       6 GLY6        0.0000 
     64 CZ         18.3391  -12.5498   17.1924 C.ar      5 PHE5        0.0000 
     65 CA         12.2163  -12.9072   23.9477 C.3       6 GLY6        0.0000 
     66 O          13.0338  -12.9103   22.6900 O.2       2 ALA2        0.0000 
     67 O          13.8512  -12.9134   21.4324 O.2       2 ALA2        0.0000 
     68 OG         14.6687  -12.9166   20.1747 O.2       1 SER1        0.0000 
     69 OG         15.4862  -12.9197   18.9170 O.2       1 SER1        0.0000 
     70 CZ         16.3037  -12.9228   17.6594 C.ar      5 PHE5        0.0000 
     71 CZ         17.1211  -12.9259   16.4017 C.ar      5 PHE5        0.0000 
     72 CZ         17.9386  -12.9290   15.1440 C.ar      5 PHE5        0.0000 
     73 N          10.9984  -13.2833   23.1570 N.2       2 ALA2        0.0000 
     74 CA         11.8158  -13.2864   21.8993 C.3       6 GLY6        0.0000 
     75 O          12.6333  -13.2895   20.6417 O.2       2 ALA2        0.0000 
     76 CA         13.4508  -13.2926   19.3840 C.3       6 GLY6        0.0000 
     77 CA         14.2683  -13.2957   18.1263 C.3       6 GLY6        0.0000 
     78 CA         15.0857  -13.2988   16.8686 C.3       6 GLY6        0.0000 
     79 CZ         15.9032  -13.3019   15.6110 C.ar      5 PHE5        0.0000 
     80 CZ         16.7207  -13.3050   14.3533 C.ar      5 PHE5        0.0000 
     81 CA         10.5979  -13.6625   21.1086 C.3       6 GLY6        0.0000 
     82 CA         14.6853  -13.6780   14.8203 C.3       6 GLY6        0.0000 
     83 N          14.7555  -11.0853   22.0156 N.2       2 ALA2        0.0000 
     84 N          15.5730  -11.0884   20.7580 N.2       2 ALA2        0.0000 
     85 NZ         11.0852  -11.4521   24.9979 N.2       4 LYS4        0.0000 
     86 O          11.9026  -11.4552   23.7403 O.2       2 ALA2        0.0000 
     87 O          12.7201  -11.4583   22.4826 O.2       2 ALA2        0.0000 
     88 OG         13.5376  -11.4614   21.2249 O.2       1 SER1        0.0000 
     89 OG         14.3550  -11.4645   19.9672 O.2       1 SER1        0.0000 
     90 OG         15.9900  -11.4707   17.4519 O.2       1 SER1        0.0000 
     91 OG         16.8075  -11.4738   16.1942 O.2       1 SER1        0.0000 
     92 N          10.6847  -11.8312   22.9495 N.2       2 ALA2        0.0000 
     93 CA         11.5022  -11.8343   21.6919 C.3       6 GLY6        0.0000 
     94 N          12.3196  -11.8374   20.4342 N.2       2 ALA2        0.0000 
     95 N          13.1371  -11.8405   19.1765 N.2       2 ALA2        0.0000 
     96 OG         13.9546  -11.8436   17.9189 O.2       1 SER1        0.0000 
     97 OG         14.7721  -11.8467   16.6612 O.2       1 SER1        0.0000 
     98 DU         15.5895  -11.8498   15.4035 H         7 CUB7        0.0000 
     99 OD1        16.4070  -11.8529   14.1458 O.3       3 ASP3        0.0000 
    100 CA         14.3716  -12.2259   14.6128 C.3       6 GLY6        0.0000 
    101 N          11.9894   -9.6239   25.5812 N.2       2 ALA2        0.0000 
    102 N          12.8069   -9.6270   24.3235 N.2       2 ALA2        0.0000 
    103 O          13.6244   -9.6301   23.0658 O.2       2 ALA2        0.0000 
    104 NZ         10.7715  -10.0000   24.7905 N.2       4 LYS4        0.0000 
    105 CA         11.5890  -10.0031   23.5328 C.3       6 GLY6        0.0000 
    106 CA         12.4064  -10.0062   22.2751 C.3       6 GLY6        0.0000 
    107 OG         13.2239  -10.0093   21.0175 O.2       1 SER1        0.0000 
    108 CA         10.3710  -10.3791   22.7421 C.3       6 GLY6        0.0000 
    109 O          11.1885  -10.3822   21.4844 O.2       2 ALA2        0.0000 
    110 N          15.2759  -10.3977   15.1961 N.2       2 ALA2        0.0000 
@<TRIPOS>BOND
@<TRIPOS>SUBSTRUCTURE
     1 SER1        2 GROUP   
     2 ALA2        4 GROUP   
     3 ASP3       99 GROUP   
     4 LYS4        1 GROUP   
     5 PHE5        3 GROUP   
     6 GLY6        8 GROUP   
     7 CUB7        7 GROUP   
@<TRIPOS>SET

