#    Name: 1ta6_177_1_INTS_M
#    Modification time : Tue Mar 25 04:39:15 2014

@<TRIPOS>MOLECULE
1ta6_177_1_INTS_M
   83     0     9     0     0
SMALL
NO_CHARGES


@<TRIPOS>ATOM
      1 O          15.6270  -16.1075   24.2165 O.2       1 ALC1        0.0000 
      2 O          16.5390  -16.7740   23.3160 O.2       7 ALL1        0.0000 
      3 O          14.7150  -15.4410   25.1170 O.2       4 ALP1        0.0000 
      4 CA         20.0460  -12.8020   23.6685 C.3       3 GLC5        0.0000 
      5 CA         19.6950  -14.8060   24.2940 C.3       9 GLL5        0.0000 
      6 CA         20.3970  -10.7980   23.0430 C.3       6 GLP5        0.0000 
      7 CA         21.0810  -12.6810   24.6505 C.3       3 GLC5        0.0000 
      8 CA         20.3820  -14.4750   25.5970 C.3       9 GLL5        0.0000 
      9 CA         21.7800  -10.8870   23.7040 C.3       6 GLP5        0.0000 
     10 CA         19.0360  -13.2905   26.5305 C.3       3 GLC5        0.0000 
     11 CA         17.6900  -12.1060   27.4640 C.3       6 GLP5        0.0000 
     12 CA         20.7975  -16.5965   28.3125 C.3       3 GLC5        0.0000 
     13 CA         20.5600  -15.7250   26.4480 C.3       9 GLL5        0.0000 
     14 CA         21.0350  -17.4680   30.1770 C.3       6 GLP5        0.0000 
     15 CA         19.5590  -16.5095   28.6085 C.3       3 GLC5        0.0000 
     16 CA         19.2390  -16.4650   26.6590 C.3       9 GLL5        0.0000 
     17 CA         19.8790  -16.5540   30.5580 C.3       6 GLP5        0.0000 
     18 CA         17.2490  -16.9280   27.4785 C.3       3 GLC5        0.0000 
     19 CA         15.2590  -17.3910   28.2980 C.3       6 GLP5        0.0000 
     20 N          15.3090  -13.4645   24.1775 N.am      2 SEC2        0.0000 
     21 N          16.0610  -14.0490   23.0210 N.am      8 SEL2        0.0000 
     22 N          14.5570  -12.8800   25.3340 N.am      5 SEP2        0.0000 
     23 CA         18.8955  -11.7735   21.9525 C.3       3 GLC5        0.0000 
     24 CA         17.3940  -12.7490   20.8620 C.3       9 GLL5        0.0000 
     25 CA         17.3075  -12.1985   22.8685 C.3       3 GLC5        0.0000 
     26 CA         17.2210  -11.6480   24.8750 C.3       6 GLP5        0.0000 
     27 CA         19.9365  -12.1010   21.5360 C.3       3 GLC5        0.0000 
     28 CA         19.4760  -13.4040   20.0290 C.3       9 GLL5        0.0000 
     29 O          15.9710  -10.5815   21.6465 O.2       1 ALC1        0.0000 
     30 O          15.2450  -11.6060   20.8350 O.2       7 ALL1        0.0000 
     31 O          16.6970   -9.5570   22.4580 O.2       4 ALP1        0.0000 
     32 CA          9.9655  -13.8345   22.3050 C.3       3 GLC5        0.0000 
     33 CA         11.2890  -12.4260   23.2580 C.3       9 GLL5        0.0000 
     34 CA          8.6420  -15.2430   21.3520 C.3       6 GLP5        0.0000 
     35 CA         10.4690   -8.5905   23.5720 C.3       3 GLC5        0.0000 
     36 CA         12.0610   -8.8120   24.7990 C.3       9 GLL5        0.0000 
     37 CA          8.8770   -8.3690   22.3450 C.3       6 GLP5        0.0000 
     38 CA         12.1450   -7.8700   23.2040 C.3       3 GLC5        0.0000 
     39 CA         12.2290   -6.9280   21.6090 C.3       6 GLP5        0.0000 
     40 CA         13.9430   -9.9185   24.6895 C.3       3 GLC5        0.0000 
     41 CA         15.8250  -11.0250   24.5800 C.3       6 GLP5        0.0000 
     42 CA         11.5775   -9.4300   26.4930 C.3       3 GLC5        0.0000 
     43 CA         11.0940  -10.0480   28.1870 C.3       6 GLP5        0.0000 
     44 CA         11.1265   -7.1840   25.6520 C.3       3 GLC5        0.0000 
     45 CA         10.1920   -5.5560   26.5050 C.3       6 GLP5        0.0000 
     46 CA         13.2755  -14.1500   24.2280 C.3       3 GLC5        0.0000 
     47 CA         12.9340  -14.7070   22.2930 C.3       9 GLL5        0.0000 
     48 CA         13.6170  -13.5930   26.1630 C.3       6 GLP5        0.0000 
     49 CA         10.7880  -14.9750   21.8225 C.3       3 GLC5        0.0000 
     50 N          12.2135  -17.4390   23.6620 N.am      2 SEC2        0.0000 
     51 N          12.6950  -17.0820   22.3680 N.am      8 SEL2        0.0000 
     52 N          11.7320  -17.7960   24.9560 N.am      5 SEP2        0.0000 
     53 CA          9.5230  -18.5965   20.5160 C.3       3 GLC5        0.0000 
     54 CA         10.8600  -17.8440   19.8860 C.3       9 GLL5        0.0000 
     55 CA          8.1860  -19.3490   21.1460 C.3       6 GLP5        0.0000 
     56 CA          9.3240  -16.2905   19.7300 C.3       3 GLC5        0.0000 
     57 CA          7.7880  -14.7370   19.5740 C.3       6 GLP5        0.0000 
     58 CA          9.7510  -16.5435   20.6190 C.3       3 GLC5        0.0000 
     59 CA         18.1227  -13.4032   24.6387 C.3       3 GLC5        0.0000 
     60 CA         18.3540  -15.5110   24.5110 C.3       9 GLL5        0.0000 
     61 CA         18.1784  -14.8925   26.8539 C.3       3 GLC5        0.0000 
     62 CA         17.1030  -13.3470   27.7690 C.3       6 GLP5        0.0000 
     63 CA         18.8687  -11.3777   19.2565 C.3       3 GLC5        0.0000 
     64 CA         19.1000   -9.6640   18.3900 C.3       6 GLP5        0.0000 
     65 CA         21.0583  -14.3570   20.2138 C.3       3 GLC5        0.0000 
     66 CA         22.8810  -14.7330   19.9650 C.3       6 GLP5        0.0000 
     67 CA         18.4958  -14.9161   18.8036 C.3       3 GLC5        0.0000 
     68 CA         18.9950  -14.5580   20.8960 C.3       9 GLL5        0.0000 
     69 CA         18.0740  -16.0000   17.2590 C.3       6 GLP5        0.0000 
     70 CA         14.6175  -11.2163   22.9085 C.3       3 GLC5        0.0000 
     71 CA         13.8170  -11.4050   20.6020 C.3       9 GLL5        0.0000 
     72 CA         10.3067  -12.2995   21.3910 C.3       3 GLC5        0.0000 
     73 CA         12.1660  -12.4880   22.1520 C.3       9 GLL5        0.0000 
     74 CA          8.8860  -12.1420   20.0770 C.3       6 GLP5        0.0000 
     75 CA         12.6723  -13.0250   24.4340 C.3       3 GLC5        0.0000 
     76 CA         10.2800   -9.5673   23.1465 C.3       3 GLC5        0.0000 
     77 CA         11.2650  -11.3160   24.0760 C.3       9 GLL5        0.0000 
     78 CA         12.6500  -12.1792   25.0555 C.3       3 GLC5        0.0000 
     79 CA         12.1010  -10.2150   23.8200 C.3       9 GLL5        0.0000 
     80 CA         11.3885  -10.4067   26.0675 C.3       3 GLC5        0.0000 
     81 CA         12.3805   -8.5870   22.4365 C.3       3 GLC5        0.0000 
     82 CA         14.1785  -10.6355   23.9220 C.3       3 GLC5        0.0000 
     83 CA         12.9630  -10.2770   22.7080 C.3       9 GLL5        0.0000 
@<TRIPOS>BOND
@<TRIPOS>SUBSTRUCTURE
     1 ALC1        1 GROUP        1 X    ALC  0     ROOT ALC X 1
     2 SEC2       20 GROUP        1 X    SEC  0     **** SEC X 2
     3 GLC5        4 GROUP        1 X    GLC  0     **** GLC X 6
     4 ALP1        3 GROUP        1 Y    ALP  0     ROOT ALP Y 8
     5 SEP2       22 GROUP        1 Y    SEP  0     **** SEP Y 9
     6 GLP5        6 GROUP        1 Y    GLP  0     **** GLP Y 13
     7 ALL1        2 GROUP        1 Z    ALL  0     ROOT ALL Z 15
     8 SEL2       21 GROUP        1 Z    SEL  0     **** SEL Z 16
     9 GLL5        5 GROUP        1 Z    GLL  0     **** GLL Z 20
@<TRIPOS>SET

