#    Name: 1ta6_177_1_ligand
#    Modification time : Tue Mar 25 04:39:15 2014

@<TRIPOS>MOLECULE
1ta6_177_1_ligand
   69    71     1     0     0
SMALL
NO_CHARGES


@<TRIPOS>ATOM
      1 N0         16.5390  -16.7740   23.3160 N.4       1 177401      0.0000 
      2 CA0        17.6790  -15.8310   23.1550 C.3       1 177401      0.0000 
      3 CB0        18.3540  -15.5110   24.5110 C.3       1 177401      0.0000 
      4 CG1        19.6950  -14.8060   24.2940 C.3       1 177401      0.0000 
      5 CD1        20.3820  -14.4750   25.5970 C.3       1 177401      0.0000 
      6 CE0        20.5600  -15.7250   26.4480 C.3       1 177401      0.0000 
      7 CD2        19.2390  -16.4650   26.6590 C.3       1 177401      0.0000 
      8 CG2        18.6080  -16.7810   25.3240 C.3       1 177401      0.0000 
      9 C0         17.1190  -14.5420   22.5670 C.2       1 177401      0.0000 
     10 O0         16.0610  -14.0490   23.0210 O.2       1 177401      0.0000 
     11 N          17.7960  -13.9860   21.5400 N.am      1 177401      0.0000 
     12 CA         17.3940  -12.7490   20.8620 C.3       1 177401      0.0000 
     13 C          15.8980  -12.7300   20.5530 C.2       1 177401      0.0000 
     14 O          15.3430  -13.7480   20.1180 O.2       1 177401      0.0000 
     15 CB         18.2040  -12.8090   19.5720 C.3       1 177401      0.0000 
     16 CG         19.4760  -13.4040   20.0290 C.3       1 177401      0.0000 
     17 CD         18.9950  -14.5580   20.8960 C.3       1 177401      0.0000 
     18 N'         15.2450  -11.6060   20.8350 N.am      1 177401      0.0000 
     19 CA'        13.8170  -11.4050   20.6020 C.3       1 177401      0.0000 
     20 CB'        13.0030  -11.4100   21.8720 C.ar      1 177401      0.0000 
     21 CG'        12.1660  -12.4880   22.1520 C.ar      1 177401      0.0000 
     22 CD'        11.2890  -12.4260   23.2580 C.ar      1 177401      0.0000 
     23 CE'        11.2650  -11.3160   24.0760 C.ar      1 177401      0.0000 
     24 CDB        12.1010  -10.2150   23.8200 C.ar      1 177401      0.0000 
     25 CGB        12.9630  -10.2770   22.7080 C.ar      1 177401      0.0000 
     26 CL         12.0610   -8.8120   24.7990 Cl        1 177401      0.0000 
     27 OL         12.4020  -13.6620   21.4670 O.3       1 177401      0.0000 
     28 CF         12.9340  -14.7070   22.2930 C.3       1 177401      0.0000 
     29 CH         12.7020  -16.0660   21.6720 C.2       1 177401      0.0000 
     30 OH         12.6950  -17.0820   22.3680 O.2       1 177401      0.0000 
     31 N2         12.5300  -16.0900   20.3550 N.am      1 177401      0.0000 
     32 CM         12.2590  -17.3040   19.5830 C.3       1 177401      0.0000 
     33 CN         10.8600  -17.8440   19.8860 C.3       1 177401      0.0000 
     34 H          18.4046  -16.2266   22.4861 H         1 177401      0.0000 
     35 H          17.7118  -14.8595   25.0758 H         1 177401      0.0000 
     36 H          19.5213  -13.8849   23.7257 H         1 177401      0.0000 
     37 H          20.3415  -15.4553   23.6922 H         1 177401      0.0000 
     38 H          19.7859  -13.7478   26.1510 H         1 177401      0.0000 
     39 H          21.3615  -14.0387   25.3942 H         1 177401      0.0000 
     40 H          20.9709  -15.4436   27.4220 H         1 177401      0.0000 
     41 H          21.2713  -16.3969   25.9588 H         1 177401      0.0000 
     42 H          18.5706  -15.8379   27.2428 H         1 177401      0.0000 
     43 H          19.4314  -17.3862   27.2024 H         1 177401      0.0000 
     44 H          19.2668  -17.4407   24.7531 H         1 177401      0.0000 
     45 H          17.6571  -17.2973   25.4800 H         1 177401      0.0000 
     46 H          17.6859  -11.9038   21.4088 H         1 177401      0.0000 
     47 H          18.3514  -11.8242   19.2065 H         1 177401      0.0000 
     48 H          17.7111  -13.4439   18.8798 H         1 177401      0.0000 
     49 H          20.0242  -12.7212   20.6274 H         1 177401      0.0000 
     50 H          20.0335  -13.7880   19.2125 H         1 177401      0.0000 
     51 H          18.7404  -15.3800   20.2752 H         1 177401      0.0000 
     52 H          19.7406  -14.7909   21.6141 H         1 177401      0.0000 
     53 H          15.7448  -10.7739   21.2563 H         1 177401      0.0000 
     54 H          13.4226  -12.1941   19.9311 H         1 177401      0.0000 
     55 H          13.6448  -10.4424   20.0804 H         1 177401      0.0000 
     56 H          10.6660  -13.2270   23.4431 H         1 177401      0.0000 
     57 H          10.6291  -11.2816   24.8898 H         1 177401      0.0000 
     58 H          13.5790   -9.4747   22.5010 H         1 177401      0.0000 
     59 H          12.4667  -14.7028   23.2920 H         1 177401      0.0000 
     60 H          14.0189  -14.5812   22.4460 H         1 177401      0.0000 
     61 H          12.5817  -15.2049   19.7782 H         1 177401      0.0000 
     62 H          12.9872  -18.0881   19.8217 H         1 177401      0.0000 
     63 H          12.3225  -17.1036   18.5069 H         1 177401      0.0000 
     64 H          16.8299  -17.6436   23.7150 H         1 177401      0.0000 
     65 H          15.8294  -16.4003   23.9133 H         1 177401      0.0000 
     66 H          16.1043  -16.9841   22.4403 H         1 177401      0.0000 
     67 H          10.6598  -18.6717   19.3617 H         1 177401      0.0000 
     68 H          10.7529  -18.0763   20.8527 H         1 177401      0.0000 
     69 H          10.1485  -17.1773   19.6642 H         1 177401      0.0000 
@<TRIPOS>BOND
     1    2    1 1    
     2   64    1 1    
     3   65    1 1    
     4   66    1 1    
     5    3    2 1    
     6    9    2 1    
     7   34    2 1    
     8    4    3 1    
     9    8    3 1    
    10   35    3 1    
    11    5    4 1    
    12   36    4 1    
    13   37    4 1    
    14    6    5 1    
    15   38    5 1    
    16   39    5 1    
    17    7    6 1    
    18   40    6 1    
    19   41    6 1    
    20    8    7 1    
    21   42    7 1    
    22   43    7 1    
    23   44    8 1    
    24   45    8 1    
    25   10    9 2    
    26   11    9 am   
    27   12   11 1    
    28   17   11 1    
    29   13   12 1    
    30   15   12 1    
    31   46   12 1    
    32   14   13 2    
    33   18   13 am   
    34   16   15 1    
    35   47   15 1    
    36   48   15 1    
    37   17   16 1    
    38   49   16 1    
    39   50   16 1    
    40   51   17 1    
    41   52   17 1    
    42   19   18 1    
    43   53   18 1    
    44   20   19 1    
    45   54   19 1    
    46   55   19 1    
    47   21   20 ar   
    48   25   20 ar   
    49   22   21 ar   
    50   27   21 1    
    51   23   22 ar   
    52   56   22 1    
    53   24   23 ar   
    54   57   23 1    
    55   25   24 ar   
    56   26   24 1    
    57   58   25 1    
    58   28   27 1    
    59   29   28 1    
    60   59   28 1    
    61   60   28 1    
    62   30   29 2    
    63   31   29 am   
    64   32   31 1    
    65   61   31 1    
    66   33   32 1    
    67   62   32 1    
    68   63   32 1    
    69   67   33 1    
    70   68   33 1    
    71   69   33 1    
@<TRIPOS>SUBSTRUCTURE
     1 177401      1 GROUP   
@<TRIPOS>SET

