#    Name: 1c8t_TR1_2_INTS_M
#    Modification time : Mon Mar 24 20:26:28 2014

@<TRIPOS>MOLECULE
1c8t_TR1_2_INTS_M
   73     0     9     0     0
SMALL
NO_CHARGES


@<TRIPOS>ATOM
      1 CA        -13.5625   -7.1150    3.1100 C.3       3 GLC5        0.0000 
      2 CA        -12.4140   -8.8960    3.0650 C.3       9 GLL5        0.0000 
      3 CA        -14.7110   -5.3340    3.1550 C.3       6 GLP5        0.0000 
      4 N         -12.8285  -12.3040    1.4080 N.am      2 SEC2        0.0000 
      5 N         -12.5960  -11.1830    2.4960 N.am      8 SEL2        0.0000 
      6 N         -13.0610  -13.4250    0.3200 N.am      5 SEP2        0.0000 
      7 CA        -19.2605   -4.1940    8.5375 C.3       3 GLC5        0.0000 
      8 CA        -19.7680   -6.1400    8.8090 C.3       9 GLL5        0.0000 
      9 CA        -18.7530   -2.2480    8.2660 C.3       6 GLP5        0.0000 
     10 CA        -17.6355   -5.8835    3.9275 C.3       3 GLC5        0.0000 
     11 CA        -18.2840   -7.6630    4.4610 C.3       9 GLL5        0.0000 
     12 CA        -16.9870   -4.1040    3.3940 C.3       6 GLP5        0.0000 
     13 CA        -14.7850   -7.0355    3.1250 C.3       3 GLC5        0.0000 
     14 CA        -14.8590   -8.7370    3.0950 C.3       9 GLL5        0.0000 
     15 CA        -10.8230   -6.8950    0.1670 C.3       3 GLC5        0.0000 
     16 CA        -11.1930   -6.5250    2.3470 C.3       9 GLL5        0.0000 
     17 CA        -10.4530   -7.2650   -2.0130 C.3       6 GLP5        0.0000 
     18 CA        -12.9520   -5.9295    2.7510 C.3       3 GLC5        0.0000 
     19 CA        -11.4180   -4.8410    2.0755 C.3       3 GLC5        0.0000 
     20 CA        -11.6430   -3.1570    1.8040 C.3       6 GLP5        0.0000 
     21 O         -12.4620  -10.0415    6.0000 O.2       1 ALC1        0.0000 
     22 O         -12.5180  -10.7720    4.6950 O.2       7 ALL1        0.0000 
     23 O         -12.4060   -9.3110    7.3050 O.2       4 ALP1        0.0000 
     24 CA        -14.0440  -12.7820    3.3865 C.3       3 GLC5        0.0000 
     25 CA        -12.5700  -12.2100    4.8130 C.3       9 GLL5        0.0000 
     26 CA        -15.5180  -13.3540    1.9600 C.3       6 GLP5        0.0000 
     27 N         -15.4195  -11.7175    6.8660 N.am      2 SEC2        0.0000 
     28 N         -14.6320  -12.4410    6.0670 N.am      8 SEL2        0.0000 
     29 N         -16.2070  -10.9940    7.6650 N.am      5 SEP2        0.0000 
     30 O         -12.9135  -14.9445    4.1285 O.2       1 ALC1        0.0000 
     31 O         -13.5480  -14.2670    5.2590 O.2       7 ALL1        0.0000 
     32 O         -12.2790  -15.6220    2.9980 O.2       4 ALP1        0.0000 
     33 CA        -12.3850  -16.4670    4.4400 C.3       3 GLC5        0.0000 
     34 CA        -13.9520  -15.5550    5.5930 C.3       9 GLL5        0.0000 
     35 CA        -10.8180  -17.3790    3.2870 C.3       6 GLP5        0.0000 
     36 CA        -14.9685  -15.1590    3.6445 C.3       3 GLC5        0.0000 
     37 CA        -15.9850  -14.7630    1.6960 C.3       6 GLP5        0.0000 
     38 CA        -14.2160  -12.9225    9.0405 C.3       3 GLC5        0.0000 
     39 CA        -14.4650  -14.4070    7.8870 C.3       9 GLL5        0.0000 
     40 CA        -13.9670  -11.4380   10.1940 C.3       6 GLP5        0.0000 
     41 CA        -16.6785  -15.6500    3.0100 C.3       3 GLC5        0.0000 
     42 CA        -17.3720  -16.5370    4.3240 C.3       9 GLL5        0.0000 
     43 CA        -18.0775   -9.1610    6.7670 C.3       3 GLC5        0.0000 
     44 CA        -19.0560   -7.1840    6.7330 C.3       9 GLL5        0.0000 
     45 CA        -17.6090  -10.9500    7.2480 C.3       6 GLP5        0.0000 
     46 CA        -21.8815   -7.2930    5.0920 C.3       3 GLC5        0.0000 
     47 CA        -20.3840   -7.4520    6.4380 C.3       9 GLL5        0.0000 
     48 CA        -22.8650   -7.3210    3.3160 C.3       6 GLP5        0.0000 
     49 CA        -19.7765   -5.0343    6.5441 C.3       3 GLC5        0.0000 
     50 CA        -20.3240   -3.1620    5.8350 C.3       6 GLP5        0.0000 
     51 CA        -20.7910   -4.9578    6.8655 C.3       3 GLC5        0.0000 
     52 CA        -21.4120   -7.0780    7.2980 C.3       9 GLL5        0.0000 
     53 CA        -21.2715   -7.4864    9.8492 C.3       3 GLC5        0.0000 
     54 CA        -21.1040   -6.4290    8.4940 C.3       9 GLL5        0.0000 
     55 CA        -22.0300   -8.5260   11.3460 C.3       6 GLP5        0.0000 
     56 CA        -16.0117  -10.5587    3.1520 C.3       3 GLC5        0.0000 
     57 CA        -16.0240   -8.3280    4.0290 C.3       9 GLL5        0.0000 
     58 CA        -16.5820  -12.5850    2.7420 C.3       6 GLP5        0.0000 
     59 CA        -16.3657   -8.5463    1.6665 C.3       3 GLC5        0.0000 
     60 CA        -17.2900   -8.5600   -0.2290 C.3       6 GLP5        0.0000 
     61 CA        -18.4737   -7.5282    2.3967 C.3       3 GLC5        0.0000 
     62 CA        -17.3050   -8.0620    3.5400 C.3       9 GLL5        0.0000 
     63 CA        -19.1530   -7.1940    0.7930 C.3       6 GLP5        0.0000 
     64 CA        -15.4641   -6.7657    3.8741 C.3       3 GLC5        0.0000 
     65 CA        -16.9340   -9.4850    6.5550 C.3       3 GLC5        0.0000 
     66 CA        -15.7700   -8.2000    5.4020 C.3       9 GLL5        0.0000 
     67 CA        -17.6436   -9.7250    4.9789 C.3       3 GLC5        0.0000 
     68 CA        -17.8130  -11.5210    5.8350 C.3       6 GLP5        0.0000 
     69 CA        -16.5305   -6.1730    4.9478 C.3       3 GLC5        0.0000 
     70 CA        -18.0360   -7.5600    5.8390 C.3       9 GLL5        0.0000 
     71 CA        -15.6690   -4.6460    3.8150 C.3       6 GLP5        0.0000 
     72 CA         -9.6805   -7.6153    2.0055 C.3       3 GLC5        0.0000 
     73 CA         -8.2260   -7.8860    1.2680 C.3       6 GLP5        0.0000 
@<TRIPOS>BOND
@<TRIPOS>SUBSTRUCTURE
     1 ALC1       21 GROUP        1 X    ALC  0     ROOT ALC X 1
     2 SEC2        4 GROUP        1 X    SEC  0     **** SEC X 2
     3 GLC5        1 GROUP        1 X    GLC  0     **** GLC X 6
     4 ALP1       23 GROUP        1 Y    ALP  0     ROOT ALP Y 8
     5 SEP2        6 GROUP        1 Y    SEP  0     **** SEP Y 9
     6 GLP5        3 GROUP        1 Y    GLP  0     **** GLP Y 13
     7 ALL1       22 GROUP        1 Z    ALL  0     ROOT ALL Z 15
     8 SEL2        5 GROUP        1 Z    SEL  0     **** SEL Z 16
     9 GLL5        2 GROUP        1 Z    GLL  0     **** GLL Z 20
@<TRIPOS>SET

