#    Name: 1c8t_TR1_2_ligand
#    Modification time : Mon Mar 24 20:26:28 2014

@<TRIPOS>MOLECULE
1c8t_TR1_2_ligand
   61    62     1     0     0
SMALL
NO_CHARGES


@<TRIPOS>ATOM
      1 N         -13.5910   -8.2830    3.7650 N.4       1 TR1265      0.0000 
      2 CA        -12.4140   -8.8960    3.0650 C.3       1 TR1265      0.0000 
      3 C         -12.4550  -10.3550    3.3860 C.2       1 TR1265      0.0000 
      4 O         -12.5960  -11.1830    2.4960 O.2       1 TR1265      0.0000 
      5 C41       -19.0560   -7.1840    6.7330 C.ar      1 TR1265      0.0000 
      6 C42       -20.3840   -7.4520    6.4380 C.ar      1 TR1265      0.0000 
      7 C43       -18.7380   -6.4950    7.9210 C.ar      1 TR1265      0.0000 
      8 C44       -21.4120   -7.0780    7.2980 C.ar      1 TR1265      0.0000 
      9 C45       -19.7680   -6.1400    8.8090 C.ar      1 TR1265      0.0000 
     10 C46       -21.1040   -6.4290    8.4940 C.ar      1 TR1265      0.0000 
     11 C47       -16.0240   -8.3280    4.0290 C.ar      1 TR1265      0.0000 
     12 C48       -17.3050   -8.0620    3.5400 C.ar      1 TR1265      0.0000 
     13 C49       -15.7700   -8.2000    5.4020 C.ar      1 TR1265      0.0000 
     14 C50       -18.2840   -7.6630    4.4610 C.ar      1 TR1265      0.0000 
     15 C51       -16.7480   -7.8400    6.3220 C.ar      1 TR1265      0.0000 
     16 C52       -18.0360   -7.5600    5.8390 C.ar      1 TR1265      0.0000 
     17 CM2       -14.8590   -8.7370    3.0950 C.3       1 TR1265      0.0000 
     18 CB        -11.0770   -8.1640    3.1390 C.3       1 TR1265      0.0000 
     19 SG        -11.1930   -6.5250    2.3470 S.3       1 TR1265      0.0000 
     20 N2        -12.5180  -10.7720    4.6950 N.am      1 TR1265      0.0000 
     21 CA2       -12.5700  -12.2100    4.8130 C.3       1 TR1265      0.0000 
     22 C2        -13.7010  -12.9540    5.4660 C.2       1 TR1265      0.0000 
     23 O2        -14.6320  -12.4410    6.0670 O.2       1 TR1265      0.0000 
     24 N3        -13.5480  -14.2670    5.2590 N.am      1 TR1265      0.0000 
     25 CA3       -13.9520  -15.5550    5.5930 C.3       1 TR1265      0.0000 
     26 CB3       -13.7390  -15.5710    7.1660 C.3       1 TR1265      0.0000 
     27 CG1       -14.4650  -14.4070    7.8870 C.3       1 TR1265      0.0000 
     28 CG2       -13.8390  -16.8860    7.9730 C.3       1 TR1265      0.0000 
     29 C3        -15.1750  -16.2420    5.1180 C.2       1 TR1265      0.0000 
     30 O3        -15.0830  -17.4240    4.8080 O.2       1 TR1265      0.0000 
     31 OE        -16.4150  -15.7170    5.0440 O.3       1 TR1265      0.0000 
     32 CM3       -17.3720  -16.5370    4.3240 C.3       1 TR1265      0.0000 
     33 H         -12.7291   -8.8581    1.9356 H         1 TR1265      0.0000 
     34 H         -20.6198   -7.9445    5.5528 H         1 TR1265      0.0000 
     35 H         -17.7706   -6.2576    8.1321 H         1 TR1265      0.0000 
     36 H         -22.3866   -7.2766    7.0567 H         1 TR1265      0.0000 
     37 H         -19.5406   -5.6677    9.6906 H         1 TR1265      0.0000 
     38 H         -21.8504   -6.1624    9.1437 H         1 TR1265      0.0000 
     39 H         -17.5209   -8.1531    2.5585 H         1 TR1265      0.0000 
     40 H         -14.7977   -8.3851    5.7451 H         1 TR1265      0.0000 
     41 H         -19.2392   -7.4323    4.1074 H         1 TR1265      0.0000 
     42 H         -16.5440   -7.7798    7.3115 H         1 TR1265      0.0000 
     43 H         -14.8646   -9.8030    2.9838 H         1 TR1265      0.0000 
     44 H         -14.9837   -8.2429    2.1520 H         1 TR1265      0.0000 
     45 H         -10.3005   -8.6285    2.5793 H         1 TR1265      0.0000 
     46 H         -10.7777   -7.9135    4.1288 H         1 TR1265      0.0000 
     47 H         -12.5282  -10.1952    5.4745 H         1 TR1265      0.0000 
     48 H         -11.5945  -12.5791    5.3199 H         1 TR1265      0.0000 
     49 H         -12.4305  -12.6768    3.7606 H         1 TR1265      0.0000 
     50 H         -12.6710  -14.4061    4.4028 H         1 TR1265      0.0000 
     51 H         -13.0400  -16.2548    5.2888 H         1 TR1265      0.0000 
     52 H         -12.6017  -15.2539    7.2856 H         1 TR1265      0.0000 
     53 H         -14.3195  -14.4344    8.8760 H         1 TR1265      0.0000 
     54 H         -14.1444  -13.5151    7.5682 H         1 TR1265      0.0000 
     55 H         -15.4530  -14.4347    7.7352 H         1 TR1265      0.0000 
     56 H         -13.1669  -17.5608    7.6682 H         1 TR1265      0.0000 
     57 H         -13.6815  -16.7357    8.9490 H         1 TR1265      0.0000 
     58 H         -14.7406  -17.3091    7.8834 H         1 TR1265      0.0000 
     59 H         -17.0879  -16.6958    3.3785 H         1 TR1265      0.0000 
     60 H         -17.4870  -17.4343    4.7501 H         1 TR1265      0.0000 
     61 H         -18.2758  -16.1104    4.2907 H         1 TR1265      0.0000 
@<TRIPOS>BOND
     1    2    1 1    
     2   17    1 1    
     3    3    2 1    
     4   18    2 1    
     5   33    2 1    
     6    4    3 2    
     7   20    3 am   
     8    6    5 ar   
     9    7    5 ar   
    10   16    5 1    
    11    8    6 ar   
    12   34    6 1    
    13    9    7 ar   
    14   35    7 1    
    15   10    8 ar   
    16   36    8 1    
    17   10    9 ar   
    18   37    9 1    
    19   38   10 1    
    20   12   11 ar   
    21   13   11 ar   
    22   17   11 1    
    23   14   12 ar   
    24   39   12 1    
    25   15   13 ar   
    26   40   13 1    
    27   16   14 ar   
    28   41   14 1    
    29   16   15 ar   
    30   42   15 1    
    31   43   17 1    
    32   44   17 1    
    33   19   18 1    
    34   45   18 1    
    35   46   18 1    
    36   21   20 1    
    37   47   20 1    
    38   22   21 1    
    39   48   21 1    
    40   49   21 1    
    41   23   22 2    
    42   24   22 am   
    43   25   24 1    
    44   50   24 1    
    45   26   25 1    
    46   29   25 1    
    47   51   25 1    
    48   27   26 1    
    49   28   26 1    
    50   52   26 1    
    51   53   27 1    
    52   54   27 1    
    53   55   27 1    
    54   56   28 1    
    55   57   28 1    
    56   58   28 1    
    57   30   29 2    
    58   31   29 1    
    59   32   31 1    
    60   59   32 1    
    61   60   32 1    
    62   61   32 1    
@<TRIPOS>SUBSTRUCTURE
     1 TR1265      1 GROUP   
@<TRIPOS>SET

