#    Name: 1xdu_SFG_1_INTS_M
#    Modification time : Tue Mar 25 09:48:04 2014

@<TRIPOS>MOLECULE
1xdu_SFG_1_INTS_M
   59     0     9     0     0
SMALL
NO_CHARGES


@<TRIPOS>ATOM
      1 O           6.8520   59.6720   44.9910 O.2       1 ALC1        0.0000 
      2 O           6.3560   58.3260   45.0260 O.2       7 ALL1        0.0000 
      3 O           7.3480   61.0180   44.9560 O.2       4 ALP1        0.0000 
      4 O           7.0500   57.4705   45.6800 O.2       1 ALC1        0.0000 
      5 O           7.7440   56.6150   46.3340 O.2       4 ALP1        0.0000 
      6 CA          5.6865   59.5260   44.3275 C.3       3 GLC5        0.0000 
      7 CA          6.8220   57.8320   43.7380 C.3       9 GLL5        0.0000 
      8 CA          4.5510   61.2200   44.9170 C.3       6 GLP5        0.0000 
      9 CA          6.2000   59.3540   42.5065 C.3       3 GLC5        0.0000 
     10 CA          5.5780   60.8760   41.2750 C.3       6 GLP5        0.0000 
     11 N           5.2615   55.4420   45.3220 N.am      2 SEC2        0.0000 
     12 N           5.2990   56.0460   44.0730 N.am      8 SEL2        0.0000 
     13 N           5.2240   54.8380   46.5710 N.am      5 SEP2        0.0000 
     14 CA          8.9230   56.0480   44.4755 C.3       3 GLC5        0.0000 
     15 CA          8.3540   57.9220   43.6880 C.3       9 GLL5        0.0000 
     16 CA          9.4920   54.1740   45.2630 C.3       6 GLP5        0.0000 
     17 CA          8.9575   58.6675   45.5590 C.3       3 GLC5        0.0000 
     18 CA          9.5610   59.4130   47.4300 C.3       6 GLP5        0.0000 
     19 CA          7.2355   59.5725   41.7890 C.3       3 GLC5        0.0000 
     20 CA          8.8930   58.2690   42.3030 C.3       9 GLL5        0.0000 
     21 CA         10.2325   59.5390   45.2940 C.3       3 GLC5        0.0000 
     22 CA         10.9040   59.6650   43.1580 C.3       9 GLL5        0.0000 
     23 O           8.4395   62.1535   41.5430 O.2       1 ALC1        0.0000 
     24 O           9.1630   61.2900   40.7220 O.2       7 ALL1        0.0000 
     25 O           7.7160   63.0170   42.3640 O.2       4 ALP1        0.0000 
     26 O           9.0635   64.2985   40.9540 O.2       1 ALC1        0.0000 
     27 O          10.0830   63.7040   40.6160 O.2       7 ALL1        0.0000 
     28 O           8.0440   64.8930   41.2920 O.2       4 ALP1        0.0000 
     29 CA          9.2010   63.2310   44.4180 C.3       3 GLC5        0.0000 
     30 CA         10.7720   63.2720   42.9300 C.3       9 GLL5        0.0000 
     31 CA          7.6300   63.1900   45.9060 C.3       6 GLP5        0.0000 
     32 CA         11.2100   63.6925   44.9215 C.3       3 GLC5        0.0000 
     33 CA         11.6480   64.1130   46.9130 C.3       6 GLP5        0.0000 
     34 CA         12.6760   66.5340   42.3715 C.3       3 GLC5        0.0000 
     35 CA         13.0620   65.9120   44.1620 C.3       9 GLL5        0.0000 
     36 CA         12.2900   67.1560   40.5810 C.3       6 GLP5        0.0000 
     37 CA         12.1525   68.0110   43.5210 C.3       3 GLC5        0.0000 
     38 CA         13.0550   67.1890   44.9100 C.3       9 GLL5        0.0000 
     39 CA         11.2500   68.8330   42.1320 C.3       6 GLP5        0.0000 
     40 O          14.0070   69.0015   45.9065 O.2       1 ALC1        0.0000 
     41 O          14.2280   67.8230   45.1150 O.2       7 ALL1        0.0000 
     42 O          13.7860   70.1800   46.6980 O.2       4 ALP1        0.0000 
     43 N          11.4760   68.3640   46.7140 N.am      2 SEC2        0.0000 
     44 N          11.8810   67.6870   45.3760 N.am      8 SEL2        0.0000 
     45 N          11.0710   69.0410   48.0520 N.am      5 SEP2        0.0000 
     46 CA         10.9710   67.9530   43.6580 C.3       3 GLC5        0.0000 
     47 CA         10.6920   67.0730   45.1840 C.3       9 GLL5        0.0000 
     48 CA         10.9050   69.0260   45.8640 C.3       3 GLC5        0.0000 
     49 CA         11.1180   70.9790   46.5440 C.3       6 GLP5        0.0000 
     50 CA         10.5650   66.9820   47.2045 C.3       3 GLC5        0.0000 
     51 CA         10.4380   66.8910   49.2250 C.3       6 GLP5        0.0000 
     52 CA         11.3785   66.5005   42.5585 C.3       3 GLC5        0.0000 
     53 CA         11.7680   65.2980   43.9820 C.3       9 GLL5        0.0000 
     54 CA         10.9890   67.7030   41.1350 C.3       6 GLP5        0.0000 
     55 CA         12.1167   58.8885   41.5143 C.3       3 GLC5        0.0000 
     56 CA         13.5740   58.7020   40.3040 C.3       6 GLP5        0.0000 
     57 CA         11.7942   61.6162   40.1867 C.3       3 GLC5        0.0000 
     58 CA         10.3900   61.4160   41.4250 C.3       9 GLL5        0.0000 
     59 CA         12.9720   61.0940   38.9300 C.3       6 GLP5        0.0000 
@<TRIPOS>BOND
@<TRIPOS>SUBSTRUCTURE
     1 ALC1        1 GROUP        1 X    ALC  0     ROOT ALC X 1
     2 SEC2       11 GROUP        1 X    SEC  0     **** SEC X 2
     3 GLC5        6 GROUP        1 X    GLC  0     **** GLC X 6
     4 ALP1        3 GROUP        1 Y    ALP  0     ROOT ALP Y 8
     5 SEP2       13 GROUP        1 Y    SEP  0     **** SEP Y 9
     6 GLP5        8 GROUP        1 Y    GLP  0     **** GLP Y 13
     7 ALL1        2 GROUP        1 Z    ALL  0     ROOT ALL Z 15
     8 SEL2       12 GROUP        1 Z    SEL  0     **** SEL Z 16
     9 GLL5        7 GROUP        1 Z    GLL  0     **** GLL Z 20
@<TRIPOS>SET

