#    Name: 1xdu_SFG_1_ligand
#    Modification time : Tue Mar 25 09:48:04 2014

@<TRIPOS>MOLECULE
1xdu_SFG_1_ligand
   48    50     1     0     0
SMALL
NO_CHARGES


@<TRIPOS>ATOM
      1 N           6.3560   58.3260   45.0260 N.4       1 SFG5635     0.0000 
      2 CA          6.8220   57.8320   43.7380 C.3       1 SFG5635     0.0000 
      3 C           6.3530   56.4100   43.5690 C.2       1 SFG5635     0.0000 
      4 O           5.2990   56.0460   44.0730 O.co2     1 SFG5635     0.0000 
      5 OXT         7.0820   55.5380   42.8830 O.co2     1 SFG5635     0.0000 
      6 CB          8.3540   57.9220   43.6880 C.3       1 SFG5635     0.0000 
      7 CG          8.8930   58.2690   42.3030 C.3       1 SFG5635     0.0000 
      8 CD         10.4150   58.4850   42.2910 C.3       1 SFG5635     0.0000 
      9 NE         11.0740   57.2610   42.7160 N.3       1 SFG5635     0.0000 
     10 C5'        10.9040   59.6650   43.1580 C.3       1 SFG5635     0.0000 
     11 C4'        10.1680   60.9750   42.8610 C.3       1 SFG5635     0.0000 
     12 O4'        10.4910   62.0940   43.7090 O.3       1 SFG5635     0.0000 
     13 C3'        10.3900   61.4160   41.4250 C.3       1 SFG5635     0.0000 
     14 O3'         9.1630   61.2900   40.7220 O.3       1 SFG5635     0.0000 
     15 C2'        10.8430   62.8610   41.4620 C.3       1 SFG5635     0.0000 
     16 O2'        10.0830   63.7040   40.6160 O.3       1 SFG5635     0.0000 
     17 C1'        10.7720   63.2720   42.9300 C.3       1 SFG5635     0.0000 
     18 N9         11.8910   64.1590   43.3300 N.pl3     1 SFG5635     0.0000 
     19 C8         13.2090   64.0520   43.0570 C.2       1 SFG5635     0.0000 
     20 N7         13.9370   65.0970   43.5610 N.2       1 SFG5635     0.0000 
     21 C5         13.0620   65.9120   44.1620 C.ar      1 SFG5635     0.0000 
     22 C6         13.0550   67.1890   44.9100 C.ar      1 SFG5635     0.0000 
     23 N6         14.2280   67.8230   45.1150 N.pl3     1 SFG5635     0.0000 
     24 N1         11.8810   67.6870   45.3760 N.ar      1 SFG5635     0.0000 
     25 C2         10.6920   67.0730   45.1840 C.ar      1 SFG5635     0.0000 
     26 N3         10.5750   65.9080   44.5150 N.ar      1 SFG5635     0.0000 
     27 C4         11.7680   65.2980   43.9820 C.ar      1 SFG5635     0.0000 
     28 H           6.4204   58.4334   42.9417 H         1 SFG5635     0.0000 
     29 H           8.7758   56.9594   44.0083 H         1 SFG5635     0.0000 
     30 H           8.6874   58.6839   44.4060 H         1 SFG5635     0.0000 
     31 H           8.4037   59.1822   41.9432 H         1 SFG5635     0.0000 
     32 H           8.6455   57.4595   41.6057 H         1 SFG5635     0.0000 
     33 H          10.7090   58.6981   41.2515 H         1 SFG5635     0.0000 
     34 H          11.9773   59.8075   42.9849 H         1 SFG5635     0.0000 
     35 H          10.7663   59.4059   44.2145 H         1 SFG5635     0.0000 
     36 H           9.0759   60.7648   42.9401 H         1 SFG5635     0.0000 
     37 H          11.1659   60.8180   41.0065 H         1 SFG5635     0.0000 
     38 H          11.9067   62.8638   41.1932 H         1 SFG5635     0.0000 
     39 H           9.8150   63.9201   42.9635 H         1 SFG5635     0.0000 
     40 H          13.6140   63.3060   42.5502 H         1 SFG5635     0.0000 
     41 H          15.0418   67.2429   45.1480 H         1 SFG5635     0.0000 
     42 H          14.1793   68.8167   45.2157 H         1 SFG5635     0.0000 
     43 H           9.8178   67.5264   45.5754 H         1 SFG5635     0.0000 
     44 H           6.7118   57.7796   45.7842 H         1 SFG5635     0.0000 
     45 H           6.6412   59.2709   45.1866 H         1 SFG5635     0.0000 
     46 H           5.3584   58.3055   45.0928 H         1 SFG5635     0.0000 
     47 H           8.5101   61.8426   41.2400 H         1 SFG5635     0.0000 
     48 H           9.6574   64.3697   41.2288 H         1 SFG5635     0.0000 
@<TRIPOS>BOND
     1    2    1 1    
     2   44    1 1    
     3   45    1 1    
     4   46    1 1    
     5    3    2 1    
     6    6    2 1    
     7   28    2 1    
     8    4    3 ar   
     9    5    3 ar   
    10    7    6 1    
    11   29    6 1    
    12   30    6 1    
    13    8    7 1    
    14   31    7 1    
    15   32    7 1    
    16    9    8 1    
    17   10    8 1    
    18   33    8 1    
    19   11   10 1    
    20   34   10 1    
    21   35   10 1    
    22   12   11 1    
    23   13   11 1    
    24   36   11 1    
    25   17   12 1    
    26   14   13 1    
    27   15   13 1    
    28   37   13 1    
    29   47   14 1    
    30   16   15 1    
    31   17   15 1    
    32   38   15 1    
    33   48   16 1    
    34   18   17 1    
    35   39   17 1    
    36   19   18 1    
    37   27   18 1    
    38   20   19 2    
    39   40   19 1    
    40   21   20 1    
    41   22   21 ar   
    42   27   21 ar   
    43   23   22 1    
    44   24   22 ar   
    45   41   23 1    
    46   42   23 1    
    47   25   24 ar   
    48   26   25 ar   
    49   43   25 1    
    50   27   26 ar   
@<TRIPOS>SUBSTRUCTURE
     1 SFG5635     1 GROUP   
@<TRIPOS>SET

