#    Name: 2a7x_AMP_1_INTS_M
#    Modification time : Mon Mar 24 18:36:35 2014

@<TRIPOS>MOLECULE
2a7x_AMP_1_INTS_M
   59     0     9     0     0
SMALL
NO_CHARGES


@<TRIPOS>ATOM
      1 N          -3.3055    0.7220   29.5510 N.am      2 SEC2        0.0000 
      2 N          -2.8570    0.3450   28.2090 N.am      8 SEL2        0.0000 
      3 N          -3.7540    1.0990   30.8930 N.am      5 SEP2        0.0000 
      4 N          -1.9835    1.2280   27.4610 N.am      2 SEC2        0.0000 
      5 N          -1.1100    2.1110   26.7130 N.am      5 SEP2        0.0000 
      6 CA         -4.8935    2.2810   28.2255 C.3       3 GLC5        0.0000 
      7 CA         -4.7970    1.6290   26.4160 C.3       9 GLL5        0.0000 
      8 CA         -4.9900    2.9330   30.0350 C.3       6 GLP5        0.0000 
      9 N          -7.6650    2.5135   22.5635 N.am      2 SEC2        0.0000 
     10 N          -7.3820    2.0680   23.9010 N.am      8 SEL2        0.0000 
     11 N          -7.9480    2.9590   21.2260 N.am      5 SEP2        0.0000 
     12 O          -7.8615    2.8540   24.8700 O.2       1 ALC1        0.0000 
     13 O          -7.3820    2.0680   23.9010 O.2       7 ALL1        0.0000 
     14 O          -8.3410    3.6400   25.8390 O.2       4 ALP1        0.0000 
     15 N          -7.0590    1.6445   21.7080 N.am      2 SEC2        0.0000 
     16 N          -6.1700    0.3300   22.1900 N.am      8 SEL2        0.0000 
     17 O          -5.8650   -0.9260   22.3975 O.2       1 ALC1        0.0000 
     18 O          -6.1700    0.3300   22.1900 O.2       7 ALL1        0.0000 
     19 O          -5.5600   -2.1820   22.6050 O.2       4 ALP1        0.0000 
     20 CA         -5.3870    3.8325   23.2865 C.3       3 GLC5        0.0000 
     21 CA         -4.5960    2.0650   23.0470 C.3       9 GLL5        0.0000 
     22 CA         -6.1780    5.6000   23.5260 C.3       6 GLP5        0.0000 
     23 CA         -1.4885    0.9550   17.5115 C.3       3 GLC5        0.0000 
     24 CA         -1.2900    1.7300   19.5140 C.3       9 GLL5        0.0000 
     25 CA         -1.6870    0.1800   15.5090 C.3       6 GLP5        0.0000 
     26 CA         -0.1685    3.1625   18.3965 C.3       3 GLC5        0.0000 
     27 CA          0.9530    4.5950   17.2790 C.3       6 GLP5        0.0000 
     28 O           0.6695    1.3960   17.8555 O.2       1 ALC1        0.0000 
     29 O          -0.1250    1.1440   19.1210 O.2       7 ALL1        0.0000 
     30 O           1.4640    1.6480   16.5900 O.2       4 ALP1        0.0000 
     31 O           0.5205    0.0135   19.7145 O.2       1 ALC1        0.0000 
     32 O           1.1660   -1.1170   20.3080 O.2       4 ALP1        0.0000 
     33 N          -1.4105    2.9185   17.4585 N.am      2 SEC2        0.0000 
     34 N          -1.9990    2.5910   18.7320 N.am      8 SEL2        0.0000 
     35 N          -0.8220    3.2460   16.1850 N.am      5 SEP2        0.0000 
     36 CA         -1.3365    3.8065   20.0440 C.3       3 GLC5        0.0000 
     37 CA         -3.1970    3.1560   19.0870 C.3       9 GLL5        0.0000 
     38 CA          0.5240    4.4570   21.0010 C.3       6 GLP5        0.0000 
     39 CA         -4.0620    4.5425   20.2285 C.3       3 GLC5        0.0000 
     40 CA         -4.9270    5.9290   21.3700 C.3       6 GLP5        0.0000 
     41 CA         -5.1760    2.9565   19.5665 C.3       3 GLC5        0.0000 
     42 CA         -7.1550    2.7570   20.0460 C.3       6 GLP5        0.0000 
     43 CA         -3.6150    1.1135   19.1270 C.3       3 GLC5        0.0000 
     44 CA         -4.0330   -0.9290   19.1670 C.3       6 GLP5        0.0000 
     45 CA         -3.0735    2.7550   17.2670 C.3       3 GLC5        0.0000 
     46 CA         -2.9500    2.3540   15.4470 C.3       6 GLP5        0.0000 
     47 CA         -1.5840    4.4810   18.3315 C.3       3 GLC5        0.0000 
     48 CA          0.0290    5.8060   17.5760 C.3       6 GLP5        0.0000 
     49 CA         -3.9995    3.9985   21.2765 C.3       3 GLC5        0.0000 
     50 CA         -3.0720    2.0680   21.1830 C.3       9 GLL5        0.0000 
     51 CA         -5.1135    2.4125   20.6145 C.3       3 GLC5        0.0000 
     52 CA         -3.3777    2.6363   26.0858 C.3       3 GLC5        0.0000 
     53 CA         -5.4360    2.2400   25.1870 C.3       9 GLL5        0.0000 
     54 CA         -1.6390    3.3380   26.3700 C.3       6 GLP5        0.0000 
     55 CA         -6.0275    3.6760   24.1752 C.3       3 GLC5        0.0000 
     56 CA         -6.0823    2.0915   21.6180 C.3       3 GLC5        0.0000 
     57 CA         -0.8922    3.1407   20.8414 C.3       3 GLC5        0.0000 
     58 CA         -1.8000    1.4320   20.8470 C.3       9 GLL5        0.0000 
     59 CA         -3.1707    0.4477   19.9244 C.3       3 GLC5        0.0000 
@<TRIPOS>BOND
@<TRIPOS>SUBSTRUCTURE
     1 ALC1       12 GROUP        1 X    ALC  0     ROOT ALC X 1
     2 SEC2        1 GROUP        1 X    SEC  0     **** SEC X 2
     3 GLC5        6 GROUP        1 X    GLC  0     **** GLC X 6
     4 ALP1       14 GROUP        1 Y    ALP  0     ROOT ALP Y 8
     5 SEP2        3 GROUP        1 Y    SEP  0     **** SEP Y 9
     6 GLP5        8 GROUP        1 Y    GLP  0     **** GLP Y 13
     7 ALL1       13 GROUP        1 Z    ALL  0     ROOT ALL Z 15
     8 SEL2        2 GROUP        1 Z    SEL  0     **** SEL Z 16
     9 GLL5        7 GROUP        1 Z    GLL  0     **** GLL Z 20
@<TRIPOS>SET

