#    Name: 2a7x_AMP_1_ligand
#    Modification time : Mon Mar 24 18:36:35 2014

@<TRIPOS>MOLECULE
2a7x_AMP_1_ligand
   35    37     1     0     0
SMALL
NO_CHARGES


@<TRIPOS>ATOM
      1 P          -3.7200   -0.5580   27.2970 P.3       1 AMP501      0.0000 
      2 O1P        -2.9900   -1.6000   26.5270 O.co2     1 AMP501      0.0000 
      3 O2P        -2.8570    0.3450   28.2090 O.co2     1 AMP501      0.0000 
      4 O3P        -5.0470   -0.8450   27.9920 O.co2     1 AMP501      0.0000 
      5 O5'        -4.1510    0.3980   26.0750 O.3       1 AMP501      0.0000 
      6 C5'        -4.7970    1.6290   26.4160 C.3       1 AMP501      0.0000 
      7 C4'        -5.4360    2.2400   25.1870 C.3       1 AMP501      0.0000 
      8 O4'        -4.3160    2.5690   24.3250 O.3       1 AMP501      0.0000 
      9 C3'        -6.3180    1.2640   24.4620 C.3       1 AMP501      0.0000 
     10 O3'        -7.3820    2.0680   23.9010 O.3       1 AMP501      0.0000 
     11 C2'        -5.4230    0.7870   23.3330 C.3       1 AMP501      0.0000 
     12 O2'        -6.1700    0.3300   22.1900 O.3       1 AMP501      0.0000 
     13 C1'        -4.5960    2.0650   23.0470 C.3       1 AMP501      0.0000 
     14 N9         -3.3500    1.6500   22.4010 N.pl3     1 AMP501      0.0000 
     15 C8         -2.3810    0.8300   22.8590 C.2       1 AMP501      0.0000 
     16 N7         -1.4010    0.6800   21.9170 N.2       1 AMP501      0.0000 
     17 C5         -1.8000    1.4320   20.8470 C.ar      1 AMP501      0.0000 
     18 C6         -1.2900    1.7300   19.5140 C.ar      1 AMP501      0.0000 
     19 N6         -0.1250    1.1440   19.1210 N.pl3     1 AMP501      0.0000 
     20 N1         -1.9990    2.5910   18.7320 N.ar      1 AMP501      0.0000 
     21 C2         -3.1970    3.1560   19.0870 C.ar      1 AMP501      0.0000 
     22 N3         -3.7030    2.8900   20.3100 N.ar      1 AMP501      0.0000 
     23 C4         -3.0720    2.0680   21.1830 C.ar      1 AMP501      0.0000 
     24 H          -4.0836    2.3563   26.8272 H         1 AMP501      0.0000 
     25 H          -5.5826    1.4751   27.1685 H         1 AMP501      0.0000 
     26 H          -5.9675    3.1085   25.4565 H         1 AMP501      0.0000 
     27 H          -6.6095    0.5100   25.0608 H         1 AMP501      0.0000 
     28 H          -4.7510    0.0625   23.7320 H         1 AMP501      0.0000 
     29 H          -5.1662    2.6990   22.4581 H         1 AMP501      0.0000 
     30 H          -2.3716    0.4012   23.7340 H         1 AMP501      0.0000 
     31 H           0.0779    0.2527   19.5265 H         1 AMP501      0.0000 
     32 H           0.4248    1.6566   18.4614 H         1 AMP501      0.0000 
     33 H          -3.6935    3.7701   18.4263 H         1 AMP501      0.0000 
     34 H          -7.6915    2.6491   24.6537 H         1 AMP501      0.0000 
     35 H          -6.0276   -0.6595   22.1667 H         1 AMP501      0.0000 
@<TRIPOS>BOND
     1    2    1 ar   
     2    3    1 ar   
     3    4    1 ar   
     4    5    1 1    
     5    6    5 1    
     6    7    6 1    
     7   24    6 1    
     8   25    6 1    
     9    8    7 1    
    10    9    7 1    
    11   26    7 1    
    12   13    8 1    
    13   10    9 1    
    14   11    9 1    
    15   27    9 1    
    16   34   10 1    
    17   12   11 1    
    18   13   11 1    
    19   28   11 1    
    20   35   12 1    
    21   14   13 1    
    22   29   13 1    
    23   15   14 1    
    24   23   14 1    
    25   16   15 2    
    26   30   15 1    
    27   17   16 1    
    28   18   17 ar   
    29   23   17 ar   
    30   19   18 1    
    31   20   18 ar   
    32   31   19 1    
    33   32   19 1    
    34   21   20 ar   
    35   22   21 ar   
    36   33   21 1    
    37   23   22 ar   
@<TRIPOS>SUBSTRUCTURE
     1 AMP501      1 GROUP   
@<TRIPOS>SET

