#    Name: 4eyj_N61_1_INTS_M
#    Modification time : Mon Mar 24 18:46:56 2014

@<TRIPOS>MOLECULE
4eyj_N61_1_INTS_M
   79     0     9     0     0
SMALL
NO_CHARGES


@<TRIPOS>ATOM
      1 N         -11.8770   12.3690  -25.4095 N.am      2 SEC2        0.0000 
      2 N         -12.9230   12.2820  -26.4660 N.am      8 SEL2        0.0000 
      3 N         -10.8310   12.4560  -24.3530 N.am      5 SEP2        0.0000 
      4 O         -15.5105   10.2535  -25.9400 O.2       1 ALC1        0.0000 
      5 O         -14.9220   11.5170  -25.5020 O.2       7 ALL1        0.0000 
      6 O         -16.0990    8.9900  -26.3780 O.2       4 ALP1        0.0000 
      7 CA        -16.4630   11.1790  -24.8995 C.3       3 GLC5        0.0000 
      8 CA        -14.8390   12.4200  -24.3360 C.3       9 GLL5        0.0000 
      9 CA        -18.0870    9.9380  -25.4630 C.3       6 GLP5        0.0000 
     10 CA        -13.9240   14.7130  -25.9575 C.3       3 GLC5        0.0000 
     11 CA        -14.4260   13.7380  -24.3550 C.3       9 GLL5        0.0000 
     12 CA        -13.4220   15.6880  -27.5600 C.3       6 GLP5        0.0000 
     13 CA        -13.3905   17.8375  -23.8065 C.3       3 GLC5        0.0000 
     14 CA        -12.7490   15.9670  -22.9430 C.3       9 GLL5        0.0000 
     15 CA        -14.0320   19.7080  -24.6700 C.3       6 GLP5        0.0000 
     16 CA        -11.2010   15.3705  -21.4950 C.3       3 GLC5        0.0000 
     17 CA         -9.6530   14.7740  -20.0470 C.3       6 GLP5        0.0000 
     18 CA        -10.9800   16.7400  -22.8760 C.3       3 GLC5        0.0000 
     19 CA         -9.2110   17.5130  -22.8090 C.3       6 GLP5        0.0000 
     20 CA        -11.2955   15.1260  -24.2520 C.3       3 GLC5        0.0000 
     21 CA         -9.8420   14.2850  -25.5610 C.3       6 GLP5        0.0000 
     22 CA        -12.2940   13.8020  -22.5960 C.3       3 GLC5        0.0000 
     23 CA        -11.8390   11.6370  -22.2490 C.3       6 GLP5        0.0000 
     24 CA        -15.1340   16.2460  -19.0740 C.3       3 GLC5        0.0000 
     25 CA        -14.3210   15.7030  -21.0620 C.3       9 GLL5        0.0000 
     26 CA        -15.9470   16.7890  -17.0860 C.3       6 GLP5        0.0000 
     27 CA        -16.0235   15.7475  -24.9910 C.3       3 GLC5        0.0000 
     28 CA        -15.1150   16.6080  -23.1730 C.3       9 GLL5        0.0000 
     29 CA        -16.9320   14.8870  -26.8090 C.3       6 GLP5        0.0000 
     30 CA        -16.4095   18.0440  -22.9715 C.3       3 GLC5        0.0000 
     31 CA        -17.7040   19.4800  -22.7700 C.3       6 GLP5        0.0000 
     32 CA        -14.5735   18.1580  -23.9215 C.3       3 GLC5        0.0000 
     33 CA        -16.8870   10.3620  -24.0445 C.3       3 GLC5        0.0000 
     34 CA        -15.6870   10.7860  -22.6260 C.3       9 GLL5        0.0000 
     35 CA        -16.9115   12.0305  -21.4560 C.3       3 GLC5        0.0000 
     36 CA        -18.1360   13.2750  -20.2860 C.3       6 GLP5        0.0000 
     37 CA        -13.7630   11.2115  -22.4375 C.3       3 GLC5        0.0000 
     38 O         -15.1005    9.8030  -27.0185 O.2       1 ALC1        0.0000 
     39 O         -14.1020   10.6160  -27.6590 O.2       7 ALL1        0.0000 
     40 CA        -14.7620    8.5790  -31.7480 C.3       3 GLC5        0.0000 
     41 CA        -13.0660    9.6910  -31.1170 C.3       9 GLL5        0.0000 
     42 CA        -16.4580    7.4670  -32.3790 C.3       6 GLP5        0.0000 
     43 CA        -15.0060    8.3690  -29.9530 C.3       3 GLC5        0.0000 
     44 CA        -13.8260    9.9020  -29.9530 C.3       9 GLL5        0.0000 
     45 CA        -16.1860    6.8360  -29.9530 C.3       6 GLP5        0.0000 
     46 CA         -8.4950   13.9025  -34.3350 C.3       3 GLC5        0.0000 
     47 CA         -9.2750   11.9600  -34.6290 C.3       9 GLL5        0.0000 
     48 CA         -7.7150   15.8450  -34.0410 C.3       6 GLP5        0.0000 
     49 N          -9.4610   14.1970  -35.3050 N.am      2 SEC2        0.0000 
     50 N          -9.9990   13.1130  -34.5090 N.am      8 SEL2        0.0000 
     51 N          -8.9230   15.2810  -36.1010 N.am      5 SEP2        0.0000 
     52 CA        -11.8460   14.7505  -32.4790 C.3       3 GLC5        0.0000 
     53 CA        -11.0680   13.2030  -33.6630 C.3       9 GLL5        0.0000 
     54 CA        -12.6240   16.2980  -31.2950 C.3       6 GLP5        0.0000 
     55 CA        -10.9915   14.2800  -35.5655 C.3       3 GLC5        0.0000 
     56 CA        -10.9150   15.3570  -37.4680 C.3       6 GLP5        0.0000 
     57 CA         -9.9270   15.0025  -33.5950 C.3       3 GLC5        0.0000 
     58 CA         -8.7860   16.8020  -33.5270 C.3       6 GLP5        0.0000 
     59 CA        -13.5250   11.7265  -32.8445 C.3       3 GLC5        0.0000 
     60 CA        -11.4340   12.1340  -32.9240 C.3       9 GLL5        0.0000 
     61 CA        -15.6160   11.3190  -32.7650 C.3       6 GLP5        0.0000 
     62 CA        -15.7822   13.9830  -25.5772 C.3       3 GLC5        0.0000 
     63 CA        -13.2357   12.3580  -23.2972 C.3       3 GLC5        0.0000 
     64 CA        -14.5250   11.3670  -30.4273 C.3       3 GLC5        0.0000 
     65 CA        -13.2280   10.4380  -28.8060 C.3       9 GLL5        0.0000 
     66 CA        -15.5230   12.5640  -31.4750 C.3       6 GLP5        0.0000 
     67 CA        -10.8992   12.3685  -29.0670 C.3       3 GLC5        0.0000 
     68 CA        -11.8990   10.7610  -28.8190 C.3       9 GLL5        0.0000 
     69 CA        -10.2830   14.0810  -28.7270 C.3       6 GLP5        0.0000 
     70 CA        -12.4148    8.2055  -32.1340 C.3       3 GLC5        0.0000 
     71 CA        -11.7390   10.0210  -31.1390 C.3       9 GLL5        0.0000 
     72 CA        -12.4270    6.5550  -33.1400 C.3       6 GLP5        0.0000 
     73 CA        -14.0093   10.5875  -31.9465 C.3       3 GLC5        0.0000 
     74 CA        -11.1650    9.3773  -34.3427 C.3       3 GLC5        0.0000 
     75 CA        -10.7000   10.9220  -33.0250 C.3       9 GLL5        0.0000 
     76 CA        -12.1780    7.8630  -35.2210 C.3       6 GLP5        0.0000 
     77 CA        -11.2812   11.6564  -35.2424 C.3       3 GLC5        0.0000 
     78 CA        -12.8490   11.8870  -36.4380 C.3       6 GLP5        0.0000 
     79 CA        -12.0500   12.2778  -34.8657 C.3       3 GLC5        0.0000 
@<TRIPOS>BOND
@<TRIPOS>SUBSTRUCTURE
     1 ALC1        4 GROUP        1 X    ALC  0     ROOT ALC X 1
     2 SEC2        1 GROUP        1 X    SEC  0     **** SEC X 2
     3 GLC5        7 GROUP        1 X    GLC  0     **** GLC X 6
     4 ALP1        6 GROUP        1 Y    ALP  0     ROOT ALP Y 8
     5 SEP2        3 GROUP        1 Y    SEP  0     **** SEP Y 9
     6 GLP5        9 GROUP        1 Y    GLP  0     **** GLP Y 13
     7 ALL1        5 GROUP        1 Z    ALL  0     ROOT ALL Z 15
     8 SEL2        2 GROUP        1 Z    SEL  0     **** SEL Z 16
     9 GLL5        8 GROUP        1 Z    GLL  0     **** GLL Z 20
@<TRIPOS>SET

