#    Name: 4eyj_N61_1_ligand
#    Modification time : Mon Mar 24 18:46:57 2014

@<TRIPOS>MOLECULE
4eyj_N61_1_ligand
   50    52     1     0     0
SMALL
NO_CHARGES


@<TRIPOS>ATOM
      1 O1        -12.9230   12.2820  -26.4660 O.2       1 N61401      0.0000 
      2 C9        -13.8960   11.5290  -26.5500 C.2       1 N61401      0.0000 
      3 N3        -14.9220   11.5170  -25.5020 N.am      1 N61401      0.0000 
      4 C8        -14.8390   12.4200  -24.3360 C.2       1 N61401      0.0000 
      5 C7        -14.4260   13.7380  -24.3550 C.2       1 N61401      0.0000 
      6 C2        -14.5280   14.2170  -23.0140 C.2       1 N61401      0.0000 
      7 C3        -14.1720   15.6350  -22.5330 C.3       1 N61401      0.0000 
      8 C6        -12.7490   15.9670  -22.9430 C.3       1 N61401      0.0000 
      9 C5        -14.3210   15.7030  -21.0620 C.3       1 N61401      0.0000 
     10 C4        -15.1150   16.6080  -23.1730 C.3       1 N61401      0.0000 
     11 N2        -14.9830   13.2160  -22.2590 N.2       1 N61401      0.0000 
     12 N1        -15.1920   12.0990  -23.0590 N.pl3     1 N61401      0.0000 
     13 C1        -15.6870   10.7860  -22.6260 C.3       1 N61401      0.0000 
     14 N4        -14.1020   10.6160  -27.6590 N.am      1 N61401      0.0000 
     15 C10       -13.2280   10.4380  -28.8060 C.ar      1 N61401      0.0000 
     16 C20       -11.8990   10.7610  -28.8190 C.ar      1 N61401      0.0000 
     17 C19       -11.1320   10.5510  -29.9950 C.ar      1 N61401      0.0000 
     18 C13       -11.7390   10.0210  -31.1390 C.ar      1 N61401      0.0000 
     19 C12       -13.0660    9.6910  -31.1170 C.ar      1 N61401      0.0000 
     20 C11       -13.8260    9.9020  -29.9530 C.ar      1 N61401      0.0000 
     21 O2        -11.0290    9.7820  -32.2910 O.3       1 N61401      0.0000 
     22 C14       -10.7000   10.9220  -33.0250 C.ar      1 N61401      0.0000 
     23 C18        -9.6040   10.8610  -33.9040 C.ar      1 N61401      0.0000 
     24 C17        -9.2750   11.9600  -34.6290 C.ar      1 N61401      0.0000 
     25 N5         -9.9990   13.1130  -34.5090 N.ar      1 N61401      0.0000 
     26 C16       -11.0680   13.2030  -33.6630 C.ar      1 N61401      0.0000 
     27 C15       -11.4340   12.1340  -32.9240 C.ar      1 N61401      0.0000 
     28 H         -15.7033   10.8796  -25.5750 H         1 N61401      0.0000 
     29 H         -14.1336   14.2401  -25.0844 H         1 N61401      0.0000 
     30 H         -14.9742   10.0211  -27.6302 H         1 N61401      0.0000 
     31 H         -11.4357   11.1556  -27.9923 H         1 N61401      0.0000 
     32 H         -10.1387   10.7894  -29.9970 H         1 N61401      0.0000 
     33 H         -13.5254    9.2862  -31.9457 H         1 N61401      0.0000 
     34 H         -14.8236    9.6611  -29.9467 H         1 N61401      0.0000 
     35 H          -9.0739    9.9860  -33.9802 H         1 N61401      0.0000 
     36 H          -8.4652   11.9289  -35.2831 H         1 N61401      0.0000 
     37 H         -11.5938   14.0960  -33.5936 H         1 N61401      0.0000 
     38 H         -12.2366   12.1651  -32.2809 H         1 N61401      0.0000 
     39 H         -12.0896   15.3282  -22.5465 H         1 N61401      0.0000 
     40 H         -12.6307   15.9321  -23.9354 H         1 N61401      0.0000 
     41 H         -12.4820   16.8845  -22.6481 H         1 N61401      0.0000 
     42 H         -13.7220   15.0508  -20.5975 H         1 N61401      0.0000 
     43 H         -14.0967   16.6108  -20.7076 H         1 N61401      0.0000 
     44 H         -15.2565   15.4986  -20.7736 H         1 N61401      0.0000 
     45 H         -14.9236   17.5490  -22.8940 H         1 N61401      0.0000 
     46 H         -15.0563   16.5805  -24.1709 H         1 N61401      0.0000 
     47 H         -16.0662   16.4179  -22.9300 H         1 N61401      0.0000 
     48 H         -15.0216   10.0611  -22.8041 H         1 N61401      0.0000 
     49 H         -15.8845   10.7683  -21.6459 H         1 N61401      0.0000 
     50 H         -16.5305   10.5324  -23.0996 H         1 N61401      0.0000 
@<TRIPOS>BOND
     1    2    1 2    
     2    3    2 am   
     3   14    2 am   
     4    4    3 1    
     5   28    3 1    
     6    5    4 2    
     7   12    4 1    
     8    6    5 1    
     9   29    5 1    
    10    7    6 1    
    11   11    6 2    
    12    8    7 1    
    13    9    7 1    
    14   10    7 1    
    15   39    8 1    
    16   40    8 1    
    17   41    8 1    
    18   42    9 1    
    19   43    9 1    
    20   44    9 1    
    21   45   10 1    
    22   46   10 1    
    23   47   10 1    
    24   12   11 1    
    25   13   12 1    
    26   48   13 1    
    27   49   13 1    
    28   50   13 1    
    29   15   14 1    
    30   30   14 1    
    31   16   15 ar   
    32   20   15 ar   
    33   17   16 ar   
    34   31   16 1    
    35   18   17 ar   
    36   32   17 1    
    37   19   18 ar   
    38   21   18 1    
    39   20   19 ar   
    40   33   19 1    
    41   34   20 1    
    42   22   21 1    
    43   23   22 ar   
    44   27   22 ar   
    45   24   23 ar   
    46   35   23 1    
    47   25   24 ar   
    48   36   24 1    
    49   26   25 ar   
    50   27   26 ar   
    51   37   26 1    
    52   38   27 1    
@<TRIPOS>SUBSTRUCTURE
     1 N61401      1 GROUP   
@<TRIPOS>SET

