#    Name: 3i3o_NAE_7_INTS_M
#    Modification time : Tue Mar 25 15:50:52 2014

@<TRIPOS>MOLECULE
3i3o_NAE_7_INTS_M
  114     0    12     0     0
SMALL
NO_CHARGES


@<TRIPOS>ATOM
      1 N          24.5515   92.0845   96.4960 N.am      2 SEC2        0.0000 
      2 N          24.6320   90.8970   96.3700 N.am     10 SEL2        0.0000 
      3 N          24.4710   93.2720   96.6220 N.am      6 SEP2        0.0000 
      4 N          26.3355   89.9995   98.7190 N.am      2 SEC2        0.0000 
      5 N          26.8430   90.4170   97.5070 N.am     10 SEL2        0.0000 
      6 N          25.8280   89.5820   99.9310 N.am      6 SEP2        0.0000 
      7 N          31.3475   90.0140   97.6595 N.am      2 SEC2        0.0000 
      8 N          30.4020   91.4030   97.3160 N.am     10 SEL2        0.0000 
      9 N          32.2930   88.6250   98.0030 N.am      6 SEP2        0.0000 
     10 Zn         26.7075   94.1220   96.5430 Zn        3 ZIC7        0.0000 
     11 Zn         27.4660   93.4230   97.0670 Zn       11 ZIL7        0.0000 
     12 Zn         25.9490   94.8210   96.0190 Zn        7 ZIP7        0.0000 
     13 O          27.3200   94.2670   98.0995 O.2       1 ALC1        0.0000 
     14 O          27.4660   93.4230   97.0670 O.2       9 ALL1        0.0000 
     15 O          27.1740   95.1110   99.1320 O.2       5 ALP1        0.0000 
     16 N          30.7665   96.1380   97.6180 N.am      2 SEC2        0.0000 
     17 N          29.7160   94.7840   97.6260 N.am     10 SEL2        0.0000 
     18 N          31.8170   97.4920   97.6100 N.am      6 SEP2        0.0000 
     19 O          28.4450   94.9475   98.3790 O.2       1 ALC1        0.0000 
     20 O          29.7160   94.7840   97.6260 O.2       9 ALL1        0.0000 
     21 O          28.2235   95.5885   97.5210 O.2       1 ALC1        0.0000 
     22 O          26.7310   96.3930   97.4160 O.2       5 ALP1        0.0000 
     23 CA         32.1600   92.1880   98.1585 C.3       4 GLC5        0.0000 
     24 CA         30.9180   92.7600   97.3580 C.3      12 GLL5        0.0000 
     25 CA         33.4020   91.6160   98.9590 C.3       8 GLP5        0.0000 
     26 N          34.2745   92.6045   93.9150 N.am      2 SEC2        0.0000 
     27 N          33.8060   92.9100   95.1610 N.am     10 SEL2        0.0000 
     28 N          34.7430   92.2990   92.6690 N.am      6 SEP2        0.0000 
     29 CA         35.2255   91.9745   96.4300 C.3       4 GLC5        0.0000 
     30 CA         34.1800   93.7730   96.1210 C.3      12 GLL5        0.0000 
     31 CA         36.2710   90.1760   96.7390 C.3       8 GLP5        0.0000 
     32 CA         36.3320   92.9185   95.2350 C.3       4 GLC5        0.0000 
     33 CA         35.3000   94.5430   96.3110 C.3      12 GLL5        0.0000 
     34 CA         37.3640   91.2940   94.1590 C.3       8 GLP5        0.0000 
     35 O          37.6350   95.1550   95.6220 O.2       1 ALC1        0.0000 
     36 O          36.2900   94.4680   95.3880 O.2       9 ALL1        0.0000 
     37 O          38.9800   95.8420   95.8560 O.2       5 ALP1        0.0000 
     38 N          36.7155   95.7090   98.0895 N.am      2 SEC2        0.0000 
     39 N          35.4060   95.3490   97.3970 N.am     10 SEL2        0.0000 
     40 N          38.0250   96.0690   98.7820 N.am      6 SEP2        0.0000 
     41 CA         32.6530   96.3400   99.0855 C.3       4 GLC5        0.0000 
     42 CA         34.4230   95.4040   98.3070 C.3      12 GLL5        0.0000 
     43 CA         30.8830   97.2760   99.8640 C.3       8 GLP5        0.0000 
     44 CA         33.5845   96.7310   97.4540 C.3       4 GLC5        0.0000 
     45 CA         32.7460   98.0580   96.6010 C.3       8 GLP5        0.0000 
     46 CA         34.8205   95.0800  100.0155 C.3       4 GLC5        0.0000 
     47 CA         35.2180   94.7560  101.7240 C.3       8 GLP5        0.0000 
     48 CA         33.9125   93.5100   98.6330 C.3       4 GLC5        0.0000 
     49 N          24.1195   86.5345   95.4570 N.am      2 SEC2        0.0000 
     50 N          24.9150   86.2870   96.3520 N.am     10 SEL2        0.0000 
     51 N          23.3240   86.7820   94.5620 N.am      6 SEP2        0.0000 
     52 N          23.5310   88.1710   99.1560 N.am      2 SEC2        0.0000 
     53 N          24.5670   87.9100   98.3210 N.am     10 SEL2        0.0000 
     54 N          22.4950   88.4320   99.9910 N.am      6 SEP2        0.0000 
     55 N          31.3395   84.3485   99.7960 N.am      2 SEC2        0.0000 
     56 N          30.3480   85.4270   99.8850 N.am     10 SEL2        0.0000 
     57 N          32.3310   83.2700   99.7070 N.am      6 SEP2        0.0000 
     58 O          30.2895   86.7160  100.3650 O.2       1 ALC1        0.0000 
     59 O          30.3480   85.4270   99.8850 O.2       9 ALL1        0.0000 
     60 O          30.2310   88.0050  100.8450 O.2       5 ALP1        0.0000 
     61 CA         30.7535   83.3870   98.3130 C.3       4 GLC5        0.0000 
     62 CA         29.0810   84.5670   98.0300 C.3      12 GLL5        0.0000 
     63 CA         32.4260   82.2070   98.5960 C.3       8 GLP5        0.0000 
     64 CA         28.4925   84.8765   96.0260 C.3       4 GLC5        0.0000 
     65 CA         27.9040   85.1860   94.0220 C.3       8 GLP5        0.0000 
     66 N          30.2475   82.8020   97.0285 N.am      2 SEC2        0.0000 
     67 N          30.2580   83.7640   97.8720 N.am     10 SEL2        0.0000 
     68 N          30.2370   81.8400   96.1850 N.am      6 SEP2        0.0000 
     69 N          31.2945   83.5170   98.7895 N.am      2 SEC2        0.0000 
     70 CA         28.2345   83.6550  100.6440 C.3       4 GLC5        0.0000 
     71 CA         27.9730   83.8400   98.8010 C.3      12 GLL5        0.0000 
     72 CA         28.4960   83.4700  102.4870 C.3       8 GLP5        0.0000 
     73 CA         24.8630   83.7015   98.8785 C.3       4 GLC5        0.0000 
     74 CA         26.1420   83.1720   97.3040 C.3      12 GLL5        0.0000 
     75 CA         23.5840   84.2310  100.4530 C.3       8 GLP5        0.0000 
     76 CA         27.0230   84.1790   95.6630 C.3       4 GLC5        0.0000 
     77 CA         23.4480   82.0725   97.5880 C.3       4 GLC5        0.0000 
     78 CA         25.4260   82.2180   96.6750 C.3      12 GLL5        0.0000 
     79 CA         21.4700   81.9270   98.5010 C.3       8 GLP5        0.0000 
     80 N          22.4255   81.4950   95.4125 N.am      2 SEC2        0.0000 
     81 N          23.7100   81.8140   95.0940 N.am     10 SEL2        0.0000 
     82 N          21.1410   81.1760   95.7310 N.am      6 SEP2        0.0000 
     83 O          22.5475   83.7850   95.1600 O.2       1 ALC1        0.0000 
     84 O          23.9870   83.9260   95.7910 O.2       9 ALL1        0.0000 
     85 O          21.1080   83.6440   94.5290 O.2       5 ALP1        0.0000 
     86 CA         26.4825   81.3460   99.8725 C.3       4 GLC5        0.0000 
     87 CA         27.6330   81.5300   98.3320 C.3      12 GLL5        0.0000 
     88 CA         25.3320   81.1620  101.4130 C.3       8 GLP5        0.0000 
     89 CA         23.8910   79.4335   95.3470 C.3       4 GLC5        0.0000 
     90 CA         26.0040   79.9580   95.5600 C.3      12 GLL5        0.0000 
     91 CA         21.7780   78.9090   95.1340 C.3       8 GLP5        0.0000 
     92 CA         29.4975   81.5620   94.8760 C.3       4 GLC5        0.0000 
     93 CA         27.7380   81.5760   94.4670 C.3      12 GLL5        0.0000 
     94 CA         31.2570   81.5480   95.2850 C.3       8 GLP5        0.0000 
     95 CA         27.8210   83.3810   94.2445 C.3       4 GLC5        0.0000 
     96 CA         29.3745   93.6465   94.7917 C.3       4 GLC5        0.0000 
     97 CA         28.6560   92.7560   96.6620 C.3      12 GLL5        0.0000 
     98 CA         29.4900   94.0840   92.8720 C.3       8 GLP5        0.0000 
     99 CA         33.4372   95.5563   96.0100 C.3       4 GLC5        0.0000 
    100 CA         33.1650   93.8350   97.0520 C.3      12 GLL5        0.0000 
    101 CA         32.9220   97.1160   95.3860 C.3       8 GLP5        0.0000 
    102 CA         33.6773   92.8063   97.7965 C.3       4 GLC5        0.0000 
    103 CA         28.5620   84.6672  100.8757 C.3       4 GLC5        0.0000 
    104 CA         29.3140   85.7520   98.9340 C.3      12 GLL5        0.0000 
    105 CA         30.6572   85.7133   97.8430 C.3       4 GLC5        0.0000 
    106 CA         32.1170   86.2670   97.2040 C.3       8 GLP5        0.0000 
    107 CA         28.5888   79.8222   98.2750 C.3       4 GLC5        0.0000 
    108 CA         26.9460   80.5230   97.8040 C.3      12 GLL5        0.0000 
    109 CA         29.8880   78.6180   98.4820 C.3       8 GLP5        0.0000 
    110 CA         25.3354   80.7315   98.9470 C.3       4 GLC5        0.0000 
    111 CA         24.3940   80.4590  100.6100 C.3       8 GLP5        0.0000 
    112 CA         29.4776   92.7728   99.0705 C.3       4 GLC5        0.0000 
    113 CA         29.0130   91.5720   97.5670 C.3      12 GLL5        0.0000 
    114 CA         29.3430   92.8580  101.0540 C.3       8 GLP5        0.0000 
@<TRIPOS>BOND
@<TRIPOS>SUBSTRUCTURE
     1 ALC1       13 GROUP        1 X    ALC  0     ROOT ALC X 1
     2 SEC2        1 GROUP        1 X    SEC  0     **** SEC X 2
     3 ZIC7       10 GROUP        1 X    ZIC  0     **** ZIC X 5
     4 GLC5       23 GROUP        1 X    GLC  0     **** GLC X 6
     5 ALP1       15 GROUP        1 Y    ALP  0     ROOT ALP Y 8
     6 SEP2        3 GROUP        1 Y    SEP  0     **** SEP Y 9
     7 ZIP7       12 GROUP        1 Y    ZIP  0     **** ZIP Y 12
     8 GLP5       25 GROUP        1 Y    GLP  0     **** GLP Y 13
     9 ALL1       14 GROUP        1 Z    ALL  0     ROOT ALL Z 15
    10 SEL2        2 GROUP        1 Z    SEL  0     **** SEL Z 16
    11 ZIL7       11 GROUP        1 Z    ZIL  0     **** ZIL Z 19
    12 GLL5       24 GROUP        1 Z    GLL  0     **** GLL Z 20
@<TRIPOS>SET

