#    Name: 3i3o_NAE_7_ligand
#    Modification time : Tue Mar 25 15:50:52 2014

@<TRIPOS>MOLECULE
3i3o_NAE_7_ligand
   78    82     1     0     0
SMALL
NO_CHARGES


@<TRIPOS>ATOM
      1 PA         25.9490   90.1950   96.1940 P.3       1 NAE311      0.0000 
      2 O1A        26.8150   90.6580   95.0490 O.co2     1 NAE311      0.0000 
      3 O2A        24.6320   90.8970   96.3700 O.co2     1 NAE311      0.0000 
      4 O5'        26.8430   90.4170   97.5070 O.3       1 NAE311      0.0000 
      5 C5'        28.2630   90.2640   97.3740 C.3       1 NAE311      0.0000 
      6 C4'        29.0130   91.5720   97.5670 C.3       1 NAE311      0.0000 
      7 O4'        30.4020   91.4030   97.3160 O.3       1 NAE311      0.0000 
      8 C3'        28.6560   92.7560   96.6620 C.3       1 NAE311      0.0000 
      9 O3'        27.4660   93.4230   97.0670 O.3       1 NAE311      0.0000 
     10 C2'        29.8620   93.6620   96.7610 C.3       1 NAE311      0.0000 
     11 O2'        29.7160   94.7840   97.6260 O.3       1 NAE311      0.0000 
     12 C1'        30.9180   92.7600   97.3580 C.3       1 NAE311      0.0000 
     13 N9A        32.1920   93.0010   96.6300 N.pl3     1 NAE311      0.0000 
     14 C8A        32.5750   92.4360   95.4720 C.2       1 NAE311      0.0000 
     15 N7A        33.8060   92.9100   95.1610 N.2       1 NAE311      0.0000 
     16 C5A        34.1800   93.7730   96.1210 C.ar      1 NAE311      0.0000 
     17 C6A        35.3000   94.5430   96.3110 C.ar      1 NAE311      0.0000 
     18 N6A        36.2900   94.4680   95.3880 N.pl3     1 NAE311      0.0000 
     19 N1A        35.4060   95.3490   97.3970 N.ar      1 NAE311      0.0000 
     20 C2A        34.4230   95.4040   98.3070 C.ar      1 NAE311      0.0000 
     21 N3A        33.3140   94.6560   98.1370 N.ar      1 NAE311      0.0000 
     22 C4A        33.1650   93.8350   97.0520 C.ar      1 NAE311      0.0000 
     23 OPP        25.6490   88.6100   95.9980 O.3       1 NAE311      0.0000 
     24 PN         25.4110   87.4680   97.1540 P.3       1 NAE311      0.0000 
     25 O1N        24.9150   86.2870   96.3520 O.co2     1 NAE311      0.0000 
     26 O2N        24.5670   87.9100   98.3210 O.co2     1 NAE311      0.0000 
     27 O5B        26.8820   87.1460   97.7160 O.3       1 NAE311      0.0000 
     28 C5B        27.2310   87.2220   99.1020 C.3       1 NAE311      0.0000 
     29 C4B        27.9420   85.9770   99.5950 C.3       1 NAE311      0.0000 
     30 O4B        27.1050   84.8710   99.2670 O.3       1 NAE311      0.0000 
     31 C3B        29.3140   85.7520   98.9340 C.3       1 NAE311      0.0000 
     32 O3B        30.3480   85.4270   99.8850 O.3       1 NAE311      0.0000 
     33 C2B        29.0810   84.5670   98.0300 C.3       1 NAE311      0.0000 
     34 O2B        30.2580   83.7640   97.8720 O.3       1 NAE311      0.0000 
     35 C1B        27.9730   83.8400   98.8010 C.3       1 NAE311      0.0000 
     36 N1N        27.3920   82.8520   97.8980 N.pl3     1 NAE311      0.0000 
     37 C2N        26.1420   83.1720   97.3040 C.ar      1 NAE311      0.0000 
     38 C3N        25.4260   82.2180   96.6750 C.ar      1 NAE311      0.0000 
     39 C7N        24.3020   82.6250   95.8040 C.2       1 NAE311      0.0000 
     40 O7N        23.7100   81.8140   95.0940 O.2       1 NAE311      0.0000 
     41 N7N        23.9870   83.9260   95.7910 N.am      1 NAE311      0.0000 
     42 C4N        25.7890   80.7520   96.8530 C.ar      1 NAE311      0.0000 
     43 C5N        26.9460   80.5230   97.8040 C.ar      1 NAE311      0.0000 
     44 C6N        27.6330   81.5300   98.3320 C.ar      1 NAE311      0.0000 
     45 C4P        26.0040   79.9580   95.5600 C.3       1 NAE311      0.0000 
     46 C3P        27.2980   80.2070   94.8700 C.2       1 NAE311      0.0000 
     47 OP         27.9400   79.2220   94.6080 O.2       1 NAE311      0.0000 
     48 C2P        27.7380   81.5760   94.4670 C.3       1 NAE311      0.0000 
     49 H          28.5303   89.8659   96.3749 H         1 NAE311      0.0000 
     50 H          28.6575   89.5368   98.1114 H         1 NAE311      0.0000 
     51 H          28.8911   91.9146   98.6017 H         1 NAE311      0.0000 
     52 H          28.6103   92.3847   95.6529 H         1 NAE311      0.0000 
     53 H          30.1872   93.9200   95.7796 H         1 NAE311      0.0000 
     54 H          31.0363   93.0822   98.3996 H         1 NAE311      0.0000 
     55 H          32.0685   91.8047   94.9501 H         1 NAE311      0.0000 
     56 H          36.0088   94.2235   94.4600 H         1 NAE311      0.0000 
     57 H          37.2139   94.6638   95.7167 H         1 NAE311      0.0000 
     58 H          34.5120   96.0199   99.1418 H         1 NAE311      0.0000 
     59 H          26.3314   87.3705   99.7336 H         1 NAE311      0.0000 
     60 H          27.8917   88.0904   99.3012 H         1 NAE311      0.0000 
     61 H          28.0772   86.0460  100.6569 H         1 NAE311      0.0000 
     62 H          29.5403   86.5936   98.3341 H         1 NAE311      0.0000 
     63 H          28.6628   84.9179   97.1219 H         1 NAE311      0.0000 
     64 H          28.4750   83.3491   99.6304 H         1 NAE311      0.0000 
     65 H          25.8087   84.1465   97.3714 H         1 NAE311      0.0000 
     66 H          23.2229   84.1879   95.2014 H         1 NAE311      0.0000 
     67 H          24.5440   84.5194   96.3721 H         1 NAE311      0.0000 
     68 H          27.1451   79.5256   97.9984 H         1 NAE311      0.0000 
     69 H          28.3520   81.3849   99.0627 H         1 NAE311      0.0000 
     70 H          25.1608   80.1871   94.8719 H         1 NAE311      0.0000 
     71 H          25.9085   78.8765   95.8011 H         1 NAE311      0.0000 
     72 H          28.6306   81.5616   94.0164 H         1 NAE311      0.0000 
     73 H          27.0947   82.0003   93.8296 H         1 NAE311      0.0000 
     74 H          27.8169   82.1875   95.2543 H         1 NAE311      0.0000 
     75 H          27.7217   93.9322   97.8888 H         1 NAE311      0.0000 
     76 H          28.7303   94.8751   97.7674 H         1 NAE311      0.0000 
     77 H          30.4942   86.2681  100.4057 H         1 NAE311      0.0000 
     78 H          30.9646   84.3993   97.5603 H         1 NAE311      0.0000 
@<TRIPOS>BOND
     1    2    1 ar   
     2    3    1 ar   
     3    4    1 1    
     4   23    1 1    
     5    5    4 1    
     6    6    5 1    
     7   49    5 1    
     8   50    5 1    
     9    7    6 1    
    10    8    6 1    
    11   51    6 1    
    12   12    7 1    
    13    9    8 1    
    14   10    8 1    
    15   52    8 1    
    16   75    9 1    
    17   11   10 1    
    18   12   10 1    
    19   53   10 1    
    20   76   11 1    
    21   13   12 1    
    22   54   12 1    
    23   14   13 1    
    24   22   13 1    
    25   15   14 2    
    26   55   14 1    
    27   16   15 1    
    28   17   16 ar   
    29   22   16 ar   
    30   18   17 1    
    31   19   17 ar   
    32   56   18 1    
    33   57   18 1    
    34   20   19 ar   
    35   21   20 ar   
    36   58   20 1    
    37   22   21 ar   
    38   24   23 1    
    39   25   24 ar   
    40   26   24 ar   
    41   27   24 1    
    42   28   27 1    
    43   29   28 1    
    44   59   28 1    
    45   60   28 1    
    46   30   29 1    
    47   31   29 1    
    48   61   29 1    
    49   35   30 1    
    50   32   31 1    
    51   33   31 1    
    52   62   31 1    
    53   77   32 1    
    54   34   33 1    
    55   35   33 1    
    56   63   33 1    
    57   78   34 1    
    58   36   35 1    
    59   64   35 1    
    60   37   36 ar   
    61   44   36 ar   
    62   38   37 ar   
    63   65   37 1    
    64   39   38 1    
    65   42   38 ar   
    66   40   39 2    
    67   41   39 am   
    68   66   41 1    
    69   67   41 1    
    70   43   42 ar   
    71   45   42 1    
    72   44   43 ar   
    73   68   43 1    
    74   69   44 1    
    75   46   45 1    
    76   70   45 1    
    77   71   45 1    
    78   47   46 2    
    79   48   46 1    
    80   72   48 1    
    81   73   48 1    
    82   74   48 1    
@<TRIPOS>SUBSTRUCTURE
     1 NAE311      1 GROUP   
@<TRIPOS>SET

