#    Name: 3kjg_ADP_2_INTS_M
#    Modification time : Mon Mar 24 19:32:58 2014

@<TRIPOS>MOLECULE
3kjg_ADP_2_INTS_M
   62     0    12     0     0
SMALL
NO_CHARGES


@<TRIPOS>ATOM
      1 NZ          8.2945  -23.1025  -39.6725 N.4       3 LYC4        0.0000 
      2 NZ          8.2940  -24.6060  -40.6750 N.4      11 LYL4        0.0000 
      3 NZ          8.2950  -21.5990  -38.6700 N.4       7 LYP4        0.0000 
      4 N           9.5565  -24.9140  -39.9690 N.am      2 SEC2        0.0000 
      5 N           8.2940  -24.6060  -40.6750 N.am     10 SEL2        0.0000 
      6 N          10.8190  -25.2220  -39.2630 N.am      6 SEP2        0.0000 
      7 N           8.1925  -24.6920  -39.4160 N.am      2 SEC2        0.0000 
      8 N           8.0910  -24.7780  -38.1570 N.am      6 SEP2        0.0000 
      9 N           6.8955  -23.2920  -43.9590 N.am      2 SEC2        0.0000 
     10 N           6.5940  -23.8600  -42.6430 N.am     10 SEL2        0.0000 
     11 N           7.1970  -22.7240  -45.2750 N.am      6 SEP2        0.0000 
     12 N           5.6665  -24.1620  -41.5010 N.am      2 SEC2        0.0000 
     13 N           4.7390  -24.4640  -40.3590 N.am      6 SEP2        0.0000 
     14 N           8.2320  -23.1235  -44.1085 N.am      2 SEC2        0.0000 
     15 N           9.2670  -23.5230  -42.9420 N.am     10 SEL2        0.0000 
     16 N          10.0185  -24.3045  -43.6565 N.am      2 SEC2        0.0000 
     17 N          10.7700  -25.0860  -44.3710 N.am      6 SEP2        0.0000 
     18 N          10.5165  -24.0610  -42.3520 N.am      2 SEC2        0.0000 
     19 N          11.7660  -24.5990  -41.7620 N.am      6 SEP2        0.0000 
     20 N          10.1475  -27.6010  -40.2280 N.am      2 SEC2        0.0000 
     21 N           9.2900  -27.3190  -41.3030 N.am     10 SEL2        0.0000 
     22 N          11.0050  -27.8830  -39.1530 N.am      6 SEP2        0.0000 
     23 N           9.7505  -28.5560  -41.2510 N.am      2 SEC2        0.0000 
     24 N          10.2110  -29.7930  -41.1990 N.am      6 SEP2        0.0000 
     25 CA          7.3450  -25.6055  -45.3395 C.3       4 GLC5        0.0000 
     26 CA          7.2600  -27.5320  -44.3350 C.3      12 GLL5        0.0000 
     27 CA          7.4300  -23.6790  -46.3440 C.3       8 GLP5        0.0000 
     28 CA          9.1535  -26.8590  -43.8965 C.3       4 GLC5        0.0000 
     29 CA         11.0470  -26.1860  -43.4580 C.3       8 GLP5        0.0000 
     30 N           9.1300  -28.1940  -47.0185 N.am      2 SEC2        0.0000 
     31 N           8.4650  -29.0050  -45.7870 N.am     10 SEL2        0.0000 
     32 N           9.7950  -27.3830  -48.2500 N.am      6 SEP2        0.0000 
     33 CA          9.9465  -29.1250  -46.7050 C.3       4 GLC5        0.0000 
     34 CA          8.7340  -30.3910  -45.5290 C.3      12 GLL5        0.0000 
     35 CA         11.1590  -27.8590  -47.8810 C.3       8 GLP5        0.0000 
     36 N          13.2575  -29.0975  -44.8985 N.am      2 SEC2        0.0000 
     37 N          12.2490  -30.2780  -44.8110 N.am     10 SEL2        0.0000 
     38 N          14.2660  -27.9170  -44.9860 N.am      6 SEP2        0.0000 
     39 CA         13.3710  -30.0305  -47.6710 C.3       4 GLC5        0.0000 
     40 CA         13.3030  -31.6190  -46.6270 C.3      12 GLL5        0.0000 
     41 CA         13.4390  -28.4420  -48.7150 C.3       8 GLP5        0.0000 
     42 CA         14.3445  -32.1105  -48.4000 C.3       4 GLC5        0.0000 
     43 CA         15.3860  -32.6020  -50.1730 C.3       8 GLP5        0.0000 
     44 O          15.3325  -30.2695  -45.8700 O.2       1 ALC1        0.0000 
     45 O          14.5670  -31.4310  -46.2610 O.2       9 ALL1        0.0000 
     46 O          16.0980  -29.1080  -45.4790 O.2       5 ALP1        0.0000 
     47 O          15.7105  -32.1975  -47.0825 O.2       1 ALC1        0.0000 
     48 O          16.8540  -32.9640  -47.9040 O.2       5 ALP1        0.0000 
     49 N          13.6655  -33.4670  -48.4480 N.am      2 SEC2        0.0000 
     50 N          13.0050  -32.3560  -47.7080 N.am     10 SEL2        0.0000 
     51 N          14.3260  -34.5780  -49.1880 N.am      6 SEP2        0.0000 
     52 CA         12.5920  -30.4805  -48.3930 C.3       4 GLC5        0.0000 
     53 CA         11.7450  -32.5190  -48.0710 C.3      12 GLL5        0.0000 
     54 CA         13.5655  -32.5605  -49.1220 C.3       4 GLC5        0.0000 
     55 CA         12.9345  -34.2700  -48.5495 C.3       4 GLC5        0.0000 
     56 CA         14.1240  -36.0210  -49.0280 C.3       8 GLP5        0.0000 
     57 CA         11.2315  -33.4695  -46.3725 C.3       4 GLC5        0.0000 
     58 CA         10.7180  -34.4200  -44.6740 C.3       8 GLP5        0.0000 
     59 CA         11.3905  -29.4965  -46.9958 C.3       4 GLC5        0.0000 
     60 CA         10.9670  -31.2290  -46.3190 C.3      12 GLL5        0.0000 
     61 CA         11.2982  -32.8495  -45.4829 C.3       4 GLC5        0.0000 
     62 CA         12.2770  -31.0390  -45.9020 C.3      12 GLL5        0.0000 
@<TRIPOS>BOND
@<TRIPOS>SUBSTRUCTURE
     1 ALC1       44 GROUP        1 X    ALC  0     ROOT ALC X 1
     2 SEC2        4 GROUP        1 X    SEC  0     **** SEC X 2
     3 LYC4        1 GROUP        1 X    LYC  0     **** LYC X 4
     4 GLC5       25 GROUP        1 X    GLC  0     **** GLC X 6
     5 ALP1       46 GROUP        1 Y    ALP  0     ROOT ALP Y 8
     6 SEP2        6 GROUP        1 Y    SEP  0     **** SEP Y 9
     7 LYP4        3 GROUP        1 Y    LYP  0     **** LYP Y 11
     8 GLP5       27 GROUP        1 Y    GLP  0     **** GLP Y 13
     9 ALL1       45 GROUP        1 Z    ALL  0     ROOT ALL Z 15
    10 SEL2        5 GROUP        1 Z    SEL  0     **** SEL Z 16
    11 LYL4        2 GROUP        1 Z    LYL  0     **** LYL Z 18
    12 GLL5       26 GROUP        1 Z    GLL  0     **** GLL Z 20
@<TRIPOS>SET

