#    Name: 3kjg_ADP_2_ligand
#    Modification time : Mon Mar 24 19:32:58 2014

@<TRIPOS>MOLECULE
3kjg_ADP_2_ligand
   39    41     1     0     0
SMALL
NO_CHARGES


@<TRIPOS>ATOM
      1 PB          8.0690  -24.1340  -42.0570 P.3       1 ADP500      0.0000 
      2 O1B         8.2940  -24.6060  -40.6750 O.co2     1 ADP500      0.0000 
      3 O2B         6.5940  -23.8600  -42.6430 O.co2     1 ADP500      0.0000 
      4 O3B         9.2670  -23.5230  -42.9420 O.co2     1 ADP500      0.0000 
      5 PA          8.0390  -26.8780  -41.9460 P.3       1 ADP500      0.0000 
      6 O1A         6.6830  -27.3240  -41.5670 O.co2     1 ADP500      0.0000 
      7 O2A         9.2900  -27.3190  -41.3030 O.co2     1 ADP500      0.0000 
      8 O3A         8.1780  -25.5410  -42.8220 O.3       1 ADP500      0.0000 
      9 O5'         8.1360  -27.8160  -43.2440 O.3       1 ADP500      0.0000 
     10 C5'         7.2600  -27.5320  -44.3350 C.3       1 ADP500      0.0000 
     11 C4'         7.1480  -28.7310  -45.2780 C.3       1 ADP500      0.0000 
     12 O4'         8.4650  -29.0050  -45.7870 O.3       1 ADP500      0.0000 
     13 C3'         6.7390  -29.9560  -44.4530 C.3       1 ADP500      0.0000 
     14 O3'         5.9410  -30.8510  -45.2310 O.3       1 ADP500      0.0000 
     15 C2'         8.0990  -30.5860  -44.1550 C.3       1 ADP500      0.0000 
     16 O2'         7.9720  -31.9900  -43.9080 O.3       1 ADP500      0.0000 
     17 C1'         8.7340  -30.3910  -45.5290 C.3       1 ADP500      0.0000 
     18 N9         10.2010  -30.5670  -45.4710 N.pl3     1 ADP500      0.0000 
     19 C8         10.9760  -29.9950  -44.5530 C.2       1 ADP500      0.0000 
     20 N7         12.2490  -30.2780  -44.8110 N.2       1 ADP500      0.0000 
     21 C5         12.2770  -31.0390  -45.9020 C.ar      1 ADP500      0.0000 
     22 C6         13.3030  -31.6190  -46.6270 C.ar      1 ADP500      0.0000 
     23 N6         14.5670  -31.4310  -46.2610 N.pl3     1 ADP500      0.0000 
     24 N1         13.0050  -32.3560  -47.7080 N.ar      1 ADP500      0.0000 
     25 C2         11.7450  -32.5190  -48.0710 C.ar      1 ADP500      0.0000 
     26 N3         10.7380  -31.9810  -47.4120 N.ar      1 ADP500      0.0000 
     27 C4         10.9670  -31.2290  -46.3190 C.ar      1 ADP500      0.0000 
     28 H           7.6147  -26.6742  -44.9284 H         1 ADP500      0.0000 
     29 H           6.2439  -27.2865  -43.9871 H         1 ADP500      0.0000 
     30 H           6.4502  -28.5487  -46.0206 H         1 ADP500      0.0000 
     31 H           6.3110  -29.6363  -43.5601 H         1 ADP500      0.0000 
     32 H           8.6001  -30.0334  -43.4645 H         1 ADP500      0.0000 
     33 H           8.2746  -31.0109  -46.2197 H         1 ADP500      0.0000 
     34 H          10.6574  -29.4503  -43.8039 H         1 ADP500      0.0000 
     35 H          15.1914  -32.1942  -46.4273 H         1 ADP500      0.0000 
     36 H          14.7794  -30.5434  -45.8524 H         1 ADP500      0.0000 
     37 H          11.5346  -33.1127  -48.9362 H         1 ADP500      0.0000 
     38 H           6.3684  -31.7474  -45.1134 H         1 ADP500      0.0000 
     39 H           8.1792  -32.1015  -42.9361 H         1 ADP500      0.0000 
@<TRIPOS>BOND
     1    2    1 ar   
     2    3    1 ar   
     3    4    1 ar   
     4    8    1 1    
     5    6    5 ar   
     6    7    5 ar   
     7    8    5 1    
     8    9    5 1    
     9   10    9 1    
    10   11   10 1    
    11   28   10 1    
    12   29   10 1    
    13   12   11 1    
    14   13   11 1    
    15   30   11 1    
    16   17   12 1    
    17   14   13 1    
    18   15   13 1    
    19   31   13 1    
    20   38   14 1    
    21   16   15 1    
    22   17   15 1    
    23   32   15 1    
    24   39   16 1    
    25   18   17 1    
    26   33   17 1    
    27   19   18 1    
    28   27   18 1    
    29   20   19 2    
    30   34   19 1    
    31   21   20 1    
    32   22   21 ar   
    33   27   21 ar   
    34   23   22 1    
    35   24   22 ar   
    36   35   23 1    
    37   36   23 1    
    38   25   24 ar   
    39   26   25 ar   
    40   37   25 1    
    41   27   26 ar   
@<TRIPOS>SUBSTRUCTURE
     1 ADP500      1 GROUP   
@<TRIPOS>SET

