#    Name: 1y8y_CT7_1_INTS_M
#    Modification time : Tue Mar 25 10:52:51 2014

@<TRIPOS>MOLECULE
1y8y_CT7_1_INTS_M
   54     0     9     0     0
SMALL
NO_CHARGES


@<TRIPOS>ATOM
      1 N          18.5610   26.6870   26.8965 N.am      2 SEC2        0.0000 
      2 N          18.4200   25.4720   27.8470 N.am      8 SEL2        0.0000 
      3 N          18.7020   27.9020   25.9460 N.am      5 SEP2        0.0000 
      4 CA         23.6155   26.4080   31.0765 C.3       3 GLC5        0.0000 
      5 CA         21.9480   27.5780   30.2640 C.3       9 GLL5        0.0000 
      6 CA         25.2830   25.2380   31.8890 C.3       6 GLP5        0.0000 
      7 O          22.7255   29.8980   29.8460 O.2       1 ALC1        0.0000 
      8 O          23.6350   28.9740   29.2620 O.2       7 ALL1        0.0000 
      9 O          21.8160   30.8220   30.4300 O.2       4 ALP1        0.0000 
     10 CA         25.5065   28.3590   30.2920 C.3       3 GLC5        0.0000 
     11 CA         24.7570   29.0900   28.5140 C.3       9 GLL5        0.0000 
     12 CA         26.2560   27.6280   32.0700 C.3       6 GLP5        0.0000 
     13 N          28.3870   29.4760   26.2545 N.am      2 SEC2        0.0000 
     14 N          27.0440   29.4050   27.0170 N.am      8 SEL2        0.0000 
     15 N          29.7300   29.5470   25.4920 N.am      5 SEP2        0.0000 
     16 N          23.9425   32.4140   29.7105 N.am      2 SEC2        0.0000 
     17 N          24.9880   31.4520   28.9480 N.am      8 SEL2        0.0000 
     18 N          22.8970   33.3760   30.4730 N.am      5 SEP2        0.0000 
     19 CA         25.8780   27.1065   29.7005 C.3       3 GLC5        0.0000 
     20 CA         25.3600   27.9860   27.9000 C.3       9 GLL5        0.0000 
     21 CA         26.3960   26.2270   31.5010 C.3       6 GLP5        0.0000 
     22 CA         27.3515   27.6330   28.8115 C.3       3 GLC5        0.0000 
     23 CA         29.3430   27.2800   29.7230 C.3       6 GLP5        0.0000 
     24 CA         28.8560   26.4835   27.1340 C.3       3 GLC5        0.0000 
     25 CA         27.1960   26.9940   26.3870 C.3       9 GLL5        0.0000 
     26 CA         30.5160   25.9730   27.8810 C.3       6 GLP5        0.0000 
     27 CA         28.8265   28.4395   26.5870 C.3       3 GLC5        0.0000 
     28 CA         30.4570   29.8850   26.7870 C.3       6 GLP5        0.0000 
     29 CA         26.8130   33.7460   27.2040 C.3       3 GLC5        0.0000 
     30 CA         26.8660   31.7790   27.7650 C.3       9 GLL5        0.0000 
     31 CA         26.7600   35.7130   26.6430 C.3       6 GLP5        0.0000 
     32 CA         28.3275   33.2140   28.3645 C.3       3 GLC5        0.0000 
     33 CA         29.7890   34.6490   28.9640 C.3       6 GLP5        0.0000 
     34 CA         18.0170   23.4375   28.2075 C.3       3 GLC5        0.0000 
     35 CA         20.0790   23.3290   27.9610 C.3       9 GLL5        0.0000 
     36 CA         15.9550   23.5460   28.4540 C.3       6 GLP5        0.0000 
     37 CA         20.3338   28.7843   30.7713 C.3       3 GLC5        0.0000 
     38 CA         20.9590   26.6270   30.1050 C.3       9 GLL5        0.0000 
     39 CA         19.2140   30.4660   31.3580 C.3       6 GLP5        0.0000 
     40 CA         19.6036   27.6021   28.3520 C.3       3 GLC5        0.0000 
     41 CA         20.7540   26.0820   28.8210 C.3       9 GLL5        0.0000 
     42 CA         18.0570   28.7790   28.1390 C.3       6 GLP5        0.0000 
     43 CA         21.1075   27.0890   25.9177 C.3       3 GLC5        0.0000 
     44 CA         21.4440   26.4960   27.6670 C.3       9 GLL5        0.0000 
     45 CA         20.2780   27.2080   24.0820 C.3       6 GLP5        0.0000 
     46 CA         22.3077   28.6112   26.8636 C.3       3 GLC5        0.0000 
     47 CA         22.3020   29.7440   25.2940 C.3       6 GLP5        0.0000 
     48 CA         24.3803   30.0565   27.1075 C.3       3 GLC5        0.0000 
     49 CA         23.7020   31.5750   26.0080 C.3       6 GLP5        0.0000 
     50 CA         27.4027   31.2810   29.3622 C.3       3 GLC5        0.0000 
     51 CA         26.4850   30.4550   27.7100 C.3       9 GLL5        0.0000 
     52 CA         28.1300   31.4450   30.9870 C.3       6 GLP5        0.0000 
     53 CA         28.5663   30.5010   27.2623 C.3       3 GLC5        0.0000 
     54 CA         25.1887   31.3460   26.8727 C.3       3 GLC5        0.0000 
@<TRIPOS>BOND
@<TRIPOS>SUBSTRUCTURE
     1 ALC1        7 GROUP        1 X    ALC  0     ROOT ALC X 1
     2 SEC2        1 GROUP        1 X    SEC  0     **** SEC X 2
     3 GLC5        4 GROUP        1 X    GLC  0     **** GLC X 6
     4 ALP1        9 GROUP        1 Y    ALP  0     ROOT ALP Y 8
     5 SEP2        3 GROUP        1 Y    SEP  0     **** SEP Y 9
     6 GLP5        6 GROUP        1 Y    GLP  0     **** GLP Y 13
     7 ALL1        8 GROUP        1 Z    ALL  0     ROOT ALL Z 15
     8 SEL2        2 GROUP        1 Z    SEL  0     **** SEL Z 16
     9 GLL5        5 GROUP        1 Z    GLL  0     **** GLL Z 20
@<TRIPOS>SET

