#    Name: 1y8y_CT7_1_ligand
#    Modification time : Tue Mar 25 10:52:52 2014

@<TRIPOS>MOLECULE
1y8y_CT7_1_ligand
   32    34     1     0     0
SMALL
NO_CHARGES


@<TRIPOS>ATOM
      1 O3         18.9870   24.4950   29.9480 O.2       1 CT7401      0.0000 
      2 S1         19.4960   24.9010   28.6210 S.o2      1 CT7401      0.0000 
      3 O2         18.4200   25.4720   27.8470 O.2       1 CT7401      0.0000 
      4 C16        20.7540   26.0820   28.8210 C.ar      1 CT7401      0.0000 
      5 C15        20.9590   26.6270   30.1050 C.ar      1 CT7401      0.0000 
      6 C17        21.4440   26.4960   27.6670 C.ar      1 CT7401      0.0000 
      7 C18        22.4300   27.4440   27.8400 C.ar      1 CT7401      0.0000 
      8 C14        21.9480   27.5780   30.2640 C.ar      1 CT7401      0.0000 
      9 C13        22.6900   27.9870   29.1130 C.ar      1 CT7401      0.0000 
     10 N5         23.6350   28.9740   29.2620 N.pl3     1 CT7401      0.0000 
     11 C9         24.7570   29.0900   28.5140 C.2       1 CT7401      0.0000 
     12 N2         25.3620   30.3010   28.4370 N.pl3     1 CT7401      0.0000 
     13 C10        26.4850   30.4550   27.7100 C.2       1 CT7401      0.0000 
     14 N1         27.0440   29.4050   27.0170 N.2       1 CT7401      0.0000 
     15 C11        25.8890   32.4080   28.5470 C.2       1 CT7401      0.0000 
     16 N3         24.9880   31.4520   28.9480 N.2       1 CT7401      0.0000 
     17 C8         25.3600   27.9860   27.9000 C.2       1 CT7401      0.0000 
     18 C7         26.5230   28.1720   27.1400 C.2       1 CT7401      0.0000 
     19 CL1        27.1960   26.9940   26.3870 Cl        1 CT7401      0.0000 
     20 C12        26.8660   31.7790   27.7650 C.2       1 CT7401      0.0000 
     21 C20        20.0790   23.3290   27.9610 C.3       1 CT7401      0.0000 
     22 H          20.3867   26.3192   30.8851 H         1 CT7401      0.0000 
     23 H          21.2190   26.1112   26.7662 H         1 CT7401      0.0000 
     24 H          22.9908   27.7677   27.0359 H         1 CT7401      0.0000 
     25 H          22.1592   27.9889   31.1650 H         1 CT7401      0.0000 
     26 H          23.4630   29.7012   30.0292 H         1 CT7401      0.0000 
     27 H          25.8674   33.3328   28.7542 H         1 CT7401      0.0000 
     28 H          24.9573   27.0541   28.0042 H         1 CT7401      0.0000 
     29 H          27.6066   32.1796   27.3735 H         1 CT7401      0.0000 
     30 H          20.4672   23.4318   27.0452 H         1 CT7401      0.0000 
     31 H          20.7897   22.9251   28.5369 H         1 CT7401      0.0000 
     32 H          19.3406   22.6581   27.8928 H         1 CT7401      0.0000 
@<TRIPOS>BOND
     1    2    1 2    
     2    3    2 2    
     3    4    2 1    
     4   21    2 1    
     5    5    4 ar   
     6    6    4 ar   
     7    8    5 ar   
     8   22    5 1    
     9    7    6 ar   
    10   23    6 1    
    11    9    7 ar   
    12   24    7 1    
    13    9    8 ar   
    14   25    8 1    
    15   10    9 1    
    16   11   10 1    
    17   26   10 1    
    18   12   11 1    
    19   17   11 2    
    20   13   12 1    
    21   16   12 1    
    22   14   13 1    
    23   20   13 2    
    24   18   14 2    
    25   16   15 2    
    26   20   15 1    
    27   27   15 1    
    28   18   17 1    
    29   28   17 1    
    30   19   18 1    
    31   29   20 1    
    32   30   21 1    
    33   31   21 1    
    34   32   21 1    
@<TRIPOS>SUBSTRUCTURE
     1 CT7401      1 GROUP   
@<TRIPOS>SET

