#    Name: 3sa7_55A_1_INTS_M
#    Modification time : Mon Apr  7 22:09:58 2014

@<TRIPOS>MOLECULE
3sa7_55A_1_INTS_M
   91     0     9     0     0
SMALL
NO_CHARGES


@<TRIPOS>ATOM
      1 N          22.7640   23.9095   12.6025 N.am      2 SEC2        0.0000 
      2 N          21.8730   24.5670   11.6410 N.am      8 SEL2        0.0000 
      3 N          23.6550   23.2520   13.5640 N.am      5 SEP2        0.0000 
      4 O          21.7210   27.2760    9.3565 O.2       1 ALC1        0.0000 
      5 O          21.7350   26.6300   10.7580 O.2       7 ALL1        0.0000 
      6 O          21.7070   27.9220    7.9550 O.2       4 ALP1        0.0000 
      7 CA         22.6410   26.1985   13.4925 C.3       3 GLC5        0.0000 
      8 CA         22.2420   27.3400   11.9130 C.3       9 GLL5        0.0000 
      9 CA         23.0400   25.0570   15.0720 C.3       6 GLP5        0.0000 
     10 CA         23.8110   29.9675   11.3095 C.3       3 GLC5        0.0000 
     11 CA         23.6000   27.9960   11.6750 C.3       9 GLL5        0.0000 
     12 CA         24.0220   31.9390   10.9440 C.3       6 GLP5        0.0000 
     13 CA         26.1710   27.7375    9.4360 C.3       3 GLC5        0.0000 
     14 CA         24.8170   26.5990   10.1730 C.3       9 GLL5        0.0000 
     15 CA         27.5250   28.8760    8.6990 C.3       6 GLP5        0.0000 
     16 CA         27.1050   25.6275   11.8580 C.3       3 GLC5        0.0000 
     17 CA         26.0490   27.3940   12.2310 C.3       9 GLL5        0.0000 
     18 CA         28.1610   23.8610   11.4850 C.3       6 GLP5        0.0000 
     19 CA         27.2455   28.6855   12.5340 C.3       3 GLC5        0.0000 
     20 CA         28.4420   29.9770   12.8370 C.3       6 GLP5        0.0000 
     21 CA         26.7870   28.1350   10.4650 C.3       3 GLC5        0.0000 
     22 CA         21.1965   33.8875   13.3605 C.3       3 GLC5        0.0000 
     23 CA         22.1190   32.3490   14.5460 C.3       9 GLL5        0.0000 
     24 CA         20.2740   35.4260   12.1750 C.3       6 GLP5        0.0000 
     25 CA         23.0705   32.1440   12.7450 C.3       3 GLC5        0.0000 
     26 CA         22.9925   32.7610   18.7075 C.3       3 GLC5        0.0000 
     27 CA         22.2570   33.4220   16.9330 C.3       9 GLL5        0.0000 
     28 CA         23.7280   32.1000   20.4820 C.3       6 GLP5        0.0000 
     29 CA         23.9310   32.3165   16.1845 C.3       3 GLC5        0.0000 
     30 CA         25.6050   31.2110   15.4360 C.3       6 GLP5        0.0000 
     31 CA         17.5995   30.4710   17.7135 C.3       3 GLC5        0.0000 
     32 CA         19.0880   30.4040   16.0550 C.3       9 GLL5        0.0000 
     33 CA         16.1110   30.5380   19.3720 C.3       6 GLP5        0.0000 
     34 CA         23.0710   35.6390   14.8740 C.3       3 GLC5        0.0000 
     35 CA         22.0950   34.8340   16.4080 C.3       9 GLL5        0.0000 
     36 CA         24.0470   36.4440   13.3400 C.3       6 GLP5        0.0000 
     37 N          19.4440   27.7445   17.7105 N.am      2 SEC2        0.0000 
     38 N          19.9790   28.1800   16.3950 N.am      8 SEL2        0.0000 
     39 N          18.9090   27.3090   19.0260 N.am      5 SEP2        0.0000 
     40 O          18.7975   27.9730   16.8555 O.2       1 ALC1        0.0000 
     41 O          19.9790   28.1800   16.3950 O.2       7 ALL1        0.0000 
     42 O          17.6160   27.7660   17.3160 O.2       4 ALP1        0.0000 
     43 O          20.4145   26.6095   14.0485 O.2       1 ALC1        0.0000 
     44 O          20.5730   28.0400   13.4510 O.2       7 ALL1        0.0000 
     45 O          20.2560   25.1790   14.6460 O.2       4 ALP1        0.0000 
     46 CA         17.0725   30.1775    9.8195 C.3       3 GLC5        0.0000 
     47 CA         17.1170   28.2390   10.4410 C.3       9 GLL5        0.0000 
     48 CA         17.0280   32.1160    9.1980 C.3       6 GLP5        0.0000 
     49 CA         17.0030   30.5990   11.1760 C.3       3 GLC5        0.0000 
     50 CA         17.3850   28.5640   11.7570 C.3       9 GLL5        0.0000 
     51 CA         16.6210   32.6340   10.5950 C.3       6 GLP5        0.0000 
     52 N          14.4835   34.7030   19.8030 N.am      2 SEC2        0.0000 
     53 N          14.9560   35.3540   18.4440 N.am      8 SEL2        0.0000 
     54 N          14.0110   34.0520   21.1620 N.am      5 SEP2        0.0000 
     55 CA         16.3875   32.9640   18.7640 C.3       3 GLC5        0.0000 
     56 CA         15.5550   34.5220   17.5490 C.3       9 GLL5        0.0000 
     57 CA         17.2200   31.4060   19.9790 C.3       6 GLP5        0.0000 
     58 CA         13.8435   34.8975   18.8735 C.3       3 GLC5        0.0000 
     59 CA         12.1320   35.2730   20.1980 C.3       6 GLP5        0.0000 
     60 CA         14.2470   35.1655   15.8635 C.3       3 GLC5        0.0000 
     61 CA         12.9390   35.8090   14.1780 C.3       6 GLP5        0.0000 
     62 CA         15.2265   30.8150   15.2915 C.3       3 GLC5        0.0000 
     63 CA         16.0980   32.4700   16.3800 C.3       9 GLL5        0.0000 
     64 CA         14.3550   29.1600   14.2030 C.3       6 GLP5        0.0000 
     65 CA         24.5904   26.7602   13.7311 C.3       3 GLC5        0.0000 
     66 CA         24.0780   26.0880   15.5150 C.3       6 GLP5        0.0000 
     67 CA         23.7318   31.7903   15.3513 C.3       3 GLC5        0.0000 
     68 CA         23.9955   34.3560   17.3012 C.3       3 GLC5        0.0000 
     69 CA         25.8150   34.5840   17.9320 C.3       6 GLP5        0.0000 
     70 CA         17.2628   25.5651   13.8244 C.3       3 GLC5        0.0000 
     71 CA         18.2070   27.9990   14.0690 C.3       9 GLL5        0.0000 
     72 CA         16.4420   24.0710   14.8850 C.3       6 GLP5        0.0000 
     73 CA         16.2058   26.0772   11.5087 C.3       3 GLC5        0.0000 
     74 CA         18.1190   26.3160   12.1770 C.3       9 GLL5        0.0000 
     75 CA         14.4240   26.0030   11.5030 C.3       6 GLP5        0.0000 
     76 CA         15.9615   27.8148    8.8468 C.3       3 GLC5        0.0000 
     77 CA         14.6910   28.0360    7.4760 C.3       6 GLP5        0.0000 
     78 CA         15.8280   26.7983   10.8603 C.3       3 GLC5        0.0000 
     79 CA         17.3470   26.9480    9.9940 C.3       9 GLL5        0.0000 
     80 CA         18.6868   29.0594    9.8016 C.3       3 GLC5        0.0000 
     81 CA         20.0650   30.0400    8.6160 C.3       6 GLP5        0.0000 
     82 CA         16.0305   27.0440   11.8487 C.3       3 GLC5        0.0000 
     83 CA         16.0358   28.6716   13.3784 C.3       3 GLC5        0.0000 
     84 CA         15.3620   37.0385   15.7438 C.3       3 GLC5        0.0000 
     85 CA         16.5070   35.2060   16.8000 C.3       9 GLL5        0.0000 
     86 CA         14.1470   38.0370   14.5100 C.3       6 GLP5        0.0000 
     87 CA         15.6112   32.7700   14.0965 C.3       3 GLC5        0.0000 
     88 CA         14.6390   32.7430   12.1970 C.3       6 GLP5        0.0000 
     89 CA         15.9208   31.6770   18.1163 C.3       3 GLC5        0.0000 
     90 CA         13.8897   32.9815   16.4237 C.3       3 GLC5        0.0000 
     91 CA         12.0010   32.8070   15.9350 C.3       6 GLP5        0.0000 
@<TRIPOS>BOND
@<TRIPOS>SUBSTRUCTURE
     1 ALC1        4 GROUP        1 X    ALC  0     ROOT ALC X 1
     2 SEC2        1 GROUP        1 X    SEC  0     **** SEC X 2
     3 GLC5        7 GROUP        1 X    GLC  0     **** GLC X 6
     4 ALP1        6 GROUP        1 Y    ALP  0     ROOT ALP Y 8
     5 SEP2        3 GROUP        1 Y    SEP  0     **** SEP Y 9
     6 GLP5        9 GROUP        1 Y    GLP  0     **** GLP Y 13
     7 ALL1        5 GROUP        1 Z    ALL  0     ROOT ALL Z 15
     8 SEL2        2 GROUP        1 Z    SEL  0     **** SEL Z 16
     9 GLL5        8 GROUP        1 Z    GLL  0     **** GLL Z 20
@<TRIPOS>SET

