#    Name: 3sa7_55A_1_ligand
#    Modification time : Mon Apr  7 22:09:58 2014

@<TRIPOS>MOLECULE
3sa7_55A_1_ligand
   83    85     1     0     0
SMALL
NO_CHARGES


@<TRIPOS>ATOM
      1 C27        21.6130   25.3070   10.6930 C.2       1 55A102      0.0000 
      2 O27        21.8730   24.5670   11.6410 O.2       1 55A102      0.0000 
      3 C28        21.1340   24.7970    9.3630 C.3       1 55A102      0.0000 
      4 N27        21.7350   26.6300   10.7580 N.am      1 55A102      0.0000 
      5 C22        22.2420   27.3400   11.9130 C.3       1 55A102      0.0000 
      6 C21        21.2580   28.3760   12.3660 C.2       1 55A102      0.0000 
      7 O22        21.1230   29.4210   11.7460 O.2       1 55A102      0.0000 
      8 C23        23.6000   27.9960   11.6750 C.3       1 55A102      0.0000 
      9 C25        24.7130   26.9460   11.6520 C.3       1 55A102      0.0000 
     10 C24        24.8170   26.5990   10.1730 C.3       1 55A102      0.0000 
     11 C26        26.0490   27.3940   12.2310 C.3       1 55A102      0.0000 
     12 N11        19.2980   31.6390   15.2640 N.pl3     1 55A102      0.0000 
     13 C12        20.0940   32.6590   16.0000 C.3       1 55A102      0.0000 
     14 C13        21.5980   32.3900   15.9870 C.3       1 55A102      0.0000 
     15 C14        22.1190   32.3490   14.5460 C.3       1 55A102      0.0000 
     16 C15        22.2570   33.4220   16.9330 C.3       1 55A102      0.0000 
     17 C16        19.0880   30.4040   16.0550 C.3       1 55A102      0.0000 
     18 C17        19.9690   29.2900   15.4700 C.3       1 55A102      0.0000 
     19 C18        22.0950   34.8340   16.4080 C.3       1 55A102      0.0000 
     20 O18        19.9790   28.1800   16.3950 O.3       1 55A102      0.0000 
     21 C19        19.5130   28.8140   14.0790 C.3       1 55A102      0.0000 
     22 N20        20.5730   28.0400   13.4510 N.am      1 55A102      0.0000 
     23 C32        18.2070   27.9990   14.0690 C.3       1 55A102      0.0000 
     24 C33        18.1190   26.3160   12.1770 C.ar      1 55A102      0.0000 
     25 C34        17.8560   25.9870   10.8520 C.ar      1 55A102      0.0000 
     26 C35        17.3470   26.9480    9.9940 C.ar      1 55A102      0.0000 
     27 C36        17.1170   28.2390   10.4410 C.ar      1 55A102      0.0000 
     28 C37        17.3850   28.5640   11.7570 C.ar      1 55A102      0.0000 
     29 C38        17.8890   27.6060   12.6320 C.ar      1 55A102      0.0000 
     30 C1         15.4050   36.6220   18.3440 C.2       1 55A102      0.0000 
     31 N1         14.9560   35.3540   18.4440 N.2       1 55A102      0.0000 
     32 S1         16.6470   36.8740   17.1550 S.3       1 55A102      0.0000 
     33 C2         15.5550   34.5220   17.5490 C.ar      1 55A102      0.0000 
     34 C3         16.5070   35.2060   16.8000 C.ar      1 55A102      0.0000 
     35 C4         17.2600   34.5030   15.8320 C.ar      1 55A102      0.0000 
     36 C5         17.0690   33.1240   15.6120 C.ar      1 55A102      0.0000 
     37 C6         16.0980   32.4700   16.3800 C.ar      1 55A102      0.0000 
     38 C7         15.3630   33.1620   17.3410 C.ar      1 55A102      0.0000 
     39 S8         17.9340   32.2120   14.5560 S.o2      1 55A102      0.0000 
     40 O9         17.1910   31.0900   14.0820 O.2       1 55A102      0.0000 
     41 O10        18.4520   33.0780   13.5290 O.2       1 55A102      0.0000 
     42 H          21.4575   27.2426    9.9409 H         1 55A102      0.0000 
     43 H          22.3721   26.6320   12.7532 H         1 55A102      0.0000 
     44 H          23.7991   28.7111   12.4708 H         1 55A102      0.0000 
     45 H          23.5842   28.5216   10.7222 H         1 55A102      0.0000 
     46 H          24.3496   26.0665   12.1617 H         1 55A102      0.0000 
     47 H          19.7593   32.7092   17.0524 H         1 55A102      0.0000 
     48 H          19.9164   33.6597   15.5651 H         1 55A102      0.0000 
     49 H          21.7365   31.3952   16.4395 H         1 55A102      0.0000 
     50 H          23.3164   33.1810   17.0250 H         1 55A102      0.0000 
     51 H          21.7926   33.3374   17.9159 H         1 55A102      0.0000 
     52 H          18.0525   30.0870   16.0037 H         1 55A102      0.0000 
     53 H          19.3705   30.5587   17.0902 H         1 55A102      0.0000 
     54 H          20.9820   29.6890   15.3717 H         1 55A102      0.0000 
     55 H          19.3362   29.7182   13.4665 H         1 55A102      0.0000 
     56 H          20.7856   27.1123   13.9524 H         1 55A102      0.0000 
     57 H          17.4087   28.6063   14.4662 H         1 55A102      0.0000 
     58 H          18.3395   27.1121   14.6689 H         1 55A102      0.0000 
     59 H          18.4849   25.6002   12.8201 H         1 55A102      0.0000 
     60 H          18.0391   25.0348   10.5130 H         1 55A102      0.0000 
     61 H          17.1371   26.7001    9.0128 H         1 55A102      0.0000 
     62 H          16.7490   28.9499    9.7961 H         1 55A102      0.0000 
     63 H          17.2117   29.5233   12.0982 H         1 55A102      0.0000 
     64 H          15.1848   37.4355   18.7953 H         1 55A102      0.0000 
     65 H          17.9639   35.0117   15.2756 H         1 55A102      0.0000 
     66 H          15.9266   31.4636   16.2307 H         1 55A102      0.0000 
     67 H          14.6626   32.6520   17.9084 H         1 55A102      0.0000 
     68 H          21.7965   24.1772    8.9424 H         1 55A102      0.0000 
     69 H          20.2738   24.2939    9.4461 H         1 55A102      0.0000 
     70 H          20.9766   25.5417    8.7145 H         1 55A102      0.0000 
     71 H          24.9808   27.4103    9.6118 H         1 55A102      0.0000 
     72 H          25.5664   25.9618    9.9928 H         1 55A102      0.0000 
     73 H          23.9800   26.1710    9.8322 H         1 55A102      0.0000 
     74 H          26.7350   26.6677   12.1872 H         1 55A102      0.0000 
     75 H          26.4224   28.1800   11.7383 H         1 55A102      0.0000 
     76 H          25.9666   27.6619   13.1909 H         1 55A102      0.0000 
     77 H          23.1028   32.1733   14.5117 H         1 55A102      0.0000 
     78 H          21.6742   31.6311   14.0105 H         1 55A102      0.0000 
     79 H          21.9587   33.2128   14.0684 H         1 55A102      0.0000 
     80 H          22.5220   35.5063   17.0127 H         1 55A102      0.0000 
     81 H          22.5117   34.9449   15.5058 H         1 55A102      0.0000 
     82 H          21.1322   35.0891   16.3195 H         1 55A102      0.0000 
     83 H          19.0613   27.7870   16.3375 H         1 55A102      0.0000 
@<TRIPOS>BOND
     1    2    1 2    
     2    3    1 1    
     3    4    1 am   
     4   68    3 1    
     5   69    3 1    
     6   70    3 1    
     7    5    4 1    
     8   42    4 1    
     9    6    5 1    
    10    8    5 1    
    11   43    5 1    
    12    7    6 2    
    13   22    6 am   
    14    9    8 1    
    15   44    8 1    
    16   45    8 1    
    17   10    9 1    
    18   11    9 1    
    19   46    9 1    
    20   71   10 1    
    21   72   10 1    
    22   73   10 1    
    23   74   11 1    
    24   75   11 1    
    25   76   11 1    
    26   13   12 1    
    27   17   12 1    
    28   39   12 1    
    29   14   13 1    
    30   47   13 1    
    31   48   13 1    
    32   15   14 1    
    33   16   14 1    
    34   49   14 1    
    35   77   15 1    
    36   78   15 1    
    37   79   15 1    
    38   19   16 1    
    39   50   16 1    
    40   51   16 1    
    41   18   17 1    
    42   52   17 1    
    43   53   17 1    
    44   20   18 1    
    45   21   18 1    
    46   54   18 1    
    47   80   19 1    
    48   81   19 1    
    49   82   19 1    
    50   83   20 1    
    51   22   21 1    
    52   23   21 1    
    53   55   21 1    
    54   56   22 1    
    55   29   23 1    
    56   57   23 1    
    57   58   23 1    
    58   25   24 ar   
    59   29   24 ar   
    60   59   24 1    
    61   26   25 ar   
    62   60   25 1    
    63   27   26 ar   
    64   61   26 1    
    65   28   27 ar   
    66   62   27 1    
    67   29   28 ar   
    68   63   28 1    
    69   31   30 2    
    70   32   30 1    
    71   64   30 1    
    72   33   31 1    
    73   34   32 1    
    74   34   33 ar   
    75   38   33 ar   
    76   35   34 ar   
    77   36   35 ar   
    78   65   35 1    
    79   37   36 ar   
    80   39   36 1    
    81   38   37 ar   
    82   66   37 1    
    83   67   38 1    
    84   40   39 2    
    85   41   39 2    
@<TRIPOS>SUBSTRUCTURE
     1 55A102      1 GROUP   
@<TRIPOS>SET

