#    Name: 3AZA_7_CAVITY_N1_6.mol2
#    Modification time : Tue Mar 11 10:16:34 2014

@<TRIPOS>MOLECULE
3AZA_7_CAVITY_N1_6.mol2
   56     0     4     0     0
SMALL
NO_CHARGES


@<TRIPOS>ATOM
      1 CA        -48.4370   71.7868  -24.1126 C.3       3 GLY6        0.0000 
      2 N         -50.2651   70.8090  -24.5619 N.2       1 ALA2        0.0000 
      3 DU        -48.8889   70.8113  -25.1586 H         4 CUB7        0.0000 
      4 N         -47.5127   70.8137  -25.7554 N.2       1 ALA2        0.0000 
      5 O         -49.3408   69.8359  -26.2047 O.2       1 ALA2        0.0000 
      6 O         -47.9646   69.8382  -26.8014 O.2       1 ALA2        0.0000 
      7 N         -46.5884   69.8406  -27.3981 N.2       1 ALA2        0.0000 
      8 O         -47.0403   68.8651  -28.4442 O.2       1 ALA2        0.0000 
      9 O         -47.4922   67.8896  -29.4903 O.2       1 ALA2        0.0000 
     10 CA        -46.1160   67.8920  -30.0870 C.3       3 GLY6        0.0000 
     11 O         -47.9441   66.9142  -30.5363 O.2       1 ALA2        0.0000 
     12 CA        -46.5679   66.9165  -31.1330 C.3       3 GLY6        0.0000 
     13 N         -48.3960   65.9387  -31.5824 N.2       1 ALA2        0.0000 
     14 CA        -47.0198   65.9411  -32.1791 C.3       3 GLY6        0.0000 
     15 CA        -45.6436   65.9434  -32.7758 C.3       3 GLY6        0.0000 
     16 CA        -48.8479   64.9632  -32.6285 C.3       3 GLY6        0.0000 
     17 CA        -47.4717   64.9656  -33.2252 C.3       3 GLY6        0.0000 
     18 CA        -49.2998   63.9878  -33.6745 C.3       3 GLY6        0.0000 
     19 N         -48.9511   68.6964  -25.3105 N.2       1 ALA2        0.0000 
     20 N         -47.5749   68.6987  -25.9072 N.2       1 ALA2        0.0000 
     21 CA        -46.1782   65.7770  -30.2388 C.3       3 GLY6        0.0000 
     22 CA        -49.3825   64.7968  -30.0914 C.3       3 GLY6        0.0000 
     23 CA        -48.0063   64.7992  -30.6882 C.3       3 GLY6        0.0000 
     24 CA        -46.6301   64.8016  -31.2849 C.3       3 GLY6        0.0000 
     25 N         -49.8344   63.8214  -31.1375 N.2       1 ALA2        0.0000 
     26 CA        -48.4582   63.8237  -31.7342 C.3       3 GLY6        0.0000 
     27 CA        -47.0820   63.8261  -32.3309 C.3       3 GLY6        0.0000 
     28 N         -50.2863   62.8459  -32.1836 N.2       1 ALA2        0.0000 
     29 O         -48.9101   62.8483  -32.7803 O.2       1 ALA2        0.0000 
     30 CA        -47.5339   62.8506  -33.3770 C.3       3 GLY6        0.0000 
     31 NZ        -48.3543   70.9777  -27.6957 N.2       2 LYS4        0.0000 
     32 N         -46.9781   70.9801  -28.2924 N.2       1 ALA2        0.0000 
     33 CA        -48.8062   70.0022  -28.7417 C.3       3 GLY6        0.0000 
     34 O         -47.4300   70.0046  -29.3384 O.2       1 ALA2        0.0000 
     35 N         -46.0538   70.0070  -29.9352 N.2       1 ALA2        0.0000 
     36 O         -47.8819   69.0291  -30.3845 O.2       1 ALA2        0.0000 
     37 O         -46.5057   69.0315  -30.9812 O.2       1 ALA2        0.0000 
     38 N         -48.3338   68.0537  -31.4306 N.2       1 ALA2        0.0000 
     39 N         -46.9576   68.0560  -32.0273 N.2       1 ALA2        0.0000 
     40 N         -48.7857   67.0782  -32.4767 N.2       1 ALA2        0.0000 
     41 O         -47.4095   67.0806  -33.0734 O.2       1 ALA2        0.0000 
     42 N         -46.0333   67.0829  -33.6701 N.2       1 ALA2        0.0000 
     43 N         -47.8614   66.1051  -34.1194 N.2       1 ALA2        0.0000 
     44 N         -46.4852   66.1075  -34.7161 N.2       1 ALA2        0.0000 
     45 CA        -50.8209   62.6795  -29.6466 C.3       3 GLY6        0.0000 
     46 CA        -49.4447   62.6819  -30.2433 C.3       3 GLY6        0.0000 
     47 CA        -48.0685   62.6842  -30.8400 C.3       3 GLY6        0.0000 
     48 N         -49.4236   70.6449  -22.6216 N.2       1 ALA2        0.0000 
     49 N         -48.0474   70.6473  -23.2183 N.2       1 ALA2        0.0000 
     50 N         -49.8754   69.6695  -23.6677 N.2       1 ALA2        0.0000 
     51 N         -48.4992   69.6718  -24.2644 N.2       1 ALA2        0.0000 
     52 N         -47.1230   69.6742  -24.8611 N.2       1 ALA2        0.0000 
     53 CA        -49.0339   69.5054  -21.7274 C.3       3 GLY6        0.0000 
     54 CA        -47.6577   69.5078  -22.3241 C.3       3 GLY6        0.0000 
     55 CA        -49.4858   68.5300  -22.7734 C.3       3 GLY6        0.0000 
     56 CA        -48.1096   68.5323  -23.3701 C.3       3 GLY6        0.0000 
@<TRIPOS>BOND
@<TRIPOS>SUBSTRUCTURE
     1 ALA2        2 GROUP   
     2 LYS4       31 GROUP   
     3 GLY6        1 GROUP   
     4 CUB7        3 GROUP   
@<TRIPOS>SET

