#    Name: 3aza_KM0_7_INTS_M
#    Modification time : Mon Mar 24 18:30:42 2014

@<TRIPOS>MOLECULE
3aza_KM0_7_INTS_M
   36     0     3     0     0
SMALL
NO_CHARGES


@<TRIPOS>ATOM
      1 CA        -47.8375   66.0760  -29.4175 C.3       1 GLC5        0.0000 
      2 CA        -47.8620   67.5860  -30.7780 C.3       3 GLL5        0.0000 
      3 CA        -47.8130   64.5660  -28.0570 C.3       2 GLP5        0.0000 
      4 CA        -45.0470   67.1310  -30.6670 C.3       1 GLC5        0.0000 
      5 CA        -46.9320   67.5570  -29.7450 C.3       3 GLL5        0.0000 
      6 CA        -43.1620   66.7050  -31.5890 C.3       2 GLP5        0.0000 
      7 CA        -45.2320   71.5115  -28.0640 C.3       1 GLC5        0.0000 
      8 CA        -47.1890   71.0920  -28.3980 C.3       3 GLL5        0.0000 
      9 CA        -43.2750   71.9310  -27.7300 C.3       2 GLP5        0.0000 
     10 CA        -49.5430   69.2520  -20.8145 C.3       1 GLC5        0.0000 
     11 CA        -48.5630   68.5730  -22.2640 C.3       3 GLL5        0.0000 
     12 CA        -50.5230   69.9310  -19.3650 C.3       2 GLP5        0.0000 
     13 CA        -48.4675   67.1950  -22.4195 C.3       1 GLC5        0.0000 
     14 CA        -48.3720   65.8170  -22.5750 C.3       2 GLP5        0.0000 
     15 CA        -49.7615   69.0938  -29.9548 C.3       1 GLC5        0.0000 
     16 CA        -48.3560   69.8860  -30.2690 C.3       3 GLL5        0.0000 
     17 CA        -51.0580   68.8690  -29.2550 C.3       2 GLP5        0.0000 
     18 CA        -49.2275   68.2202  -29.7583 C.3       1 GLC5        0.0000 
     19 CA        -48.3263   69.7651  -32.0976 C.3       1 GLC5        0.0000 
     20 CA        -48.4890   71.0780  -33.4790 C.3       2 GLP5        0.0000 
     21 CA        -46.0780   66.7370  -28.6077 C.3       1 GLC5        0.0000 
     22 CA        -45.3330   65.3490  -27.8560 C.3       2 GLP5        0.0000 
     23 CA        -49.0640   69.0720  -29.1800 C.3       1 GLC5        0.0000 
     24 CA        -46.7140   68.6930  -28.9740 C.3       3 GLL5        0.0000 
     25 CA        -46.3040   71.2134  -30.5631 C.3       1 GLC5        0.0000 
     26 CA        -45.0680   71.9450  -32.0510 C.3       2 GLP5        0.0000 
     27 CA        -44.8747   70.8660  -26.7550 C.3       1 GLC5        0.0000 
     28 CA        -46.8380   70.2640  -26.1490 C.3       3 GLL5        0.0000 
     29 CA        -47.8160   67.4232  -23.2922 C.3       1 GLC5        0.0000 
     30 CA        -46.6340   68.8230  -24.2310 C.3       3 GLL5        0.0000 
     31 CA        -49.7858   72.5085  -23.0425 C.3       1 GLC5        0.0000 
     32 CA        -50.5630   71.5060  -24.8510 C.3       3 GLL5        0.0000 
     33 CA        -49.3590   73.9740  -21.6140 C.3       2 GLP5        0.0000 
     34 CA        -51.2745   72.2440  -24.8719 C.3       1 GLC5        0.0000 
     35 CA        -49.8620   70.5800  -24.0910 C.3       3 GLL5        0.0000 
     36 CA        -52.4770   73.3230  -24.9790 C.3       2 GLP5        0.0000 
@<TRIPOS>BOND
@<TRIPOS>SUBSTRUCTURE
     1 GLC5        1 GROUP        1 X    GLC  0     ROOT GLC X 6
     2 GLP5        3 GROUP        1 Y    GLP  0     ROOT GLP Y 13
     3 GLL5        2 GROUP        1 Z    GLL  0     ROOT GLL Z 20
@<TRIPOS>SET

