#    Name: 3aza_KM0_7_ligand
#    Modification time : Mon Mar 24 18:30:42 2014

@<TRIPOS>MOLECULE
3aza_KM0_7_ligand
   31    33     1     0     0
SMALL
NO_CHARGES


@<TRIPOS>ATOM
      1 C1        -48.3560   69.8860  -30.2690 C.ar      1 KM07        0.0000 
      2 C2        -48.5740   68.7510  -31.0400 C.ar      1 KM07        0.0000 
      3 C3        -47.8620   67.5860  -30.7780 C.ar      1 KM07        0.0000 
      4 C4        -46.9320   67.5570  -29.7450 C.ar      1 KM07        0.0000 
      5 C5        -46.7140   68.6930  -28.9740 C.ar      1 KM07        0.0000 
      6 C6        -47.4260   69.8570  -29.2360 C.ar      1 KM07        0.0000 
      7 C7        -47.1890   71.0920  -28.3980 C.3       1 KM07        0.0000 
      8 O8        -46.3210   70.7700  -27.3130 O.3       1 KM07        0.0000 
      9 C9        -46.8380   70.2640  -26.1490 C.ar      1 KM07        0.0000 
     10 C10       -46.1110   69.3380  -25.4110 C.ar      1 KM07        0.0000 
     11 C11       -46.6340   68.8230  -24.2310 C.ar      1 KM07        0.0000 
     12 C12       -47.8860   69.2360  -23.7880 C.ar      1 KM07        0.0000 
     13 C13       -48.6120   70.1630  -24.5270 C.ar      1 KM07        0.0000 
     14 C14       -48.0900   70.6780  -25.7080 C.ar      1 KM07        0.0000 
     15 N15       -48.7940   71.5790  -26.4280 N.ar      1 KM07        0.0000 
     16 C16       -50.0010   71.9940  -26.0260 C.ar      1 KM07        0.0000 
     17 C17       -50.5630   71.5060  -24.8510 C.ar      1 KM07        0.0000 
     18 C18       -49.8620   70.5800  -24.0910 C.ar      1 KM07        0.0000 
     19 CL19      -48.5630   68.5730  -22.2640 Cl        1 KM07        0.0000 
     20 H         -48.8826   70.7483  -30.4622 H         1 KM07        0.0000 
     21 H         -49.2617   68.7722  -31.8043 H         1 KM07        0.0000 
     22 H         -48.0233   66.7456  -31.3484 H         1 KM07        0.0000 
     23 H         -46.4054   66.6952  -29.5513 H         1 KM07        0.0000 
     24 H         -46.0259   68.6716  -28.2100 H         1 KM07        0.0000 
     25 H         -48.1608   71.4559  -28.0431 H         1 KM07        0.0000 
     26 H         -46.7573   71.8659  -29.0442 H         1 KM07        0.0000 
     27 H         -45.1843   69.0332  -25.7385 H         1 KM07        0.0000 
     28 H         -46.0963   68.1373  -23.6856 H         1 KM07        0.0000 
     29 H         -50.5433   72.6882  -26.5817 H         1 KM07        0.0000 
     30 H         -51.4883   71.8287  -24.5496 H         1 KM07        0.0000 
     31 H         -50.2595   70.2115  -23.2252 H         1 KM07        0.0000 
@<TRIPOS>BOND
     1    2    1 ar   
     2    6    1 ar   
     3   20    1 1    
     4    3    2 ar   
     5   21    2 1    
     6    4    3 ar   
     7   22    3 1    
     8    5    4 ar   
     9   23    4 1    
    10    6    5 ar   
    11   24    5 1    
    12    7    6 1    
    13    8    7 1    
    14   25    7 1    
    15   26    7 1    
    16    9    8 1    
    17   10    9 ar   
    18   14    9 ar   
    19   11   10 ar   
    20   27   10 1    
    21   12   11 ar   
    22   28   11 1    
    23   13   12 ar   
    24   19   12 1    
    25   14   13 ar   
    26   18   13 ar   
    27   15   14 ar   
    28   16   15 ar   
    29   17   16 ar   
    30   29   16 1    
    31   18   17 ar   
    32   30   17 1    
    33   31   18 1    
@<TRIPOS>SUBSTRUCTURE
     1 KM07        1 GROUP   
@<TRIPOS>SET

