#    Name: 4gr0_R4B_1_INTS_M
#    Modification time : Mon Mar 24 23:33:57 2014

@<TRIPOS>MOLECULE
4gr0_R4B_1_INTS_M
   88     0    12     0     0
SMALL
NO_CHARGES


@<TRIPOS>ATOM
      1 N         -10.8795   25.9220   -5.2860 N.am      2 SEC2        0.0000 
      2 N          -9.6010   26.0450   -4.7330 N.am     10 SEL2        0.0000 
      3 N         -12.1580   25.7990   -5.8390 N.am      6 SEP2        0.0000 
      4 CA         -4.9070   24.8435   -6.2635 C.3       4 GLC5        0.0000 
      5 CA         -5.7580   23.9730   -4.4250 C.3      12 GLL5        0.0000 
      6 CA         -4.0560   25.7140   -8.1020 C.3       8 GLP5        0.0000 
      7 CA         -3.9315   21.2100   -5.2020 C.3       4 GLC5        0.0000 
      8 CA         -3.4430   22.2520   -6.9280 C.3      12 GLL5        0.0000 
      9 CA         -4.4200   20.1680   -3.4760 C.3       8 GLP5        0.0000 
     10 CA         -2.7370   20.5555   -8.6765 C.3       4 GLC5        0.0000 
     11 CA         -2.1190   22.2030   -7.3680 C.3      12 GLL5        0.0000 
     12 CA         -3.3550   18.9080   -9.9850 C.3       8 GLP5        0.0000 
     13 CA         -1.2475   20.7025   -6.2335 C.3       4 GLC5        0.0000 
     14 CA         -0.3760   19.2020   -5.0990 C.3       8 GLP5        0.0000 
     15 CA         -0.1215   25.0325   -4.3980 C.3       4 GLC5        0.0000 
     16 CA         -1.5210   23.8260   -5.6810 C.3      12 GLL5        0.0000 
     17 CA          1.2780   26.2390   -3.1150 C.3       8 GLP5        0.0000 
     18 CA         -3.2440   26.0360   -5.2575 C.3       4 GLC5        0.0000 
     19 CA         -2.8330   23.8780   -5.2410 C.3      12 GLL5        0.0000 
     20 CA         -3.6550   28.1940   -5.2740 C.3       8 GLP5        0.0000 
     21 CA          2.5945   20.1900  -10.0260 C.3       4 GLC5        0.0000 
     22 CA          3.1990   20.4700   -8.3220 C.3      12 GLL5        0.0000 
     23 CA          1.9900   19.9100  -11.7300 C.3       8 GLP5        0.0000 
     24 CA          2.5605   18.9015   -8.0965 C.3       4 GLC5        0.0000 
     25 CA          1.9220   17.3330   -7.8710 C.3       8 GLP5        0.0000 
     26 CA          4.7820   23.7325   -6.7015 C.3       4 GLC5        0.0000 
     27 CA          2.9980   23.1440   -7.7060 C.3      12 GLL5        0.0000 
     28 CA          6.5660   24.3210   -5.6970 C.3       8 GLP5        0.0000 
     29 CA          2.5785   24.5685   -9.1075 C.3       4 GLC5        0.0000 
     30 CA          2.1590   25.9930  -10.5090 C.3       8 GLP5        0.0000 
     31 CA          1.1260   25.2275   -5.0590 C.3       4 GLC5        0.0000 
     32 CA          0.9740   24.2160   -7.0030 C.3      12 GLL5        0.0000 
     33 CA        -10.3955   27.1130   -1.8635 C.3       4 GLC5        0.0000 
     34 CA         -9.2530   25.5590   -1.8010 C.3      12 GLL5        0.0000 
     35 CA        -11.5380   28.6670   -1.9260 C.3       8 GLP5        0.0000 
     36 Zn         -6.6285   24.5970    0.2250 Zn        3 ZIC7        0.0000 
     37 Zn         -7.3260   25.2370    0.0620 Zn       11 ZIL7        0.0000 
     38 Zn         -5.9310   23.9570    0.3880 Zn        7 ZIP7        0.0000 
     39 N          -9.1535   22.4235   -1.1235 N.am      2 SEC2        0.0000 
     40 N          -9.0670   23.3730   -0.1970 N.am     10 SEL2        0.0000 
     41 N          -9.2400   21.4740   -2.0500 N.am      6 SEP2        0.0000 
     42 O          -6.4020   27.4075   -3.5575 O.2       1 ALC1        0.0000 
     43 O          -7.9810   27.5010   -4.1610 O.2       9 ALL1        0.0000 
     44 O          -4.8230   27.3140   -2.9540 O.2       5 ALP1        0.0000 
     45 CA        -10.6025   28.2120   -4.9500 C.3       4 GLC5        0.0000 
     46 CA         -8.4690   28.5010   -5.1060 C.3      12 GLL5        0.0000 
     47 CA        -12.7360   27.9230   -4.7940 C.3       8 GLP5        0.0000 
     48 N          -5.4235   27.3160   -6.7630 N.am      2 SEC2        0.0000 
     49 N          -6.6020   28.0250   -6.5580 N.am     10 SEL2        0.0000 
     50 N          -4.2450   26.6070   -6.9680 N.am      6 SEP2        0.0000 
     51 CA         -9.9470   29.2795   -3.2165 C.3       4 GLC5        0.0000 
     52 CA         -8.3560   29.8920   -4.5070 C.3      12 GLL5        0.0000 
     53 CA         -6.2740   30.2715   -4.8220 C.3       4 GLC5        0.0000 
     54 CA         -4.1920   30.6510   -5.1370 C.3       8 GLP5        0.0000 
     55 O          -9.8925   28.8915   -7.2195 O.2       1 ALC1        0.0000 
     56 O          -8.4740   28.8340   -7.5120 O.2       9 ALL1        0.0000 
     57 O         -11.3110   28.9490   -6.9270 O.2       5 ALP1        0.0000 
     58 CA         -8.3900   26.9800   -8.6505 C.3       4 GLC5        0.0000 
     59 CA         -7.8460   28.9790   -8.8150 C.3      12 GLL5        0.0000 
     60 CA         -8.9340   24.9810   -8.4860 C.3       8 GLP5        0.0000 
     61 CA         -6.6340   27.1920   -8.7665 C.3       4 GLC5        0.0000 
     62 CA         -5.4220   25.4050   -8.7180 C.3       8 GLP5        0.0000 
     63 CA        -10.0065   27.5600   -9.6310 C.3       4 GLC5        0.0000 
     64 CA         -8.8850   29.3380   -9.8750 C.3      12 GLL5        0.0000 
     65 CA        -11.1280   25.7820   -9.3870 C.3       8 GLP5        0.0000 
     66 CA         -6.1620   22.8695   -3.0245 C.3       4 GLC5        0.0000 
     67 CA         -7.0930   23.5790   -4.3140 C.3      12 GLL5        0.0000 
     68 CA         -5.6090   21.8470   -1.8950 C.3       8 GLP5        0.0000 
     69 CA         -3.9272   22.4263   -4.0690 C.3       4 GLC5        0.0000 
     70 CA         -3.7880   23.1050   -5.8850 C.3      12 GLL5        0.0000 
     71 CA         -4.5440   21.3610   -2.5750 C.3       8 GLP5        0.0000 
     72 CA         -3.8357   24.1962   -7.2543 C.3       4 GLC5        0.0000 
     73 CA         -2.8490   24.1582   -7.5788 C.3       4 GLC5        0.0000 
     74 CA         -3.1165   24.7830   -6.7815 C.3       4 GLC5        0.0000 
     75 CA          1.3962   21.3775   -5.8330 C.3       4 GLC5        0.0000 
     76 CA          0.9530   21.8600   -7.5000 C.3      12 GLL5        0.0000 
     77 CA          1.1590   20.8560   -4.0140 C.3       8 GLP5        0.0000 
     78 CA          2.4124   22.4438   -9.6715 C.3       4 GLC5        0.0000 
     79 CA          2.5090   22.3660  -11.6640 C.3       8 GLP5        0.0000 
     80 CA          0.3138   22.0345   -5.3395 C.3       4 GLC5        0.0000 
     81 CA          0.2800   23.0120   -7.1180 C.3      12 GLL5        0.0000 
     82 CA          0.8492   24.5843   -8.6582 C.3       4 GLC5        0.0000 
     83 CA          0.7330   25.5360  -10.1810 C.3       8 GLP5        0.0000 
     84 CA        -11.5328   27.3750   -0.3365 C.3       4 GLC5        0.0000 
     85 CA        -11.1340   25.7940    0.7560 C.3      12 GLL5        0.0000 
     86 CA        -12.1617   24.4464    0.9752 C.3       4 GLC5        0.0000 
     87 CA        -11.9210   26.3720    1.7500 C.3      12 GLL5        0.0000 
     88 CA        -13.1350   22.8600    0.6350 C.3       8 GLP5        0.0000 
@<TRIPOS>BOND
@<TRIPOS>SUBSTRUCTURE
     1 ALC1       42 GROUP        1 X    ALC  0     ROOT ALC X 1
     2 SEC2        1 GROUP        1 X    SEC  0     **** SEC X 2
     3 ZIC7       36 GROUP        1 X    ZIC  0     **** ZIC X 5
     4 GLC5        4 GROUP        1 X    GLC  0     **** GLC X 6
     5 ALP1       44 GROUP        1 Y    ALP  0     ROOT ALP Y 8
     6 SEP2        3 GROUP        1 Y    SEP  0     **** SEP Y 9
     7 ZIP7       38 GROUP        1 Y    ZIP  0     **** ZIP Y 12
     8 GLP5        6 GROUP        1 Y    GLP  0     **** GLP Y 13
     9 ALL1       43 GROUP        1 Z    ALL  0     ROOT ALL Z 15
    10 SEL2        2 GROUP        1 Z    SEL  0     **** SEL Z 16
    11 ZIL7       37 GROUP        1 Z    ZIL  0     **** ZIL Z 19
    12 GLL5        5 GROUP        1 Z    GLL  0     **** GLL Z 20
@<TRIPOS>SET

