#    Name: 4gr0_R4B_1_ligand
#    Modification time : Mon Mar 24 23:33:57 2014

@<TRIPOS>MOLECULE
4gr0_R4B_1_ligand
   74    77     1     0     0
SMALL
NO_CHARGES


@<TRIPOS>ATOM
      1 O4         -9.6010   26.0450   -4.7330 O.2       1 R4B306      0.0000 
      2 N1         -6.1200   22.2700   -5.8680 N.2       1 R4B306      0.0000 
      3 O1         -7.2270   22.5580   -5.1980 O.3       1 R4B306      0.0000 
      4 C25        -8.6420   26.3650   -4.0050 C.2       1 R4B306      0.0000 
      5 C17        -8.1980   25.4570   -2.9020 C.3       1 R4B306      0.0000 
      6 C16        -8.2510   24.0430   -3.4520 C.3       1 R4B306      0.0000 
      7 C14        -5.7580   23.9730   -4.4250 C.2       1 R4B306      0.0000 
      8 C13        -5.1900   23.1350   -5.4020 C.2       1 R4B306      0.0000 
      9 C12        -3.7880   23.1050   -5.8850 C.ar      1 R4B306      0.0000 
     10 C11        -3.4430   22.2520   -6.9280 C.ar      1 R4B306      0.0000 
     11 C10        -2.1190   22.2030   -7.3680 C.ar      1 R4B306      0.0000 
     12 C7         -1.1650   23.0020   -6.7430 C.ar      1 R4B306      0.0000 
     13 C8         -1.5210   23.8260   -5.6810 C.ar      1 R4B306      0.0000 
     14 C9         -2.8330   23.8780   -5.2410 C.ar      1 R4B306      0.0000 
     15 C15        -7.0930   23.5790   -4.3140 C.2       1 R4B306      0.0000 
     16 CL1         3.1990   20.4700   -8.3220 Cl        1 R4B306      0.0000 
     17 C1          2.3140   21.9380   -7.8040 C.ar      1 R4B306      0.0000 
     18 C2          0.9530   21.8600   -7.5000 C.ar      1 R4B306      0.0000 
     19 C3          2.9980   23.1440   -7.7060 C.ar      1 R4B306      0.0000 
     20 C4          2.3280   24.2900   -7.3030 C.ar      1 R4B306      0.0000 
     21 C5          0.9740   24.2160   -7.0030 C.ar      1 R4B306      0.0000 
     22 C6          0.2800   23.0120   -7.1180 C.ar      1 R4B306      0.0000 
     23 C18        -9.2530   25.5590   -1.8010 C.3       1 R4B306      0.0000 
     24 P1         -8.7640   24.8480   -0.2020 P.3       1 R4B306      0.0000 
     25 O2         -7.3260   25.2370    0.0620 O.co2     1 R4B306      0.0000 
     26 O3         -9.0670   23.3730   -0.1970 O.co2     1 R4B306      0.0000 
     27 C19        -9.7780   25.5930    1.0060 C.ar      1 R4B306      0.0000 
     28 C20        -9.2110   25.9490    2.2180 C.ar      1 R4B306      0.0000 
     29 C21       -10.0000   26.5340    3.2030 C.ar      1 R4B306      0.0000 
     30 C22       -11.3470   26.7440    2.9640 C.ar      1 R4B306      0.0000 
     31 BR1       -12.3740   27.5440    4.3510 Br        1 R4B306      0.0000 
     32 C23       -11.9210   26.3720    1.7500 C.ar      1 R4B306      0.0000 
     33 C24       -11.1340   25.7940    0.7560 C.ar      1 R4B306      0.0000 
     34 N2         -7.9810   27.5010   -4.1610 N.am      1 R4B306      0.0000 
     35 C26        -8.4690   28.5010   -5.1060 C.3       1 R4B306      0.0000 
     36 C30        -7.7640   28.4380   -6.4610 C.2       1 R4B306      0.0000 
     37 O7         -6.6020   28.0250   -6.5580 O.2       1 R4B306      0.0000 
     38 C27        -8.3560   29.8920   -4.5070 C.3       1 R4B306      0.0000 
     39 N3         -8.4740   28.8340   -7.5120 N.am      1 R4B306      0.0000 
     40 C31        -7.8460   28.9790   -8.8150 C.3       1 R4B306      0.0000 
     41 C35        -6.7690   30.0600   -8.7190 C.2       1 R4B306      0.0000 
     42 O10        -5.6020   29.8270   -9.0490 O.2       1 R4B306      0.0000 
     43 C32        -8.8850   29.3380   -9.8750 C.3       1 R4B306      0.0000 
     44 N4         -7.1650   31.2380   -8.2450 N.am      1 R4B306      0.0000 
     45 H          -7.2673   25.6949   -2.5518 H         1 R4B306      0.0000 
     46 H          -9.2004   23.9248   -4.0369 H         1 R4B306      0.0000 
     47 H          -8.3629   23.3315   -2.5924 H         1 R4B306      0.0000 
     48 H          -5.3279   24.6479   -3.9542 H         1 R4B306      0.0000 
     49 H          -4.1536   21.6630   -7.3717 H         1 R4B306      0.0000 
     50 H          -1.8547   21.5877   -8.1395 H         1 R4B306      0.0000 
     51 H          -0.7997   24.4026   -5.2186 H         1 R4B306      0.0000 
     52 H          -3.0947   24.4762   -4.4542 H         1 R4B306      0.0000 
     53 H           0.4635   20.9656   -7.5592 H         1 R4B306      0.0000 
     54 H           4.0006   23.1856   -7.9325 H         1 R4B306      0.0000 
     55 H           2.8262   25.1818   -7.2273 H         1 R4B306      0.0000 
     56 H           0.4714   25.0639   -6.6899 H         1 R4B306      0.0000 
     57 H         -10.1609   25.0131   -2.0249 H         1 R4B306      0.0000 
     58 H          -9.4951   26.5795   -1.5320 H         1 R4B306      0.0000 
     59 H          -8.2123   25.7830    2.3919 H         1 R4B306      0.0000 
     60 H          -9.5830   26.8070    4.1002 H         1 R4B306      0.0000 
     61 H         -12.9239   26.5238    1.5879 H         1 R4B306      0.0000 
     62 H         -11.5425   25.5233   -0.1372 H         1 R4B306      0.0000 
     63 H          -7.1214   27.7362   -3.6477 H         1 R4B306      0.0000 
     64 H          -9.5461   28.3240   -5.2932 H         1 R4B306      0.0000 
     65 H          -9.4823   29.0537   -7.4598 H         1 R4B306      0.0000 
     66 H          -7.3655   28.0545   -9.1036 H         1 R4B306      0.0000 
     67 H          -6.4525   31.9315   -8.1385 H         1 R4B306      0.0000 
     68 H          -8.1395   31.3239   -8.0379 H         1 R4B306      0.0000 
     69 H          -7.4104   30.1214   -4.2764 H         1 R4B306      0.0000 
     70 H          -8.6828   30.5957   -5.1379 H         1 R4B306      0.0000 
     71 H          -8.8919   29.9794   -3.6673 H         1 R4B306      0.0000 
     72 H          -8.4721   29.4409  -10.7799 H         1 R4B306      0.0000 
     73 H          -9.5929   28.6361   -9.9539 H         1 R4B306      0.0000 
     74 H          -9.3481   30.1989   -9.6645 H         1 R4B306      0.0000 
@<TRIPOS>BOND
     1    4    1 2    
     2    3    2 1    
     3    8    2 2    
     4   15    3 1    
     5    5    4 1    
     6   34    4 am   
     7    6    5 1    
     8   23    5 1    
     9   45    5 1    
    10   15    6 1    
    11   46    6 1    
    12   47    6 1    
    13    8    7 1    
    14   15    7 2    
    15   48    7 1    
    16    9    8 1    
    17   10    9 ar   
    18   14    9 ar   
    19   11   10 ar   
    20   49   10 1    
    21   12   11 ar   
    22   50   11 1    
    23   13   12 ar   
    24   22   12 1    
    25   14   13 ar   
    26   51   13 1    
    27   52   14 1    
    28   17   16 1    
    29   18   17 ar   
    30   19   17 ar   
    31   22   18 ar   
    32   53   18 1    
    33   20   19 ar   
    34   54   19 1    
    35   21   20 ar   
    36   55   20 1    
    37   22   21 ar   
    38   56   21 1    
    39   24   23 1    
    40   57   23 1    
    41   58   23 1    
    42   25   24 ar   
    43   26   24 ar   
    44   27   24 1    
    45   28   27 ar   
    46   33   27 ar   
    47   29   28 ar   
    48   59   28 1    
    49   30   29 ar   
    50   60   29 1    
    51   31   30 1    
    52   32   30 ar   
    53   33   32 ar   
    54   61   32 1    
    55   62   33 1    
    56   35   34 1    
    57   63   34 1    
    58   36   35 1    
    59   38   35 1    
    60   64   35 1    
    61   37   36 2    
    62   39   36 am   
    63   69   38 1    
    64   70   38 1    
    65   71   38 1    
    66   40   39 1    
    67   65   39 1    
    68   41   40 1    
    69   43   40 1    
    70   66   40 1    
    71   42   41 2    
    72   44   41 am   
    73   72   43 1    
    74   73   43 1    
    75   74   43 1    
    76   67   44 1    
    77   68   44 1    
@<TRIPOS>SUBSTRUCTURE
     1 R4B306      1 GROUP   
@<TRIPOS>SET

