#    Name: 2vf8_ADP_2_INTS_M
#    Modification time : Tue Mar 25 01:38:39 2014

@<TRIPOS>MOLECULE
2vf8_ADP_2_INTS_M
   43     0     9     0     0
SMALL
NO_CHARGES


@<TRIPOS>ATOM
      1 N          74.8535  126.4805  108.1320 N.am      1 SEC2        0.0000 
      2 N          73.4050  126.2650  108.7440 N.am      7 SEL2        0.0000 
      3 N          76.3020  126.6960  107.5200 N.am      4 SEP2        0.0000 
      4 N          72.8360  125.3635  112.3860 N.am      1 SEC2        0.0000 
      5 N          72.9600  125.8230  111.1000 N.am      7 SEL2        0.0000 
      6 N          72.7120  124.9040  113.6720 N.am      4 SEP2        0.0000 
      7 NZ         76.0300  127.6020  111.0080 N.4       2 LYC4        0.0000 
      8 NZ         75.3280  126.4900  110.5210 N.4       8 LYL4        0.0000 
      9 NZ         76.7320  128.7140  111.4950 N.4       5 LYP4        0.0000 
     10 N          75.8150  126.5930  109.0205 N.am      1 SEC2        0.0000 
     11 N          75.3280  126.4900  110.5210 N.am      7 SEL2        0.0000 
     12 N          76.3325  125.5390  111.0165 N.am      1 SEC2        0.0000 
     13 N          77.3370  124.5880  111.5120 N.am      4 SEP2        0.0000 
     14 N          75.4210  126.0010  111.9495 N.am      1 SEC2        0.0000 
     15 N          75.5140  125.5120  113.3780 N.am      4 SEP2        0.0000 
     16 N          76.0300  127.6020  111.0080 N.am      1 SEC2        0.0000 
     17 N          76.7320  128.7140  111.4950 N.am      4 SEP2        0.0000 
     18 N          73.1905  123.7860  112.5370 N.am      1 SEC2        0.0000 
     19 N          73.6690  122.6680  111.4020 N.am      7 SEL2        0.0000 
     20 N          72.5250  123.4945  111.4635 N.am      1 SEC2        0.0000 
     21 N          71.3810  124.3210  111.5250 N.am      4 SEP2        0.0000 
     22 N          72.9280  122.4930  112.6805 N.am      1 SEC2        0.0000 
     23 N          72.1870  122.3180  113.9590 N.am      4 SEP2        0.0000 
     24 CA         76.1150  122.4865  110.8525 C.3       3 GLC5        0.0000 
     25 CA         75.6130  121.3470  109.3560 C.3       9 GLL5        0.0000 
     26 CA         76.6170  123.6260  112.3490 C.3       6 GLP5        0.0000 
     27 CA         74.2960  120.8440  110.7540 C.3       3 GLC5        0.0000 
     28 CA         72.9790  120.3410  112.1520 C.3       6 GLP5        0.0000 
     29 CA         75.4080  118.2995  109.8650 C.3       3 GLC5        0.0000 
     30 CA         75.7660  120.0380  108.5850 C.3       9 GLL5        0.0000 
     31 CA         75.0500  116.5610  111.1450 C.3       6 GLP5        0.0000 
     32 CA         74.5260  117.7385  109.3845 C.3       3 GLC5        0.0000 
     33 CA         74.0020  118.9160  107.6240 C.3       9 GLL5        0.0000 
     34 CA         70.0240  117.1510  105.6545 C.3       3 GLC5        0.0000 
     35 CA         70.7130  116.0760  107.0930 C.3       9 GLL5        0.0000 
     36 CA         69.3350  118.2260  104.2160 C.3       6 GLP5        0.0000 
     37 CA         76.8572  119.8107  110.1372 C.3       3 GLC5        0.0000 
     38 CA         78.0250  118.9290  111.3040 C.3       6 GLP5        0.0000 
     39 CA         75.5185  121.2018  105.6050 C.3       3 GLC5        0.0000 
     40 CA         75.8240  120.2570  107.0960 C.3       9 GLL5        0.0000 
     41 CA         75.8680  122.3780  104.3990 C.3       6 GLP5        0.0000 
     42 CA         70.0609  118.1856  106.0590 C.3       3 GLC5        0.0000 
     43 CA         70.4360  118.6480  108.1570 C.3       9 GLL5        0.0000 
@<TRIPOS>BOND
@<TRIPOS>SUBSTRUCTURE
     1 SEC2        1 GROUP        1 X    SEC  0     ROOT SEC X 2
     2 LYC4        7 GROUP        1 X    LYC  0     **** LYC X 4
     3 GLC5       24 GROUP        1 X    GLC  0     **** GLC X 6
     4 SEP2        3 GROUP        1 Y    SEP  0     ROOT SEP Y 9
     5 LYP4        9 GROUP        1 Y    LYP  0     **** LYP Y 11
     6 GLP5       26 GROUP        1 Y    GLP  0     **** GLP Y 13
     7 SEL2        2 GROUP        1 Z    SEL  0     ROOT SEL Z 16
     8 LYL4        8 GROUP        1 Z    LYL  0     **** LYL Z 18
     9 GLL5       25 GROUP        1 Z    GLL  0     **** GLL Z 20
@<TRIPOS>SET

