#    Name: 2vf8_ADP_2_ligand
#    Modification time : Tue Mar 25 01:38:39 2014

@<TRIPOS>MOLECULE
2vf8_ADP_2_ligand
   39    41     1     0     0
SMALL
NO_CHARGES


@<TRIPOS>ATOM
      1 PB         74.0330  125.8840  110.0780 P.3       1 ADP1844     0.0000 
      2 O1B        73.4050  126.2650  108.7440 O.co2     1 ADP1844     0.0000 
      3 O2B        72.9600  125.8230  111.1000 O.co2     1 ADP1844     0.0000 
      4 O3B        75.3280  126.4900  110.5210 O.co2     1 ADP1844     0.0000 
      5 PA         73.6900  123.0270  109.9370 P.3       1 ADP1844     0.0000 
      6 O1A        72.3540  123.2840  109.3010 O.co2     1 ADP1844     0.0000 
      7 O2A        73.6690  122.6680  111.4020 O.co2     1 ADP1844     0.0000 
      8 O3A        74.5920  124.3610  109.8950 O.3       1 ADP1844     0.0000 
      9 O5'        74.5210  122.1090  108.8950 O.3       1 ADP1844     0.0000 
     10 C5'        75.6130  121.3470  109.3560 C.3       1 ADP1844     0.0000 
     11 C4'        75.7660  120.0380  108.5850 C.3       1 ADP1844     0.0000 
     12 O4'        74.6300  119.2520  108.8430 O.3       1 ADP1844     0.0000 
     13 C3'        75.8240  120.2570  107.0960 C.3       1 ADP1844     0.0000 
     14 O3'        76.8100  119.3340  106.6880 O.3       1 ADP1844     0.0000 
     15 C2'        74.5140  119.7940  106.5260 C.3       1 ADP1844     0.0000 
     16 O2'        74.7430  119.0270  105.3310 O.3       1 ADP1844     0.0000 
     17 C1'        74.0020  118.9160  107.6240 C.3       1 ADP1844     0.0000 
     18 N9         72.5870  119.0920  107.9140 N.pl3     1 ADP1844     0.0000 
     19 C8         72.0000  120.1610  108.4600 C.2       1 ADP1844     0.0000 
     20 N7         70.6720  119.9180  108.6170 N.2       1 ADP1844     0.0000 
     21 C5         70.4360  118.6480  108.1570 C.ar      1 ADP1844     0.0000 
     22 C6         69.2770  117.7170  108.0050 C.ar      1 ADP1844     0.0000 
     23 N6         68.0190  118.1080  108.4000 N.pl3     1 ADP1844     0.0000 
     24 N1         69.4960  116.4760  107.4870 N.ar      1 ADP1844     0.0000 
     25 C2         70.7130  116.0760  107.0930 C.ar      1 ADP1844     0.0000 
     26 N3         71.7880  116.8560  107.2070 N.ar      1 ADP1844     0.0000 
     27 C4         71.7170  118.1080  107.7230 C.ar      1 ADP1844     0.0000 
     28 H          75.5121  121.0861  110.4286 H         1 ADP1844     0.0000 
     29 H          76.5707  121.8971  109.2617 H         1 ADP1844     0.0000 
     30 H          76.6611  119.5494  108.9068 H         1 ADP1844     0.0000 
     31 H          76.0293  121.2266  106.8738 H         1 ADP1844     0.0000 
     32 H          73.8798  120.6114  106.4001 H         1 ADP1844     0.0000 
     33 H          74.1948  117.8822  107.3868 H         1 ADP1844     0.0000 
     34 H          72.4428  120.9905  108.7109 H         1 ADP1844     0.0000 
     35 H          67.9465  119.0241  108.7943 H         1 ADP1844     0.0000 
     36 H          67.2865  117.4421  108.2585 H         1 ADP1844     0.0000 
     37 H          70.8212  115.1060  106.6770 H         1 ADP1844     0.0000 
     38 H          76.4467  118.9192  105.8537 H         1 ADP1844     0.0000 
     39 H          74.4337  118.1025  105.5537 H         1 ADP1844     0.0000 
@<TRIPOS>BOND
     1    2    1 ar   
     2    3    1 ar   
     3    4    1 ar   
     4    8    1 1    
     5    6    5 ar   
     6    7    5 ar   
     7    8    5 1    
     8    9    5 1    
     9   10    9 1    
    10   11   10 1    
    11   28   10 1    
    12   29   10 1    
    13   12   11 1    
    14   13   11 1    
    15   30   11 1    
    16   17   12 1    
    17   14   13 1    
    18   15   13 1    
    19   31   13 1    
    20   38   14 1    
    21   16   15 1    
    22   17   15 1    
    23   32   15 1    
    24   39   16 1    
    25   18   17 1    
    26   33   17 1    
    27   19   18 1    
    28   27   18 1    
    29   20   19 2    
    30   34   19 1    
    31   21   20 1    
    32   22   21 ar   
    33   27   21 ar   
    34   23   22 1    
    35   24   22 ar   
    36   35   23 1    
    37   36   23 1    
    38   25   24 ar   
    39   26   25 ar   
    40   37   25 1    
    41   27   26 ar   
@<TRIPOS>SUBSTRUCTURE
     1 ADP1844     1 GROUP   
@<TRIPOS>SET

