#    Name: 1t2a_GDP_8_INTS_M
#    Modification time : Tue Mar 25 04:10:22 2014

@<TRIPOS>MOLECULE
1t2a_GDP_8_INTS_M
   64     0    12     0     0
SMALL
NO_CHARGES


@<TRIPOS>ATOM
      1 NZ          9.0920  -41.6150   11.8530 N.4       3 LYC4        0.0000 
      2 NZ         10.2200  -42.4020   12.0970 N.4      11 LYL4        0.0000 
      3 NZ          7.8920  -39.8130   10.7050 N.4       7 LYP4        0.0000 
      4 N           9.0920  -41.6150   11.8530 N.am      2 SEC2        0.0000 
      5 N          10.2200  -42.4020   12.0970 N.am     10 SEL2        0.0000 
      6 N           7.9640  -40.8280   11.6090 N.am      6 SEP2        0.0000 
      7 NZ         11.9200  -42.5905   15.2850 N.4       3 LYC4        0.0000 
      8 NZ         12.0160  -43.0300   13.8760 N.4      11 LYL4        0.0000 
      9 NZ         10.6030  -41.8650   17.1320 N.4       7 LYP4        0.0000 
     10 N          13.4250  -43.0245   14.1055 N.am      2 SEC2        0.0000 
     11 N          12.0160  -43.0300   13.8760 N.am     10 SEL2        0.0000 
     12 N          14.8340  -43.0190   14.3350 N.am      6 SEP2        0.0000 
     13 N          11.9200  -42.5905   15.2850 N.am      2 SEC2        0.0000 
     14 N          11.8240  -42.1510   16.6940 N.am      6 SEP2        0.0000 
     15 N          14.1545  -38.4820   10.6035 N.am      2 SEC2        0.0000 
     16 N          13.7410  -39.6780   11.3060 N.am     10 SEL2        0.0000 
     17 N          14.5680  -37.2860    9.9010 N.am      6 SEP2        0.0000 
     18 N          14.8400  -40.1300   12.0700 N.am      2 SEC2        0.0000 
     19 N          15.9390  -40.5820   12.8340 N.am      6 SEP2        0.0000 
     20 NZ         10.2745  -39.8895    9.9625 N.4       3 LYC4        0.0000 
     21 NZ         11.5990  -40.2550   10.0430 N.4      11 LYL4        0.0000 
     22 N          10.2745  -39.8895    9.9625 N.am      2 SEC2        0.0000 
     23 N          11.5990  -40.2550   10.0430 N.am     10 SEL2        0.0000 
     24 N           8.9500  -39.5240    9.8820 N.am      6 SEP2        0.0000 
     25 CA         12.7635  -40.0625   15.7275 C.3       4 GLC5        0.0000 
     26 CA         11.9050  -39.5280   13.7590 C.3      12 GLL5        0.0000 
     27 CA         13.6220  -40.5970   17.6960 C.3       8 GLP5        0.0000 
     28 CA         11.6090  -36.9245   15.5530 C.3       4 GLC5        0.0000 
     29 CA         10.9290  -38.7150   14.5770 C.3      12 GLL5        0.0000 
     30 CA         12.2890  -35.1340   16.5290 C.3       8 GLP5        0.0000 
     31 O           7.4190  -39.5945   15.6670 O.2       1 ALC1        0.0000 
     32 O           8.7740  -39.0080   15.6420 O.2       9 ALL1        0.0000 
     33 O           6.0640  -40.1810   15.6920 O.2       5 ALP1        0.0000 
     34 CA          7.3015  -38.6285   12.4725 C.3       4 GLC5        0.0000 
     35 CA          8.9540  -38.0150   13.4320 C.3      12 GLL5        0.0000 
     36 CA          5.6490  -39.2420   11.5130 C.3       8 GLP5        0.0000 
     37 O           6.7355  -37.8820   14.6965 O.2       1 ALC1        0.0000 
     38 O           7.5660  -37.7640   13.5720 O.2       9 ALL1        0.0000 
     39 O           5.9050  -38.0000   15.8210 O.2       5 ALP1        0.0000 
     40 CA         11.4745  -35.6955   13.0735 C.3       4 GLC5        0.0000 
     41 CA          9.7390  -36.8100   13.9350 C.3      12 GLL5        0.0000 
     42 CA         13.2100  -34.5810   12.2120 C.3       8 GLP5        0.0000 
     43 CA          9.5300  -37.0165   16.0285 C.3       4 GLC5        0.0000 
     44 CA          9.3210  -37.2230   18.1220 C.3       8 GLP5        0.0000 
     45 CA         11.0140  -35.9720   15.2320 C.3       4 GLC5        0.0000 
     46 N           8.6870  -32.4560   12.0020 N.am      2 SEC2        0.0000 
     47 N           9.5410  -33.5920   12.2580 N.am     10 SEL2        0.0000 
     48 N           7.8330  -31.3200   11.7460 N.am      6 SEP2        0.0000 
     49 CA         11.0745  -32.7315   11.0925 C.3       4 GLC5        0.0000 
     50 CA          9.9050  -34.4340   11.2160 C.3      12 GLL5        0.0000 
     51 CA         12.2440  -31.0290   10.9690 C.3       8 GLP5        0.0000 
     52 CA          8.2340  -33.1170   11.7285 C.3       4 GLC5        0.0000 
     53 CA          6.5630  -31.8000   12.2410 C.3       8 GLP5        0.0000 
     54 N          10.1865  -32.3255    8.0950 N.am      2 SEC2        0.0000 
     55 N           9.9480  -33.0890    9.2260 N.am     10 SEL2        0.0000 
     56 N          10.4250  -31.5620    6.9640 N.am      6 SEP2        0.0000 
     57 O          11.9170  -37.5330    7.6200 O.2       1 ALC1        0.0000 
     58 O          11.1010  -37.5140    8.8640 O.2       9 ALL1        0.0000 
     59 O          12.7330  -37.5520    6.3760 O.2       5 ALP1        0.0000 
     60 CA         12.9510  -37.9428   13.6120 C.3       4 GLC5        0.0000 
     61 CA         14.4850  -36.7640   13.0560 C.3       8 GLP5        0.0000 
     62 CA          9.7570  -38.0630   16.3027 C.3       4 GLC5        0.0000 
     63 CA         11.6060  -34.8293   11.8282 C.3       4 GLC5        0.0000 
     64 CA         10.0990  -35.7210   11.6730 C.3      12 GLL5        0.0000 
@<TRIPOS>BOND
@<TRIPOS>SUBSTRUCTURE
     1 ALC1       31 GROUP        1 X    ALC  0     ROOT ALC X 1
     2 SEC2        4 GROUP        1 X    SEC  0     **** SEC X 2
     3 LYC4        1 GROUP        1 X    LYC  0     **** LYC X 4
     4 GLC5       25 GROUP        1 X    GLC  0     **** GLC X 6
     5 ALP1       33 GROUP        1 Y    ALP  0     ROOT ALP Y 8
     6 SEP2        6 GROUP        1 Y    SEP  0     **** SEP Y 9
     7 LYP4        3 GROUP        1 Y    LYP  0     **** LYP Y 11
     8 GLP5       27 GROUP        1 Y    GLP  0     **** GLP Y 13
     9 ALL1       32 GROUP        1 Z    ALL  0     ROOT ALL Z 15
    10 SEL2        5 GROUP        1 Z    SEL  0     **** SEL Z 16
    11 LYL4        2 GROUP        1 Z    LYL  0     **** LYL Z 18
    12 GLL5       26 GROUP        1 Z    GLL  0     **** GLL Z 20
@<TRIPOS>SET

