#    Name: 1t2a_GDP_8_ligand
#    Modification time : Tue Mar 25 04:10:22 2014

@<TRIPOS>MOLECULE
1t2a_GDP_8_ligand
   40    42     1     0     0
SMALL
NO_CHARGES


@<TRIPOS>ATOM
      1 PB         11.5940  -42.9910   12.4050 P.3       1 GDP1302     0.0000 
      2 O1B        12.0620  -44.1460   11.5280 O.co2     1 GDP1302     0.0000 
      3 O2B        10.2200  -42.4020   12.0970 O.co2     1 GDP1302     0.0000 
      4 O3B        12.0160  -43.0300   13.8760 O.co2     1 GDP1302     0.0000 
      5 O3A        12.5690  -41.8280   11.8080 O.3       1 GDP1302     0.0000 
      6 PA         12.3930  -40.2890   11.2990 P.3       1 GDP1302     0.0000 
      7 O1A        13.7410  -39.6780   11.3060 O.co2     1 GDP1302     0.0000 
      8 O2A        11.5990  -40.2550   10.0430 O.co2     1 GDP1302     0.0000 
      9 O5'        11.4950  -39.5650   12.3990 O.3       1 GDP1302     0.0000 
     10 C5'        11.9050  -39.5280   13.7590 C.3       1 GDP1302     0.0000 
     11 C4'        10.9290  -38.7150   14.5770 C.3       1 GDP1302     0.0000 
     12 O4'        11.0360  -37.3120   14.1820 O.3       1 GDP1302     0.0000 
     13 C3'         9.4570  -39.0910   14.3900 C.3       1 GDP1302     0.0000 
     14 O3'         8.7740  -39.0080   15.6420 O.3       1 GDP1302     0.0000 
     15 C2'         8.9540  -38.0150   13.4320 C.3       1 GDP1302     0.0000 
     16 O2'         7.5660  -37.7640   13.5720 O.3       1 GDP1302     0.0000 
     17 C1'         9.7390  -36.8100   13.9350 C.3       1 GDP1302     0.0000 
     18 N9          9.8480  -35.6720   13.0250 N.pl3     1 GDP1302     0.0000 
     19 C8          9.5220  -34.3660   13.3080 C.2       1 GDP1302     0.0000 
     20 N7          9.5410  -33.5920   12.2580 N.2       1 GDP1302     0.0000 
     21 C5          9.9050  -34.4340   11.2160 C.2       1 GDP1302     0.0000 
     22 C6         10.1020  -34.1580    9.8320 C.2       1 GDP1302     0.0000 
     23 O6          9.9480  -33.0890    9.2260 O.2       1 GDP1302     0.0000 
     24 N1         10.5070  -35.2960    9.1360 N.am      1 GDP1302     0.0000 
     25 C2         10.6840  -36.5410    9.6950 C.2       1 GDP1302     0.0000 
     26 N2         11.1010  -37.5140    8.8640 N.pl3     1 GDP1302     0.0000 
     27 N3         10.4780  -36.8150   10.9760 N.2       1 GDP1302     0.0000 
     28 C4         10.0990  -35.7210   11.6730 C.2       1 GDP1302     0.0000 
     29 H          12.9019  -39.0748   13.8699 H         1 GDP1302     0.0000 
     30 H          11.9559  -40.5374   14.1949 H         1 GDP1302     0.0000 
     31 H          11.1708  -38.8007   15.6262 H         1 GDP1302     0.0000 
     32 H           9.4029  -40.0222   13.9210 H         1 GDP1302     0.0000 
     33 H           9.2800  -38.2387   12.4658 H         1 GDP1302     0.0000 
     34 H           9.2957  -36.5025   14.8810 H         1 GDP1302     0.0000 
     35 H           9.2982  -34.0757   14.2392 H         1 GDP1302     0.0000 
     36 H          10.6917  -35.1862    8.0927 H         1 GDP1302     0.0000 
     37 H          10.8104  -38.4429    9.0934 H         1 GDP1302     0.0000 
     38 H          11.6643  -37.2213    8.0913 H         1 GDP1302     0.0000 
     39 H           7.9008  -39.4715   15.4915 H         1 GDP1302     0.0000 
     40 H           7.3899  -37.8247   14.5545 H         1 GDP1302     0.0000 
@<TRIPOS>BOND
     1    2    1 ar   
     2    3    1 ar   
     3    4    1 ar   
     4    5    1 1    
     5    6    5 1    
     6    7    6 ar   
     7    8    6 ar   
     8    9    6 1    
     9   10    9 1    
    10   11   10 1    
    11   29   10 1    
    12   30   10 1    
    13   12   11 1    
    14   13   11 1    
    15   31   11 1    
    16   17   12 1    
    17   14   13 1    
    18   15   13 1    
    19   32   13 1    
    20   39   14 1    
    21   16   15 1    
    22   17   15 1    
    23   33   15 1    
    24   40   16 1    
    25   18   17 1    
    26   34   17 1    
    27   19   18 1    
    28   28   18 1    
    29   20   19 2    
    30   35   19 1    
    31   21   20 1    
    32   22   21 1    
    33   28   21 2    
    34   23   22 2    
    35   24   22 am   
    36   25   24 1    
    37   36   24 1    
    38   26   25 1    
    39   27   25 2    
    40   37   26 1    
    41   38   26 1    
    42   28   27 1    
@<TRIPOS>SUBSTRUCTURE
     1 GDP1302     1 GROUP   
@<TRIPOS>SET

