#    Name: 3q9x_EMO_1_INTS_M
#    Modification time : Tue Mar 25 09:13:23 2014

@<TRIPOS>MOLECULE
3q9x_EMO_1_INTS_M
   51     0     6     0     0
SMALL
NO_CHARGES


@<TRIPOS>ATOM
      1 CA         -3.9355   44.1460   22.9190 C.3       2 GLC5        0.0000 
      2 CA         -5.1280   45.7090   22.6740 C.3       6 GLL5        0.0000 
      3 CA         -2.7430   42.5830   23.1640 C.3       4 GLP5        0.0000 
      4 CA         -1.4460   46.9105   21.2985 C.3       2 GLC5        0.0000 
      5 CA         -3.3370   47.0160   21.7550 C.3       6 GLL5        0.0000 
      6 CA          0.4450   46.8050   20.8420 C.3       4 GLP5        0.0000 
      7 N          -2.2360   48.7260   20.4800 N.am      1 SEC2        0.0000 
      8 N          -2.5830   47.4110   20.7250 N.am      5 SEL2        0.0000 
      9 N          -1.8890   50.0410   20.2350 N.am      3 SEP2        0.0000 
     10 N          -1.4460   46.4915   20.9350 N.am      1 SEC2        0.0000 
     11 N          -0.3090   45.5720   21.1450 N.am      3 SEP2        0.0000 
     12 CA         -1.0575   47.5515   22.5450 C.3       2 GLC5        0.0000 
     13 CA         -3.0710   47.5620   23.0320 C.3       6 GLL5        0.0000 
     14 CA          0.9560   47.5410   22.0580 C.3       4 GLP5        0.0000 
     15 CA         -4.6250   49.1410   24.8285 C.3       2 GLC5        0.0000 
     16 CA         -3.8410   47.1660   24.1570 C.3       6 GLL5        0.0000 
     17 CA         -5.4090   51.1160   25.5000 C.3       4 GLP5        0.0000 
     18 CA         -5.0840   50.0010   30.6355 C.3       2 GLC5        0.0000 
     19 CA         -4.6410   47.8920   30.3390 C.3       6 GLL5        0.0000 
     20 CA         -5.5270   52.1100   30.9320 C.3       4 GLP5        0.0000 
     21 CA         -5.1325   44.5215   28.6810 C.3       2 GLC5        0.0000 
     22 CA         -5.9420   46.4020   28.7530 C.3       6 GLL5        0.0000 
     23 CA         -4.3230   42.6410   28.6090 C.3       4 GLP5        0.0000 
     24 CA         -7.2375   46.7300   25.2965 C.3       2 GLC5        0.0000 
     25 CA         -5.3960   46.2780   26.3590 C.3       6 GLL5        0.0000 
     26 CA         -9.0790   47.1820   24.2340 C.3       4 GLP5        0.0000 
     27 CA         -7.0373   46.5718   23.7722 C.3       2 GLC5        0.0000 
     28 CA         -4.8630   46.2140   23.9470 C.3       6 GLL5        0.0000 
     29 CA         -5.1088   44.0067   21.2613 C.3       2 GLC5        0.0000 
     30 CA         -5.4720   42.1110   20.4100 C.3       4 GLP5        0.0000 
     31 CA         -2.7590   45.1050   22.2480 C.3       2 GLC5        0.0000 
     32 CA         -4.3630   46.0960   21.5510 C.3       6 GLL5        0.0000 
     33 CA         -1.6680   43.6540   22.8430 C.3       4 GLP5        0.0000 
     34 CA         -3.6800   48.9620   21.6792 C.3       2 GLC5        0.0000 
     35 CA         -4.1560   50.6350   20.9650 C.3       4 GLP5        0.0000 
     36 CA         -5.7973   48.5375   26.6907 C.3       2 GLC5        0.0000 
     37 CA         -4.3750   47.2400   26.5380 C.3       6 GLL5        0.0000 
     38 CA         -7.3490   49.5620   26.2080 C.3       4 GLP5        0.0000 
     39 CA         -3.2637   45.8105   25.8152 C.3       2 GLC5        0.0000 
     40 CA         -1.6420   44.8620   25.1820 C.3       4 GLP5        0.0000 
     41 CA         -6.7453   48.3928   29.8932 C.3       2 GLC5        0.0000 
     42 CA         -4.9060   47.3510   28.9320 C.3       6 GLL5        0.0000 
     43 CA         -8.7170   49.1640   30.1510 C.3       4 GLP5        0.0000 
     44 CA         -6.3865   48.2193   27.5252 C.3       2 GLC5        0.0000 
     45 CA         -7.9900   46.7452   28.4360 C.3       2 GLC5        0.0000 
     46 CA         -9.9130   47.3470   28.7550 C.3       4 GLP5        0.0000 
     47 CA         -6.5715   47.8218   26.5640 C.3       2 GLC5        0.0000 
     48 CA         -6.1920   45.8850   27.4810 C.3       6 GLL5        0.0000 
     49 CA         -5.0220   44.3573   26.8695 C.3       2 GLC5        0.0000 
     50 CA         -4.2500   42.6330   26.8190 C.3       4 GLP5        0.0000 
     51 CA         -2.9008   45.8255   24.4764 C.3       2 GLC5        0.0000 
@<TRIPOS>BOND
@<TRIPOS>SUBSTRUCTURE
     1 SEC2        7 GROUP        1 X    SEC  0     ROOT SEC X 2
     2 GLC5        1 GROUP        1 X    GLC  0     **** GLC X 6
     3 SEP2        9 GROUP        1 Y    SEP  0     ROOT SEP Y 9
     4 GLP5        3 GROUP        1 Y    GLP  0     **** GLP Y 13
     5 SEL2        8 GROUP        1 Z    SEL  0     ROOT SEL Z 16
     6 GLL5        2 GROUP        1 Z    GLL  0     **** GLL Z 20
@<TRIPOS>SET

