#    Name: 3q9x_EMO_1_ligand
#    Modification time : Tue Mar 25 09:13:23 2014

@<TRIPOS>MOLECULE
3q9x_EMO_1_ligand
   30    32     1     0     0
SMALL
NO_CHARGES


@<TRIPOS>ATOM
      1 C1         -5.1280   45.7090   22.6740 C.ar      1 EMO400      0.0000 
      2 O1         -6.1660   44.8370   22.5210 O.3       1 EMO400      0.0000 
      3 C2         -4.3630   46.0960   21.5510 C.ar      1 EMO400      0.0000 
      4 C3         -3.3370   47.0160   21.7550 C.ar      1 EMO400      0.0000 
      5 O3         -2.5830   47.4110   20.7250 O.3       1 EMO400      0.0000 
      6 C4         -3.0710   47.5620   23.0320 C.ar      1 EMO400      0.0000 
      7 C5         -3.8410   47.1660   24.1570 C.ar      1 EMO400      0.0000 
      8 C6         -3.5910   47.6740   25.4620 C.2       1 EMO400      0.0000 
      9 O6         -2.6650   48.5100   25.6920 O.2       1 EMO400      0.0000 
     10 C7         -4.3750   47.2400   26.5380 C.ar      1 EMO400      0.0000 
     11 C8         -4.1160   47.7860   27.8090 C.ar      1 EMO400      0.0000 
     12 C9         -4.9060   47.3510   28.9320 C.ar      1 EMO400      0.0000 
     13 C10        -4.6410   47.8920   30.3390 C.3       1 EMO400      0.0000 
     14 C16        -5.9420   46.4020   28.7530 C.ar      1 EMO400      0.0000 
     15 C17        -6.1920   45.8850   27.4810 C.ar      1 EMO400      0.0000 
     16 O17        -7.2040   44.9650   27.3860 O.3       1 EMO400      0.0000 
     17 C18        -5.3960   46.2780   26.3590 C.ar      1 EMO400      0.0000 
     18 C19        -5.6400   45.7700   25.0480 C.2       1 EMO400      0.0000 
     19 O19        -6.5420   44.9040   24.8010 O.2       1 EMO400      0.0000 
     20 C20        -4.8630   46.2140   23.9470 C.ar      1 EMO400      0.0000 
     21 H          -4.5597   45.7151   20.6395 H         1 EMO400      0.0000 
     22 H          -2.3203   48.2461   23.1483 H         1 EMO400      0.0000 
     23 H          -3.3891   48.4745   27.9473 H         1 EMO400      0.0000 
     24 H          -6.4974   46.1038   29.5556 H         1 EMO400      0.0000 
     25 H          -3.7118   47.6872   30.6467 H         1 EMO400      0.0000 
     26 H          -4.7519   48.8849   30.3821 H         1 EMO400      0.0000 
     27 H          -5.2664   47.4977   31.0124 H         1 EMO400      0.0000 
     28 H          -6.1985   44.3208   23.3769 H         1 EMO400      0.0000 
     29 H          -1.8815   46.7045   20.6321 H         1 EMO400      0.0000 
     30 H          -7.2024   44.6766   26.4285 H         1 EMO400      0.0000 
@<TRIPOS>BOND
     1    2    1 1    
     2    3    1 ar   
     3   20    1 ar   
     4   28    2 1    
     5    4    3 ar   
     6   21    3 1    
     7    5    4 1    
     8    6    4 ar   
     9   29    5 1    
    10    7    6 ar   
    11   22    6 1    
    12    8    7 1    
    13   20    7 ar   
    14    9    8 2    
    15   10    8 1    
    16   11   10 ar   
    17   17   10 ar   
    18   12   11 ar   
    19   23   11 1    
    20   13   12 1    
    21   14   12 ar   
    22   25   13 1    
    23   26   13 1    
    24   27   13 1    
    25   15   14 ar   
    26   24   14 1    
    27   16   15 1    
    28   17   15 ar   
    29   30   16 1    
    30   18   17 1    
    31   19   18 2    
    32   20   18 1    
@<TRIPOS>SUBSTRUCTURE
     1 EMO400      1 GROUP   
@<TRIPOS>SET

