#    Name: 3tz8_AQM_1_INTS_M
#    Modification time : Mon Mar 24 21:12:32 2014

@<TRIPOS>MOLECULE
3tz8_AQM_1_INTS_M
   96     0    12     0     0
SMALL
NO_CHARGES


@<TRIPOS>ATOM
      1 CA        -11.6455   35.8915   -9.8630 C.3       4 GLC5        0.0000 
      2 CA        -11.5210   35.2570   -8.2100 C.3      12 GLL5        0.0000 
      3 CA        -11.7700   36.5260  -11.5160 C.3       8 GLP5        0.0000 
      4 CA        -13.3085   34.6730   -8.9575 C.3       4 GLC5        0.0000 
      5 CA        -15.0960   34.0890   -9.7050 C.3       8 GLP5        0.0000 
      6 CA        -12.2455   33.5935   -7.1130 C.3       4 GLC5        0.0000 
      7 CA        -12.9700   31.9300   -6.0160 C.3       8 GLP5        0.0000 
      8 CA        -10.3840   34.2815   -7.0770 C.3       4 GLC5        0.0000 
      9 CA         -9.2470   33.3060   -5.9440 C.3       8 GLP5        0.0000 
     10 N         -13.5995   34.9000   -7.4200 N.am      2 SEC2        0.0000 
     11 N         -12.4310   35.9160   -7.5100 N.am     10 SEL2        0.0000 
     12 N         -14.7680   33.8840   -7.3300 N.am      6 SEP2        0.0000 
     13 CA        -10.8410   36.7135   -9.6645 C.3       4 GLC5        0.0000 
     14 CA         -9.9120   36.9010   -7.8130 C.3      12 GLL5        0.0000 
     15 CA         -1.0590   28.4670   -4.9155 C.3       4 GLC5        0.0000 
     16 CA         -2.2430   28.2420   -6.6600 C.3      12 GLL5        0.0000 
     17 CA          0.1250   28.6920   -3.1710 C.3       8 GLP5        0.0000 
     18 CA         -2.6685   27.7840   -4.8635 C.3       4 GLC5        0.0000 
     19 CA         -3.0940   27.3260   -3.0670 C.3       8 GLP5        0.0000 
     20 CA         -3.4140   29.5605   -5.9015 C.3       4 GLC5        0.0000 
     21 CA         -4.5850   30.8790   -5.1430 C.3       8 GLP5        0.0000 
     22 CA         -0.7420   25.7395   -9.2515 C.3       4 GLC5        0.0000 
     23 CA         -2.0860   27.2100   -8.9120 C.3      12 GLL5        0.0000 
     24 CA          0.6020   24.2690   -9.5910 C.3       8 GLP5        0.0000 
     25 CA         -2.8130   25.5395   -8.2645 C.3       4 GLC5        0.0000 
     26 CA         -3.5400   23.8690   -7.6170 C.3       8 GLP5        0.0000 
     27 CA          0.7740   27.7210   -9.7880 C.3       4 GLC5        0.0000 
     28 CA         -0.0100   27.9260   -7.7230 C.3      12 GLL5        0.0000 
     29 CA          1.5580   27.5160  -11.8530 C.3       8 GLP5        0.0000 
     30 CA          0.2960   26.0975   -8.6570 C.3       4 GLC5        0.0000 
     31 CA          1.6855   27.1650   -7.7360 C.3       4 GLC5        0.0000 
     32 CA          3.3810   26.4040   -7.7490 C.3       8 GLP5        0.0000 
     33 N          -3.6540   32.6360   -6.9560 N.am      2 SEC2        0.0000 
     34 N          -4.3010   32.6590   -8.1360 N.am     10 SEL2        0.0000 
     35 N          -3.0070   32.6130   -5.7760 N.am      6 SEP2        0.0000 
     36 CA          1.3110   32.5185  -13.1110 C.3       4 GLC5        0.0000 
     37 CA          2.0850   32.4170  -11.5190 C.3      12 GLL5        0.0000 
     38 CA          0.5370   32.6200  -14.7030 C.3       8 GLP5        0.0000 
     39 CA          2.6130   30.5040  -12.4900 C.3       4 GLC5        0.0000 
     40 CA          3.1410   28.5910  -13.4610 C.3       8 GLP5        0.0000 
     41 CA          0.9820   33.8590  -12.7910 C.3       4 GLC5        0.0000 
     42 CA          2.1210   33.7850  -11.2630 C.3      12 GLL5        0.0000 
     43 CA         -0.1570   33.9330  -14.3190 C.3       8 GLP5        0.0000 
     44 CA          1.3875   29.9185  -12.0760 C.3       4 GLC5        0.0000 
     45 CA          1.0910   31.6350  -10.9400 C.3      12 GLL5        0.0000 
     46 CA          1.6840   28.2020  -13.2120 C.3       8 GLP5        0.0000 
     47 CA         -5.2495   36.9660  -11.3235 C.3       4 GLC5        0.0000 
     48 CA         -6.3100   35.6290  -10.1940 C.3      12 GLL5        0.0000 
     49 CA         -4.1890   38.3030  -12.4530 C.3       8 GLP5        0.0000 
     50 CA         -5.7515   33.4925   -6.5750 C.3       4 GLC5        0.0000 
     51 CA         -5.7230   35.1620   -7.9140 C.3      12 GLL5        0.0000 
     52 CA         -5.7800   31.8230   -5.2360 C.3       8 GLP5        0.0000 
     53 CA         -4.0730   36.1995   -6.9950 C.3       4 GLC5        0.0000 
     54 CA         -2.4230   37.2370   -6.0760 C.3       8 GLP5        0.0000 
     55 CA         -2.8900   29.9395  -10.8280 C.3       4 GLC5        0.0000 
     56 CA         -2.6020   30.4540   -8.8360 C.3      12 GLL5        0.0000 
     57 CA         -3.1780   29.4250  -12.8200 C.3       8 GLP5        0.0000 
     58 CA         -3.5935   30.6665   -6.9895 C.3       4 GLC5        0.0000 
     59 CA         -9.7965   39.9875   -8.2005 C.3       4 GLC5        0.0000 
     60 CA        -10.5510   38.8510   -6.4610 C.3      12 GLL5        0.0000 
     61 CA         -9.0420   41.1240   -9.9400 C.3       8 GLP5        0.0000 
     62 CA        -11.0460   43.0140   -6.1140 C.3       4 GLC5        0.0000 
     63 CA        -10.1830   42.6660   -4.1980 C.3      12 GLL5        0.0000 
     64 CA        -11.9090   43.3620   -8.0300 C.3       8 GLP5        0.0000 
     65 O          -3.3005   34.6895  -10.6160 O.2       1 ALC1        0.0000 
     66 O          -4.4270   34.2460   -9.7380 O.2       9 ALL1        0.0000 
     67 O          -2.1740   35.1330  -11.4940 O.2       5 ALP1        0.0000 
     68 O          -2.4960   33.8875  -10.6605 O.2       1 ALC1        0.0000 
     69 O          -2.8180   32.6420   -9.8270 O.2       9 ALL1        0.0000 
     70 CA         -3.2250   31.1725  -11.0440 C.3       4 GLC5        0.0000 
     71 CA         -2.1180   31.5520   -9.4300 C.3      12 GLL5        0.0000 
     72 CA         -4.3320   30.7930  -12.6580 C.3       8 GLP5        0.0000 
     73 OD1        -9.7735   42.5710   -0.4680 O.co2     3 ASC3        0.0000 
     74 OD1        -9.2900   43.3970   -1.9670 O.co2    11 ASL3        0.0000 
     75 OD1       -10.2570   41.7450    1.0310 O.co2     7 ASP3        0.0000 
     76 CA         -0.3153   32.8600  -11.8815 C.3       4 GLC5        0.0000 
     77 CA          0.1220   32.2050  -10.1060 C.3      12 GLL5        0.0000 
     78 CA         -1.2370   33.8000  -13.2400 C.3       8 GLP5        0.0000 
     79 CA        -13.1620   39.8715   -7.1575 C.3       4 GLC5        0.0000 
     80 CA        -13.1010   37.7630   -6.1970 C.3      12 GLL5        0.0000 
     81 CA        -13.3720   41.3720   -8.4200 C.3       8 GLP5        0.0000 
     82 CA         -0.2828   33.8855  -11.6883 C.3       4 GLC5        0.0000 
     83 CA          0.1710   33.5770   -9.8440 C.3      12 GLL5        0.0000 
     84 CA         -0.2187   32.8675   -8.0535 C.3       4 GLC5        0.0000 
     85 CA         -0.5840   32.8440   -6.1320 C.3       8 GLP5        0.0000 
     86 CA         -4.2805   30.4930   -8.8765 C.3       4 GLC5        0.0000 
     87 CA         -6.2010   29.9830   -8.6200 C.3       8 GLP5        0.0000 
     88 CA         -1.4720   31.9235   -7.6325 C.3       4 GLC5        0.0000 
     89 CA        -12.2067   40.2837   -7.2560 C.3       4 GLC5        0.0000 
     90 CA        -10.3085   36.4878   -5.5979 C.3       4 GLC5        0.0000 
     91 CA         -9.9910   34.9850   -4.2620 C.3       8 GLP5        0.0000 
     92 CA         -8.0983   34.6879   -6.9962 C.3       4 GLC5        0.0000 
     93 CA         -7.6390   36.5840   -8.4010 C.3      12 GLL5        0.0000 
     94 CA        -12.6295   38.1863   -3.9465 C.3       4 GLC5        0.0000 
     95 CA        -11.5320   39.5400   -5.7230 C.3      12 GLL5        0.0000 
     96 CA        -13.0170   37.4170   -2.0840 C.3       8 GLP5        0.0000 
@<TRIPOS>BOND
@<TRIPOS>SUBSTRUCTURE
     1 ALC1       65 GROUP        1 X    ALC  0     ROOT ALC X 1
     2 SEC2       10 GROUP        1 X    SEC  0     **** SEC X 2
     3 ASC3       73 GROUP        1 X    ASC  0     **** ASC X 3
     4 GLC5        1 GROUP        1 X    GLC  0     **** GLC X 6
     5 ALP1       67 GROUP        1 Y    ALP  0     ROOT ALP Y 8
     6 SEP2       12 GROUP        1 Y    SEP  0     **** SEP Y 9
     7 ASP3       75 GROUP        1 Y    ASP  0     **** ASP Y 10
     8 GLP5        3 GROUP        1 Y    GLP  0     **** GLP Y 13
     9 ALL1       66 GROUP        1 Z    ALL  0     ROOT ALL Z 15
    10 SEL2       11 GROUP        1 Z    SEL  0     **** SEL Z 16
    11 ASL3       74 GROUP        1 Z    ASL  0     **** ASL Z 17
    12 GLL5        2 GROUP        1 Z    GLL  0     **** GLL Z 20
@<TRIPOS>SET

