#    Name: 3tz8_AQM_1_ligand
#    Modification time : Mon Mar 24 21:12:32 2014

@<TRIPOS>MOLECULE
3tz8_AQM_1_ligand
   93    98     1     0     0
SMALL
NO_CHARGES


@<TRIPOS>ATOM
      1 N1        -10.2940   35.7310   -8.3680 N.ar      1 AQM1        0.0000 
      2 C2        -11.5210   35.2570   -8.2100 C.ar      1 AQM1        0.0000 
      3 N3        -12.4310   35.9160   -7.5100 N.ar      1 AQM1        0.0000 
      4 C4        -12.1310   37.0910   -6.9320 C.ar      1 AQM1        0.0000 
      5 C5        -10.8490   37.6280   -7.0690 C.ar      1 AQM1        0.0000 
      6 C6         -9.9120   36.9010   -7.8130 C.ar      1 AQM1        0.0000 
      7 CAA        -9.4080   45.5960    1.4820 C.3       1 AQM1        0.0000 
      8 CAB        -2.2430   28.2420   -6.6600 C.3       1 AQM1        0.0000 
      9 CAC        -2.0860   27.2100   -8.9120 C.3       1 AQM1        0.0000 
     10 CAD        -0.0100   27.9260   -7.7230 C.3       1 AQM1        0.0000 
     11 NAE         1.2330   35.6770  -10.1990 N.pl3     1 AQM1        0.0000 
     12 OAF        -9.1230   41.0540   -5.6150 O.2       1 AQM1        0.0000 
     13 OAG        -4.3010   32.6590   -8.1360 O.2       1 AQM1        0.0000 
     14 CAH         2.0850   32.4170  -11.5190 C.ar      1 AQM1        0.0000 
     15 CAI         2.1210   33.7850  -11.2630 C.ar      1 AQM1        0.0000 
     16 CAJ         1.0910   31.6350  -10.9400 C.ar      1 AQM1        0.0000 
     17 CAK        -6.3100   35.6290  -10.1940 C.ar      1 AQM1        0.0000 
     18 CAL        -5.7230   35.1620   -7.9140 C.ar      1 AQM1        0.0000 
     19 CAM        -7.3850   36.4210   -9.7650 C.ar      1 AQM1        0.0000 
     20 CAN        -6.7970   35.9490   -7.4780 C.ar      1 AQM1        0.0000 
     21 CAO       -12.8030   38.9790   -5.5930 C.ar      1 AQM1        0.0000 
     22 CAQ       -13.1010   37.7630   -6.1970 C.ar      1 AQM1        0.0000 
     23 CAR         0.1710   33.5770   -9.8440 C.ar      1 AQM1        0.0000 
     24 CAS        -2.6020   30.4540   -8.8360 C.2       1 AQM1        0.0000 
     25 CAT       -10.5510   38.8510   -6.4610 C.ar      1 AQM1        0.0000 
     26 CAU       -10.1830   42.6660   -4.1980 C.3       1 AQM1        0.0000 
     27 CAV        -8.9920   42.6860   -3.2280 C.3       1 AQM1        0.0000 
     28 CAW        -9.4720   45.6710   -0.9360 C.3       1 AQM1        0.0000 
     29 CAX        -8.1680   43.9640    0.2110 C.3       1 AQM1        0.0000 
     30 CAY        -9.4980   44.8430   -2.2320 C.3       1 AQM1        0.0000 
     31 CAZ        -8.1100   43.1560   -1.1030 C.3       1 AQM1        0.0000 
     32 NBC        -0.4630   30.2910   -9.1050 N.2       1 AQM1        0.0000 
     33 NBD       -11.3120   40.7080   -5.0840 N.am      1 AQM1        0.0000 
     34 NBE        -4.4270   34.2460   -9.7380 N.am      1 AQM1        0.0000 
     35 NBF        -2.8180   32.6420   -9.8270 N.am      1 AQM1        0.0000 
     36 NBG        -8.6640   37.3500   -7.9840 N.pl3     1 AQM1        0.0000 
     37 CBH       -10.1540   41.3850   -5.0370 C.2       1 AQM1        0.0000 
     38 CBI        -3.8760   33.1570   -9.1790 C.2       1 AQM1        0.0000 
     39 CBJ         1.1720   34.3650  -10.4290 C.ar      1 AQM1        0.0000 
     40 CBK        -5.4730   34.9760   -9.2820 C.ar      1 AQM1        0.0000 
     41 CBL        -7.6390   36.5840   -8.4010 C.ar      1 AQM1        0.0000 
     42 CBM       -11.5320   39.5400   -5.7230 C.ar      1 AQM1        0.0000 
     43 CBN         0.1220   32.2050  -10.1060 C.ar      1 AQM1        0.0000 
     44 CBO        -1.5390   29.6720   -8.6400 C.2       1 AQM1        0.0000 
     45 CBP        -2.1180   31.5520   -9.4300 C.2       1 AQM1        0.0000 
     46 NBT        -9.3940   44.7880    0.2480 N.3       1 AQM1        0.0000 
     47 NBU        -9.2900   43.3970   -1.9670 N.4       1 AQM1        0.0000 
     48 NBV        -0.7950   31.3860   -9.5650 N.pl3     1 AQM1        0.0000 
     49 CBW        -1.4810   28.2640   -7.9890 C.3       1 AQM1        0.0000 
     50 H         -11.7793   34.3297   -8.6540 H         1 AQM1        0.0000 
     51 H           1.9511   36.1759  -10.6842 H         1 AQM1        0.0000 
     52 H           0.5552   36.0440   -9.5620 H         1 AQM1        0.0000 
     53 H           2.7875   31.9889  -12.1310 H         1 AQM1        0.0000 
     54 H           2.8525   34.3677  -11.6928 H         1 AQM1        0.0000 
     55 H           1.0642   30.6190  -11.1257 H         1 AQM1        0.0000 
     56 H          -6.1326   35.5258  -11.2089 H         1 AQM1        0.0000 
     57 H          -5.1067   34.7125   -7.2200 H         1 AQM1        0.0000 
     58 H          -7.9865   36.8820  -10.4583 H         1 AQM1        0.0000 
     59 H          -6.9696   36.0621   -6.4694 H         1 AQM1        0.0000 
     60 H         -13.5239   39.4712   -5.0451 H         1 AQM1        0.0000 
     61 H         -14.0431   37.3587   -6.0997 H         1 AQM1        0.0000 
     62 H          -0.5229   34.0080   -9.2255 H         1 AQM1        0.0000 
     63 H          -3.5049   30.2741   -8.6058 H         1 AQM1        0.0000 
     64 H          -9.6097   39.2539   -6.5509 H         1 AQM1        0.0000 
     65 H         -10.1232   43.5270   -4.8538 H         1 AQM1        0.0000 
     66 H         -11.1057   42.7035   -3.6304 H         1 AQM1        0.0000 
     67 H          -8.1402   43.1596   -3.7430 H         1 AQM1        0.0000 
     68 H          -8.7030   41.6426   -3.0207 H         1 AQM1        0.0000 
     69 H         -10.3780   46.2812   -0.9017 H         1 AQM1        0.0000 
     70 H          -8.6085   46.3397   -0.9746 H         1 AQM1        0.0000 
     71 H          -7.2783   44.5916    0.2631 H         1 AQM1        0.0000 
     72 H          -8.1495   43.2603    1.0432 H         1 AQM1        0.0000 
     73 H          -8.7154   45.2250   -2.8987 H         1 AQM1        0.0000 
     74 H         -10.4650   45.0054   -2.7234 H         1 AQM1        0.0000 
     75 H          -8.0359   42.0906   -0.8433 H         1 AQM1        0.0000 
     76 H          -7.1858   43.4315   -1.6303 H         1 AQM1        0.0000 
     77 H         -12.1582   41.1412   -4.5559 H         1 AQM1        0.0000 
     78 H          -3.9791   34.5901  -10.6782 H         1 AQM1        0.0000 
     79 H          -2.4980   33.1296  -10.7321 H         1 AQM1        0.0000 
     80 H          -8.4642   38.3827   -7.7772 H         1 AQM1        0.0000 
     81 H         -10.1568   42.9638   -1.5164 H         1 AQM1        0.0000 
     82 H          -9.3559   45.0244    2.3008 H         1 AQM1        0.0000 
     83 H          -8.6368   46.2315    1.5186 H         1 AQM1        0.0000 
     84 H         -10.2420   46.1425    1.5587 H         1 AQM1        0.0000 
     85 H          -2.1820   27.3502   -6.2116 H         1 AQM1        0.0000 
     86 H          -1.8862   28.9188   -6.0161 H         1 AQM1        0.0000 
     87 H          -3.2149   28.4409   -6.7858 H         1 AQM1        0.0000 
     88 H          -1.6218   27.1810   -9.7972 H         1 AQM1        0.0000 
     89 H          -2.0247   26.2926   -8.5187 H         1 AQM1        0.0000 
     90 H          -3.0533   27.3868   -9.0939 H         1 AQM1        0.0000 
     91 H           0.5297   27.9284   -8.5648 H         1 AQM1        0.0000 
     92 H           0.4153   28.5828   -7.1003 H         1 AQM1        0.0000 
     93 H           0.0944   27.0211   -7.3105 H         1 AQM1        0.0000 
@<TRIPOS>BOND
     1    2    1 ar   
     2    6    1 ar   
     3    3    2 ar   
     4   50    2 1    
     5    4    3 ar   
     6    5    4 ar   
     7   22    4 ar   
     8    6    5 ar   
     9   25    5 ar   
    10   36    6 1    
    11   46    7 1    
    12   82    7 1    
    13   83    7 1    
    14   84    7 1    
    15   49    8 1    
    16   85    8 1    
    17   86    8 1    
    18   87    8 1    
    19   49    9 1    
    20   88    9 1    
    21   89    9 1    
    22   90    9 1    
    23   49   10 1    
    24   91   10 1    
    25   92   10 1    
    26   93   10 1    
    27   39   11 1    
    28   51   11 1    
    29   52   11 1    
    30   37   12 2    
    31   38   13 2    
    32   15   14 ar   
    33   16   14 ar   
    34   53   14 1    
    35   39   15 ar   
    36   54   15 1    
    37   43   16 ar   
    38   55   16 1    
    39   19   17 ar   
    40   40   17 ar   
    41   56   17 1    
    42   20   18 ar   
    43   40   18 ar   
    44   57   18 1    
    45   41   19 ar   
    46   58   19 1    
    47   41   20 ar   
    48   59   20 1    
    49   22   21 ar   
    50   42   21 ar   
    51   60   21 1    
    52   61   22 1    
    53   39   23 ar   
    54   43   23 ar   
    55   62   23 1    
    56   44   24 1    
    57   45   24 2    
    58   63   24 1    
    59   42   25 ar   
    60   64   25 1    
    61   27   26 1    
    62   37   26 1    
    63   65   26 1    
    64   66   26 1    
    65   47   27 1    
    66   67   27 1    
    67   68   27 1    
    68   30   28 1    
    69   46   28 1    
    70   69   28 1    
    71   70   28 1    
    72   31   29 1    
    73   46   29 1    
    74   71   29 1    
    75   72   29 1    
    76   47   30 1    
    77   73   30 1    
    78   74   30 1    
    79   47   31 1    
    80   75   31 1    
    81   76   31 1    
    82   44   32 2    
    83   48   32 1    
    84   37   33 am   
    85   42   33 1    
    86   77   33 1    
    87   38   34 am   
    88   40   34 1    
    89   78   34 1    
    90   38   35 am   
    91   45   35 1    
    92   79   35 1    
    93   41   36 1    
    94   80   36 1    
    95   48   43 1    
    96   49   44 1    
    97   48   45 1    
    98   81   47 1    
@<TRIPOS>SUBSTRUCTURE
     1 AQM1        1 GROUP   
@<TRIPOS>SET

