#    Name: 1u2g_APR_2_INTS_M
#    Modification time : Tue Mar 25 06:03:15 2014

@<TRIPOS>MOLECULE
1u2g_APR_2_INTS_M
   52     0     9     0     0
SMALL
NO_CHARGES


@<TRIPOS>ATOM
      1 CA         -7.5205  -40.0620   21.0350 C.3       3 GLC5        0.0000 
      2 CA         -7.1410  -40.7290   22.7830 C.3       9 GLL5        0.0000 
      3 CA         -7.9000  -39.3950   19.2870 C.3       6 GLP5        0.0000 
      4 CA         -7.0600  -42.4095   21.9035 C.3       3 GLC5        0.0000 
      5 CA         -6.9790  -44.0900   21.0240 C.3       6 GLP5        0.0000 
      6 CA         -6.4725  -39.7480   24.5075 C.3       3 GLC5        0.0000 
      7 CA         -5.8040  -38.7670   26.2320 C.3       6 GLP5        0.0000 
      8 CA         -9.3190  -42.8140   22.2205 C.3       3 GLC5        0.0000 
      9 CA         -9.1560  -41.4800   23.6990 C.3       9 GLL5        0.0000 
     10 CA         -9.4820  -44.1480   20.7420 C.3       6 GLP5        0.0000 
     11 CA         -5.7615  -41.7210   25.2340 C.3       3 GLC5        0.0000 
     12 CA         -7.0110  -42.5520   24.2930 C.3       9 GLL5        0.0000 
     13 CA         -4.5120  -40.8900   26.1750 C.3       6 GLP5        0.0000 
     14 CA        -10.6470  -38.6205   23.1190 C.3       3 GLC5        0.0000 
     15 CA        -11.3660  -40.5890   23.2990 C.3       9 GLL5        0.0000 
     16 CA         -9.9280  -36.6520   22.9390 C.3       6 GLP5        0.0000 
     17 CA        -10.3325  -39.9835   24.9800 C.3       3 GLC5        0.0000 
     18 CA         -9.2990  -39.3780   26.6610 C.3       6 GLP5        0.0000 
     19 N         -13.5505  -41.7410   20.2505 N.am      2 SEC2        0.0000 
     20 N         -12.2970  -41.5900   21.2640 N.am      8 SEL2        0.0000 
     21 N         -14.8040  -41.8920   19.2370 N.am      5 SEP2        0.0000 
     22 O         -11.3935  -41.1910   20.4405 O.2       1 ALC1        0.0000 
     23 O         -12.2970  -41.5900   21.2640 O.2       7 ALL1        0.0000 
     24 O         -10.4900  -40.7920   19.6170 O.2       4 ALP1        0.0000 
     25 O         -11.7545  -40.2275   20.8200 O.2       1 ALC1        0.0000 
     26 O         -11.2120  -38.8650   20.3760 O.2       4 ALP1        0.0000 
     27 N         -14.3370  -40.6855   20.3850 N.am      2 SEC2        0.0000 
     28 N         -13.8700  -39.4790   21.5330 N.am      8 SEL2        0.0000 
     29 N         -14.7535  -39.6315   20.1910 N.am      2 SEC2        0.0000 
     30 N         -15.6370  -39.7840   18.8490 N.am      5 SEP2        0.0000 
     31 O         -12.5410  -39.1720   20.9545 O.2       1 ALC1        0.0000 
     32 O         -13.8700  -39.4790   21.5330 O.2       7 ALL1        0.0000 
     33 CA        -11.5505  -37.9880   23.3850 C.3       3 GLC5        0.0000 
     34 CA        -13.1730  -39.3240   23.8310 C.3       9 GLL5        0.0000 
     35 CA        -14.8450  -37.2065   23.0335 C.3       3 GLC5        0.0000 
     36 CA        -13.9390  -38.1310   24.4870 C.3       9 GLL5        0.0000 
     37 CA        -15.7510  -36.2820   21.5800 C.3       6 GLP5        0.0000 
     38 N         -18.3770  -36.2230   23.0280 N.am      2 SEC2        0.0000 
     39 N         -19.1670  -37.5730   23.7430 N.am      8 SEL2        0.0000 
     40 N         -17.5870  -34.8730   22.3130 N.am      5 SEP2        0.0000 
     41 CA        -17.0020  -37.7275   21.4580 C.3       3 GLC5        0.0000 
     42 CA        -18.2530  -39.1730   21.3360 C.3       9 GLL5        0.0000 
     43 CA         -9.0587  -40.6820   25.3695 C.3       3 GLC5        0.0000 
     44 CA         -7.3625  -43.3060   22.6995 C.3       3 GLC5        0.0000 
     45 CA         -8.4810  -42.4920   24.4570 C.3       9 GLL5        0.0000 
     46 CA         -7.7995  -42.5685   26.3765 C.3       3 GLC5        0.0000 
     47 CA         -7.8530  -42.6150   28.3780 C.3       6 GLP5        0.0000 
     48 CA        -12.0575  -38.7297   25.6855 C.3       3 GLC5        0.0000 
     49 CA        -10.5590  -38.7320   27.2120 C.3       6 GLP5        0.0000 
     50 CA        -21.6833  -37.6897   17.7572 C.3       3 GLC5        0.0000 
     51 CA        -19.9580  -37.5940   18.8880 C.3       9 GLL5        0.0000 
     52 CA        -23.5060  -37.0960   16.9370 C.3       6 GLP5        0.0000 
@<TRIPOS>BOND
@<TRIPOS>SUBSTRUCTURE
     1 ALC1       22 GROUP        1 X    ALC  0     ROOT ALC X 1
     2 SEC2       19 GROUP        1 X    SEC  0     **** SEC X 2
     3 GLC5        1 GROUP        1 X    GLC  0     **** GLC X 6
     4 ALP1       24 GROUP        1 Y    ALP  0     ROOT ALP Y 8
     5 SEP2       21 GROUP        1 Y    SEP  0     **** SEP Y 9
     6 GLP5        3 GROUP        1 Y    GLP  0     **** GLP Y 13
     7 ALL1       23 GROUP        1 Z    ALL  0     ROOT ALL Z 15
     8 SEL2       20 GROUP        1 Z    SEL  0     **** SEL Z 16
     9 GLL5        2 GROUP        1 Z    GLL  0     **** GLL Z 20
@<TRIPOS>SET

