#    Name: 1u2g_APR_2_ligand
#    Modification time : Tue Mar 25 06:03:15 2014

@<TRIPOS>MOLECULE
1u2g_APR_2_ligand
   57    60     1     0     0
SMALL
NO_CHARGES


@<TRIPOS>ATOM
      1 N1         -6.4270  -41.6530   23.4620 N.ar      1 APR600      0.0000 
      2 C2         -7.1410  -40.7290   22.7830 C.ar      1 APR600      0.0000 
      3 N3         -8.4820  -40.6340   22.8860 N.ar      1 APR600      0.0000 
      4 C4         -9.1560  -41.4800   23.6990 C.ar      1 APR600      0.0000 
      5 C5         -8.4810  -42.4920   24.4570 C.ar      1 APR600      0.0000 
      6 C6         -7.0110  -42.5520   24.2930 C.ar      1 APR600      0.0000 
      7 N6         -6.2710  -43.4680   24.9640 N.pl3     1 APR600      0.0000 
      8 N7         -9.4320  -43.1880   25.1910 N.2       1 APR600      0.0000 
      9 C8        -10.6290  -42.5740   24.8490 C.2       1 APR600      0.0000 
     10 N9        -10.4520  -41.5600   23.9470 N.pl3     1 APR600      0.0000 
     11 C1'       -11.3660  -40.5890   23.2990 C.3       1 APR600      0.0000 
     12 C2'       -12.5700  -41.2390   22.6110 C.3       1 APR600      0.0000 
     13 O2'       -12.2970  -41.5900   21.2640 O.3       1 APR600      0.0000 
     14 C3'       -13.6970  -40.2220   22.7280 C.3       1 APR600      0.0000 
     15 O3'       -13.8700  -39.4790   21.5330 O.3       1 APR600      0.0000 
     16 O4'       -11.9080  -39.7550   24.3210 O.3       1 APR600      0.0000 
     17 C4'       -13.1730  -39.3240   23.8310 C.3       1 APR600      0.0000 
     18 C5'       -13.9390  -38.1310   24.4870 C.3       1 APR600      0.0000 
     19 O5'       -14.6270  -38.6000   25.6710 O.3       1 APR600      0.0000 
     20 PA        -16.1630  -39.1360   25.6820 P.3       1 APR600      0.0000 
     21 O1A       -16.1950  -40.7320   25.7450 O.co2     1 APR600      0.0000 
     22 O2A       -16.9410  -38.5160   26.9310 O.co2     1 APR600      0.0000 
     23 O3A       -16.8330  -38.6310   24.3070 O.3       1 APR600      0.0000 
     24 PB        -18.3800  -38.9380   23.9710 P.3       1 APR600      0.0000 
     25 O1B       -19.1670  -37.5730   23.7430 O.co2     1 APR600      0.0000 
     26 O2B       -19.0630  -39.7980   25.1240 O.co2     1 APR600      0.0000 
     27 O5D       -18.3290  -39.8070   22.6120 O.3       1 APR600      0.0000 
     28 C5D       -18.2530  -39.1730   21.3360 C.3       1 APR600      0.0000 
     29 O4D       -19.9250  -37.7510   20.3120 O.3       1 APR600      0.0000 
     30 O1D       -18.9310  -36.7040   18.4710 O.3       1 APR600      0.0000 
     31 C1D       -19.9580  -37.5940   18.8880 C.3       1 APR600      0.0000 
     32 O2D       -20.7960  -39.2680   17.3350 O.3       1 APR600      0.0000 
     33 C2D       -19.7630  -38.9730   18.2670 C.3       1 APR600      0.0000 
     34 O3D       -20.9390  -40.7320   19.4670 O.3       1 APR600      0.0000 
     35 C3D       -19.7510  -39.9550   19.4280 C.3       1 APR600      0.0000 
     36 C4D       -19.6360  -39.1040   20.6880 C.3       1 APR600      0.0000 
     37 H          -6.6284  -40.0558   22.1475 H         1 APR600      0.0000 
     38 H          -5.2803  -43.4084   24.8416 H         1 APR600      0.0000 
     39 H          -6.7812  -44.1224   25.5221 H         1 APR600      0.0000 
     40 H         -11.4960  -42.8433   25.2170 H         1 APR600      0.0000 
     41 H         -10.8404  -39.9983   22.5781 H         1 APR600      0.0000 
     42 H         -12.8510  -42.0974   23.2146 H         1 APR600      0.0000 
     43 H         -14.5579  -40.7112   23.0780 H         1 APR600      0.0000 
     44 H         -12.5547  -38.4740   22.8823 H         1 APR600      0.0000 
     45 H         -14.6310  -37.7424   23.7425 H         1 APR600      0.0000 
     46 H         -13.2034  -37.3643   24.7218 H         1 APR600      0.0000 
     47 H         -17.5903  -39.7188   20.6491 H         1 APR600      0.0000 
     48 H         -17.8703  -38.1452   21.4143 H         1 APR600      0.0000 
     49 H         -20.9328  -37.2387   18.5787 H         1 APR600      0.0000 
     50 H         -18.7832  -38.9878   17.8145 H         1 APR600      0.0000 
     51 H         -18.8645  -40.5512   19.3539 H         1 APR600      0.0000 
     52 H         -20.3707  -39.4559   21.4007 H         1 APR600      0.0000 
     53 H         -11.5047  -41.0362   21.0079 H         1 APR600      0.0000 
     54 H         -12.9432  -39.3052   21.2000 H         1 APR600      0.0000 
     55 H         -19.4119  -35.9152   18.0882 H         1 APR600      0.0000 
     56 H         -20.3441  -39.2793   16.4430 H         1 APR600      0.0000 
     57 H         -21.4572  -40.4531   18.6585 H         1 APR600      0.0000 
@<TRIPOS>BOND
     1    2    1 ar   
     2    6    1 ar   
     3    3    2 ar   
     4   37    2 1    
     5    4    3 ar   
     6    5    4 ar   
     7   10    4 1    
     8    6    5 ar   
     9    8    5 1    
    10    7    6 1    
    11   38    7 1    
    12   39    7 1    
    13    9    8 2    
    14   10    9 1    
    15   40    9 1    
    16   11   10 1    
    17   12   11 1    
    18   16   11 1    
    19   41   11 1    
    20   13   12 1    
    21   14   12 1    
    22   42   12 1    
    23   53   13 1    
    24   15   14 1    
    25   17   14 1    
    26   43   14 1    
    27   54   15 1    
    28   17   16 1    
    29   18   17 1    
    30   44   17 1    
    31   19   18 1    
    32   45   18 1    
    33   46   18 1    
    34   20   19 1    
    35   21   20 ar   
    36   22   20 ar   
    37   23   20 1    
    38   24   23 1    
    39   25   24 ar   
    40   26   24 ar   
    41   27   24 1    
    42   28   27 1    
    43   36   28 1    
    44   47   28 1    
    45   48   28 1    
    46   31   29 1    
    47   36   29 1    
    48   31   30 1    
    49   55   30 1    
    50   33   31 1    
    51   49   31 1    
    52   33   32 1    
    53   56   32 1    
    54   35   33 1    
    55   50   33 1    
    56   35   34 1    
    57   57   34 1    
    58   36   35 1    
    59   51   35 1    
    60   52   36 1    
@<TRIPOS>SUBSTRUCTURE
     1 APR600      1 GROUP   
@<TRIPOS>SET

