#    Name: 1opm_IYG_1_INTS_M
#    Modification time : Mon Mar 24 20:23:19 2014

@<TRIPOS>MOLECULE
1opm_IYG_1_INTS_M
   63     0    12     0     0
SMALL
NO_CHARGES


@<TRIPOS>ATOM
      1 CA         47.8615   21.8070   41.1445 C.3       4 GLC5        0.0000 
      2 CA         48.5300   23.3330   40.7640 C.3      12 GLL5        0.0000 
      3 CA         47.1930   20.2810   41.5250 C.3       8 GLP5        0.0000 
      4 CA         49.2870   22.5245   38.9330 C.3       4 GLC5        0.0000 
      5 CA         50.0440   21.7160   37.1020 C.3       8 GLP5        0.0000 
      6 CA         47.8050   25.0035   39.9850 C.3       4 GLC5        0.0000 
      7 CA         47.0800   26.6740   39.2060 C.3       8 GLP5        0.0000 
      8 N          45.0130   22.1025   39.5835 N.am      2 SEC2        0.0000 
      9 N          46.4720   22.6610   39.7770 N.am     10 SEL2        0.0000 
     10 N          43.5540   21.5440   39.3900 N.am      6 SEP2        0.0000 
     11 CA         45.2450   25.1565   39.9325 C.3       4 GLC5        0.0000 
     12 CA         44.9180   24.2950   41.4020 C.3      12 GLL5        0.0000 
     13 CA         45.5720   26.0180   38.4630 C.3       8 GLP5        0.0000 
     14 CA         42.0810   23.5255   42.5960 C.3       4 GLC5        0.0000 
     15 CA         44.2670   23.2920   42.3380 C.3      12 GLL5        0.0000 
     16 CA         39.8950   23.7590   42.8540 C.3       8 GLP5        0.0000 
     17 O          43.6555   24.0025   48.8620 O.2       1 ALC1        0.0000 
     18 O          44.5890   23.5620   48.0150 O.2       9 ALL1        0.0000 
     19 O          42.7220   24.4430   49.7090 O.2       5 ALP1        0.0000 
     20 CA         41.3315   26.9215   46.8040 C.3       4 GLC5        0.0000 
     21 CA         41.9750   25.1810   46.9720 C.3      12 GLL5        0.0000 
     22 CA         40.6880   28.6620   46.6360 C.3       8 GLP5        0.0000 
     23 CA         42.7855   26.3375   48.5000 C.3       4 GLC5        0.0000 
     24 CA         43.5960   27.4940   50.0280 C.3       8 GLP5        0.0000 
     25 CA         41.1215   24.8890   48.9960 C.3       4 GLC5        0.0000 
     26 CA         40.2680   24.5970   51.0200 C.3       8 GLP5        0.0000 
     27 CA         39.8840   25.5425   46.9910 C.3       4 GLC5        0.0000 
     28 CA         37.7930   25.9040   47.0100 C.3       8 GLP5        0.0000 
     29 CA         40.7220   24.1820   45.5120 C.3       4 GLC5        0.0000 
     30 CA         39.4690   23.1830   44.0520 C.3       8 GLP5        0.0000 
     31 CA         47.4135   21.9135   48.5570 C.3       4 GLC5        0.0000 
     32 CA         46.8700   21.6990   46.9500 C.3      12 GLL5        0.0000 
     33 CA         47.9570   22.1280   50.1640 C.3       8 GLP5        0.0000 
     34 O          42.9425   24.8205   40.3215 O.2       1 ALC1        0.0000 
     35 O          43.2580   26.0460   41.0820 O.2       9 ALL1        0.0000 
     36 O          42.6270   23.5950   39.5610 O.2       5 ALP1        0.0000 
     37 CA         42.3580   26.7275   39.5030 C.3       4 GLC5        0.0000 
     38 CA         42.6590   27.3640   41.2500 C.3      12 GLL5        0.0000 
     39 CA         42.0570   26.0910   37.7560 C.3       8 GLP5        0.0000 
     40 CA         44.1155   26.6910   39.8565 C.3       4 GLC5        0.0000 
     41 NZ         39.1720   27.3495   40.5955 N.4       3 LYC4        0.0000 
     42 NZ         40.6950   28.3910   40.3460 N.4      11 LYL4        0.0000 
     43 NZ         37.1390   27.3840   40.6380 N.4       7 LYP4        0.0000 
     44 N          39.2685   28.3770   40.2230 N.am      2 SEC2        0.0000 
     45 N          40.6950   28.3910   40.3460 N.am     10 SEL2        0.0000 
     46 N          37.8420   28.3630   40.1000 N.am      6 SEP2        0.0000 
     47 NZ         39.1305   26.3965   41.2150 N.4       3 LYC4        0.0000 
     48 NZ         40.5020   26.3360   41.0910 N.4      11 LYL4        0.0000 
     49 N          39.1305   26.3965   41.2150 N.am      2 SEC2        0.0000 
     50 N          40.5020   26.3360   41.0910 N.am     10 SEL2        0.0000 
     51 N          37.7590   26.4570   41.3390 N.am      6 SEP2        0.0000 
     52 N          39.1720   27.3495   40.5955 N.am      2 SEC2        0.0000 
     53 N          40.7775   25.4130   41.9765 N.am      2 SEC2        0.0000 
     54 N          41.0530   24.4900   42.8620 N.am      6 SEP2        0.0000 
     55 CA         43.5358   21.9165   43.9670 C.3       4 GLC5        0.0000 
     56 CA         42.7100   20.4290   44.8540 C.3       8 GLP5        0.0000 
     57 CA         45.2563   21.5580   42.9415 C.3       4 GLC5        0.0000 
     58 CA         44.4560   23.5160   43.8220 C.3      12 GLL5        0.0000 
     59 CA         46.1510   19.7120   42.8030 C.3       8 GLP5        0.0000 
     60 CA         45.8083   21.2732   44.0165 C.3       4 GLC5        0.0000 
     61 CA         45.4450   22.8250   44.5300 C.3      12 GLL5        0.0000 
     62 CA         43.7291   21.9030   45.2198 C.3       4 GLC5        0.0000 
     63 CA         44.5340   23.5740   46.6350 C.3      12 GLL5        0.0000 
@<TRIPOS>BOND
@<TRIPOS>SUBSTRUCTURE
     1 ALC1       17 GROUP        1 X    ALC  0     ROOT ALC X 1
     2 SEC2        8 GROUP        1 X    SEC  0     **** SEC X 2
     3 LYC4       41 GROUP        1 X    LYC  0     **** LYC X 4
     4 GLC5        1 GROUP        1 X    GLC  0     **** GLC X 6
     5 ALP1       19 GROUP        1 Y    ALP  0     ROOT ALP Y 8
     6 SEP2       10 GROUP        1 Y    SEP  0     **** SEP Y 9
     7 LYP4       43 GROUP        1 Y    LYP  0     **** LYP Y 11
     8 GLP5        3 GROUP        1 Y    GLP  0     **** GLP Y 13
     9 ALL1       18 GROUP        1 Z    ALL  0     ROOT ALL Z 15
    10 SEL2        9 GROUP        1 Z    SEL  0     **** SEL Z 16
    11 LYL4       42 GROUP        1 Z    LYL  0     **** LYL Z 18
    12 GLL5        2 GROUP        1 Z    GLL  0     **** GLL Z 20
@<TRIPOS>SET

