#    Name: 1opm_IYG_1_ligand
#    Modification time : Mon Mar 24 20:23:19 2014

@<TRIPOS>MOLECULE
1opm_IYG_1_ligand
   35    35     1     0     0
SMALL
NO_CHARGES


@<TRIPOS>ATOM
      1 CAN        48.5300   23.3330   40.7640 C.3       1 IYG801      0.0000 
      2 CN         47.0230   23.3680   40.6190 C.2       1 IYG801      0.0000 
      3 ON         46.4720   22.6610   39.7770 O.2       1 IYG801      0.0000 
      4 N          46.3580   24.1680   41.4540 N.am      1 IYG801      0.0000 
      5 CA         44.9180   24.2950   41.4020 C.3       1 IYG801      0.0000 
      6 CB         44.2670   23.2920   42.3380 C.3       1 IYG801      0.0000 
      7 CG         44.4560   23.5160   43.8220 C.ar      1 IYG801      0.0000 
      8 CD1        43.5210   24.2530   44.5500 C.ar      1 IYG801      0.0000 
      9 CE1        43.5340   24.2770   45.9440 C.ar      1 IYG801      0.0000 
     10 CD2        45.4450   22.8250   44.5300 C.ar      1 IYG801      0.0000 
     11 CE2        45.4860   22.8440   45.9300 C.ar      1 IYG801      0.0000 
     12 CZ         44.5340   23.5740   46.6350 C.ar      1 IYG801      0.0000 
     13 OH         44.5890   23.5620   48.0150 O.3       1 IYG801      0.0000 
     14 I1         41.9750   25.1810   46.9720 I         1 IYG801      0.0000 
     15 I2         46.8700   21.6990   46.9500 I         1 IYG801      0.0000 
     16 C          44.4060   25.7070   41.6710 C.2       1 IYG801      0.0000 
     17 O          45.0520   26.4680   42.3740 O.2       1 IYG801      0.0000 
     18 NT         43.2580   26.0460   41.0820 N.am      1 IYG801      0.0000 
     19 CAT        42.6590   27.3640   41.2500 C.3       1 IYG801      0.0000 
     20 CT         41.1830   27.3680   40.8760 C.2       1 IYG801      0.0000 
     21 OT1        40.6950   28.3910   40.3460 O.co2     1 IYG801      0.0000 
     22 OT2        40.5020   26.3360   41.0910 O.co2     1 IYG801      0.0000 
     23 H          46.8444   24.7361   42.1796 H         1 IYG801      0.0000 
     24 H          44.5712   24.0214   40.3744 H         1 IYG801      0.0000 
     25 H          44.6408   22.2702   42.0787 H         1 IYG801      0.0000 
     26 H          43.1711   23.2594   42.1166 H         1 IYG801      0.0000 
     27 H          42.7979   24.7968   44.0405 H         1 IYG801      0.0000 
     28 H          46.1609   22.2889   44.0099 H         1 IYG801      0.0000 
     29 H          42.7319   25.3834   40.4714 H         1 IYG801      0.0000 
     30 H          43.1738   28.1094   40.6227 H         1 IYG801      0.0000 
     31 H          42.7491   27.7033   42.2944 H         1 IYG801      0.0000 
     32 H          48.9908   23.6031   39.9186 H         1 IYG801      0.0000 
     33 H          48.8485   23.9519   41.4820 H         1 IYG801      0.0000 
     34 H          48.8594   22.4183   40.9980 H         1 IYG801      0.0000 
     35 H          43.7150   23.9466   48.3121 H         1 IYG801      0.0000 
@<TRIPOS>BOND
     1    2    1 1    
     2   32    1 1    
     3   33    1 1    
     4   34    1 1    
     5    3    2 2    
     6    4    2 am   
     7    5    4 1    
     8   23    4 1    
     9    6    5 1    
    10   16    5 1    
    11   24    5 1    
    12    7    6 1    
    13   25    6 1    
    14   26    6 1    
    15    8    7 ar   
    16   10    7 ar   
    17    9    8 ar   
    18   27    8 1    
    19   12    9 ar   
    20   14    9 1    
    21   11   10 ar   
    22   28   10 1    
    23   12   11 ar   
    24   15   11 1    
    25   13   12 1    
    26   35   13 1    
    27   17   16 2    
    28   18   16 am   
    29   19   18 1    
    30   29   18 1    
    31   20   19 1    
    32   30   19 1    
    33   31   19 1    
    34   21   20 ar   
    35   22   20 ar   
@<TRIPOS>SUBSTRUCTURE
     1 IYG801      1 GROUP   
@<TRIPOS>SET

