#    Name: 4anx_534_1_INTS_M
#    Modification time : Tue Mar 25 05:52:29 2014

@<TRIPOS>MOLECULE
4anx_534_1_INTS_M
   87     0     9     0     0
SMALL
NO_CHARGES


@<TRIPOS>ATOM
      1 CA         49.3785   14.2640   33.3215 C.3       3 GLC5        0.0000 
      2 CA         48.4340   15.5520   32.9290 C.3       9 GLL5        0.0000 
      3 CA         50.3230   12.9760   33.7140 C.3       6 GLP5        0.0000 
      4 CA         49.5075   17.9410   29.4690 C.3       3 GLC5        0.0000 
      5 CA         49.0240   17.5860   31.6060 C.3       9 GLL5        0.0000 
      6 CA         49.9910   18.2960   27.3320 C.3       6 GLP5        0.0000 
      7 CA         48.6420   19.6635   31.8130 C.3       3 GLC5        0.0000 
      8 CA         48.2600   21.7410   32.0200 C.3       6 GLP5        0.0000 
      9 CA         48.2745   16.4650   29.8300 C.3       3 GLC5        0.0000 
     10 CA         47.5250   15.3440   28.0540 C.3       6 GLP5        0.0000 
     11 CA         43.5975   16.3195   30.8250 C.3       3 GLC5        0.0000 
     12 CA         44.6560   17.7360   32.1800 C.3       9 GLL5        0.0000 
     13 CA         42.5390   14.9030   29.4700 C.3       6 GLP5        0.0000 
     14 CA         42.0100   17.9980   35.9825 C.3       3 GLC5        0.0000 
     15 CA         41.8660   18.0390   33.7800 C.3       9 GLL5        0.0000 
     16 CA         42.1540   17.9570   38.1850 C.3       6 GLP5        0.0000 
     17 CA         42.6165   16.9575   36.3990 C.3       3 GLC5        0.0000 
     18 CA         43.0790   15.9580   34.6130 C.3       9 GLL5        0.0000 
     19 CA         43.1095   13.8420   36.8615 C.3       3 GLC5        0.0000 
     20 CA         42.7980   14.4990   34.9940 C.3       9 GLL5        0.0000 
     21 CA         43.4210   13.1850   38.7290 C.3       6 GLP5        0.0000 
     22 CA         41.7085   15.3690   31.3335 C.3       3 GLC5        0.0000 
     23 CA         40.8780   15.8350   33.1970 C.3       9 GLL5        0.0000 
     24 N          39.1725   11.6935   34.8435 N.am      2 SEC2        0.0000 
     25 N          40.5000   11.7570   34.2630 N.am      8 SEL2        0.0000 
     26 N          37.8450   11.6300   35.4240 N.am      5 SEP2        0.0000 
     27 CA         39.9215   12.4855   31.2085 C.3       3 GLC5        0.0000 
     28 CA         41.6340   11.3280   31.4850 C.3       9 GLL5        0.0000 
     29 CA         38.2090   13.6430   30.9320 C.3       6 GLP5        0.0000 
     30 CA         43.1120   11.8780   28.5400 C.3       3 GLC5        0.0000 
     31 CA         43.5170   11.1200   29.9410 C.3       9 GLL5        0.0000 
     32 CA         42.7070   12.6360   27.1390 C.3       6 GLP5        0.0000 
     33 CA         49.8900   10.7295   30.7955 C.3       3 GLC5        0.0000 
     34 CA         48.4150   11.9280   30.0670 C.3       9 GLL5        0.0000 
     35 CA         51.3650    9.5310   31.5240 C.3       6 GLP5        0.0000 
     36 CA         49.3295   10.5560   28.6755 C.3       3 GLC5        0.0000 
     37 CA         50.2440    9.1840   27.2840 C.3       6 GLP5        0.0000 
     38 CA         47.9700   13.6360   29.0605 C.3       3 GLC5        0.0000 
     39 O          50.5595   11.6025   28.8115 O.2       1 ALC1        0.0000 
     40 O          49.7110   12.0330   29.7850 O.2       7 ALL1        0.0000 
     41 O          51.4080   11.1720   27.8380 O.2       4 ALP1        0.0000 
     42 N          48.7480    9.8840   29.2560 N.am      2 SEC2        0.0000 
     43 N          47.7880   10.7500   29.8860 N.am      8 SEL2        0.0000 
     44 N          49.7080    9.0180   28.6260 N.am      5 SEP2        0.0000 
     45 CA         45.2425    9.1550   31.0775 C.3       3 GLC5        0.0000 
     46 CA         46.5010   10.6150   30.1600 C.3       9 GLL5        0.0000 
     47 CA         43.9840    7.6950   31.9950 C.3       6 GLP5        0.0000 
     48 CA         47.9980    9.3250   30.4980 C.3       3 GLC5        0.0000 
     49 CA         49.4950    8.0350   30.8360 C.3       6 GLP5        0.0000 
     50 CA         47.2035    9.9310   28.2675 C.3       3 GLC5        0.0000 
     51 CA         47.9060    9.2470   26.3750 C.3       6 GLP5        0.0000 
     52 CA         47.4058   15.7248   34.1955 C.3       3 GLC5        0.0000 
     53 CA         46.3950   15.1370   35.4720 C.3       6 GLP5        0.0000 
     54 CA         47.6737   19.7658   33.5643 C.3       3 GLC5        0.0000 
     55 CA         46.4980   18.2080   34.2010 C.3       9 GLL5        0.0000 
     56 CA         48.6330   21.6550   33.5010 C.3       6 GLP5        0.0000 
     57 CA         45.5530   16.8278   34.6510 C.3       3 GLC5        0.0000 
     58 CA         45.1750   18.6380   34.3320 C.3       9 GLL5        0.0000 
     59 CA         46.3734   16.3666   34.1541 C.3       3 GLC5        0.0000 
     60 CA         46.9310   17.5450   33.0540 C.3       9 GLL5        0.0000 
     61 CA         45.6332   18.8560   30.5207 C.3       3 GLC5        0.0000 
     62 CA         45.9890   17.3160   32.0450 C.3       9 GLL5        0.0000 
     63 CA         45.9440   20.1860   28.9290 C.3       6 GLP5        0.0000 
     64 CA         40.9982   21.2325   32.1983 C.3       3 GLC5        0.0000 
     65 CA         41.5910   20.7320   33.5400 C.3       9 GLL5        0.0000 
     66 CA         40.9580   22.1260   30.7280 C.3       6 GLP5        0.0000 
     67 CA         44.6668   15.1828   35.1378 C.3       3 GLC5        0.0000 
     68 CA         39.4940   14.3995   32.2208 C.3       3 GLC5        0.0000 
     69 CA         40.6800   14.4770   33.8220 C.3       9 GLL5        0.0000 
     70 CA         44.6527   11.1610   33.4255 C.3       3 GLC5        0.0000 
     71 CA         42.5290   11.7630   32.4680 C.3       9 GLL5        0.0000 
     72 CA         46.0880   10.4880   34.5230 C.3       6 GLP5        0.0000 
     73 CA         41.8627    9.9627   32.9258 C.3       3 GLC5        0.0000 
     74 CA         41.6440    8.3800   33.8750 C.3       6 GLP5        0.0000 
     75 CA         44.0705    9.7188   31.7750 C.3       3 GLC5        0.0000 
     76 CA         43.9060   11.9050   32.1880 C.3       9 GLL5        0.0000 
     77 CA         41.6940   12.1430   29.3665 C.3       3 GLC5        0.0000 
     78 CA         42.1400   10.9980   30.2290 C.3       9 GLL5        0.0000 
     79 CA         41.5010   13.1230   27.8760 C.3       6 GLP5        0.0000 
     80 CA         43.4062    9.3770   31.0400 C.3       3 GLC5        0.0000 
     81 CA         43.1759   13.3050   30.5475 C.3       3 GLC5        0.0000 
     82 CA         44.4080   11.5800   30.9220 C.3       9 GLL5        0.0000 
     83 CA         45.9338   13.6913   29.3788 C.3       3 GLC5        0.0000 
     84 CA         45.7700   11.6980   30.6360 C.3       9 GLL5        0.0000 
     85 CA         45.7590   15.0830   28.0370 C.3       6 GLP5        0.0000 
     86 CA         46.1112   10.9653   32.4995 C.3       3 GLC5        0.0000 
     87 CA         46.4470   12.9010   30.8050 C.3       9 GLL5        0.0000 
@<TRIPOS>BOND
@<TRIPOS>SUBSTRUCTURE
     1 ALC1       39 GROUP        1 X    ALC  0     ROOT ALC X 1
     2 SEC2       24 GROUP        1 X    SEC  0     **** SEC X 2
     3 GLC5        1 GROUP        1 X    GLC  0     **** GLC X 6
     4 ALP1       41 GROUP        1 Y    ALP  0     ROOT ALP Y 8
     5 SEP2       26 GROUP        1 Y    SEP  0     **** SEP Y 9
     6 GLP5        3 GROUP        1 Y    GLP  0     **** GLP Y 13
     7 ALL1       40 GROUP        1 Z    ALL  0     ROOT ALL Z 15
     8 SEL2       25 GROUP        1 Z    SEL  0     **** SEL Z 16
     9 GLL5        2 GROUP        1 Z    GLL  0     **** GLL Z 20
@<TRIPOS>SET

