#    Name: 4anx_534_1_ligand
#    Modification time : Tue Mar 25 05:52:29 2014

@<TRIPOS>MOLECULE
4anx_534_1_ligand
   66    70     1     0     0
SMALL
NO_CHARGES


@<TRIPOS>ATOM
      1 C26        48.4340   15.5520   32.9290 C.3       1 5342088     0.0000 
      2 C25        48.3990   17.0730   32.9090 C.3       1 5342088     0.0000 
      3 C27        49.0240   17.5860   31.6060 C.3       1 5342088     0.0000 
      4 C12        46.9310   17.5450   33.0540 C.ar      1 5342088     0.0000 
      5 C13        46.4980   18.2080   34.2010 C.ar      1 5342088     0.0000 
      6 C14        45.1750   18.6380   34.3320 C.ar      1 5342088     0.0000 
      7 C11        45.9890   17.3160   32.0450 C.ar      1 5342088     0.0000 
      8 C10        44.6560   17.7360   32.1800 C.ar      1 5342088     0.0000 
      9 C5         44.2470   18.3990   33.3280 C.ar      1 5342088     0.0000 
     10 C3         42.9560   18.8530   33.4950 C.ar      1 5342088     0.0000 
     11 N1         42.7740   20.1700   33.3890 N.ar      1 5342088     0.0000 
     12 C2         41.5910   20.7320   33.5400 C.ar      1 5342088     0.0000 
     13 C1         40.4860   19.9460   33.7970 C.ar      1 5342088     0.0000 
     14 N2         40.6580   18.6370   33.9090 N.ar      1 5342088     0.0000 
     15 C4         41.8660   18.0390   33.7800 C.ar      1 5342088     0.0000 
     16 N3         41.9550   16.6200   33.8840 N.3       1 5342088     0.0000 
     17 C9         43.0790   15.9580   34.6130 C.3       1 5342088     0.0000 
     18 C8         42.7980   14.4990   34.9940 C.3       1 5342088     0.0000 
     19 C6         40.8780   15.8350   33.1970 C.3       1 5342088     0.0000 
     20 C7         40.6800   14.4770   33.8220 C.3       1 5342088     0.0000 
     21 N4         42.0080   13.8620   33.9230 N.pl3     1 5342088     0.0000 
     22 S1         41.9230   12.2070   34.0420 S.o2      1 5342088     0.0000 
     23 O1         42.8230   11.6730   35.1170 O.2       1 5342088     0.0000 
     24 O2         40.5000   11.7570   34.2630 O.2       1 5342088     0.0000 
     25 C15        42.5290   11.7630   32.4680 C.ar      1 5342088     0.0000 
     26 C20        43.9060   11.9050   32.1880 C.ar      1 5342088     0.0000 
     27 C16        41.6340   11.3280   31.4850 C.ar      1 5342088     0.0000 
     28 C17        42.1400   10.9980   30.2290 C.ar      1 5342088     0.0000 
     29 C18        43.5170   11.1200   29.9410 C.ar      1 5342088     0.0000 
     30 C19        44.4080   11.5800   30.9220 C.ar      1 5342088     0.0000 
     31 C21        45.7700   11.6980   30.6360 C.ar      1 5342088     0.0000 
     32 C22        46.4470   12.9010   30.8050 C.ar      1 5342088     0.0000 
     33 N5         47.7380   13.0000   30.5190 N.ar      1 5342088     0.0000 
     34 C23        48.4150   11.9280   30.0670 C.ar      1 5342088     0.0000 
     35 N7         49.7110   12.0330   29.7850 N.pl3     1 5342088     0.0000 
     36 N6         47.7880   10.7500   29.8860 N.ar      1 5342088     0.0000 
     37 C24        46.5010   10.6150   30.1600 C.ar      1 5342088     0.0000 
     38 H          48.9621   17.4458   33.7425 H         1 5342088     0.0000 
     39 H          47.1672   18.3857   34.9702 H         1 5342088     0.0000 
     40 H          44.8880   19.1398   35.1885 H         1 5342088     0.0000 
     41 H          46.2787   16.8272   31.1806 H         1 5342088     0.0000 
     42 H          43.9874   17.5483   31.4224 H         1 5342088     0.0000 
     43 H          41.4615   21.7627   33.4708 H         1 5342088     0.0000 
     44 H          39.5622   20.3905   33.8949 H         1 5342088     0.0000 
     45 H          43.3078   16.5190   35.5372 H         1 5342088     0.0000 
     46 H          43.9937   15.9837   33.9935 H         1 5342088     0.0000 
     47 H          42.2525   14.4882   35.9344 H         1 5342088     0.0000 
     48 H          43.7490   13.9892   35.1273 H         1 5342088     0.0000 
     49 H          41.1361   15.7093   32.1357 H         1 5342088     0.0000 
     50 H          39.9321   16.3936   33.2412 H         1 5342088     0.0000 
     51 H          40.0304   13.8873   33.1906 H         1 5342088     0.0000 
     52 H          40.2372   14.5981   34.8006 H         1 5342088     0.0000 
     53 H          44.5373   12.2485   32.9197 H         1 5342088     0.0000 
     54 H          40.6416   11.2553   31.6837 H         1 5342088     0.0000 
     55 H          41.5034   10.6577   29.4909 H         1 5342088     0.0000 
     56 H          43.8633   10.8701   29.0091 H         1 5342088     0.0000 
     57 H          45.9063   13.7203   31.1633 H         1 5342088     0.0000 
     58 H          50.2994   12.3470   30.5301 H         1 5342088     0.0000 
     59 H          49.9798   11.7885   28.8534 H         1 5342088     0.0000 
     60 H          46.0060    9.7082   30.0292 H         1 5342088     0.0000 
     61 H          49.3684   15.2012   32.8679 H         1 5342088     0.0000 
     62 H          48.0365   15.1824   33.7688 H         1 5342088     0.0000 
     63 H          47.9227   15.1587   32.1649 H         1 5342088     0.0000 
     64 H          49.9749   17.2921   31.5093 H         1 5342088     0.0000 
     65 H          48.5313   17.2537   30.8018 H         1 5342088     0.0000 
     66 H          49.0199   18.5849   31.5602 H         1 5342088     0.0000 
@<TRIPOS>BOND
     1    2    1 1    
     2   61    1 1    
     3   62    1 1    
     4   63    1 1    
     5    3    2 1    
     6    4    2 1    
     7   38    2 1    
     8   64    3 1    
     9   65    3 1    
    10   66    3 1    
    11    5    4 ar   
    12    7    4 ar   
    13    6    5 ar   
    14   39    5 1    
    15    9    6 ar   
    16   40    6 1    
    17    8    7 ar   
    18   41    7 1    
    19    9    8 ar   
    20   42    8 1    
    21   10    9 1    
    22   11   10 ar   
    23   15   10 ar   
    24   12   11 ar   
    25   13   12 ar   
    26   43   12 1    
    27   14   13 ar   
    28   44   13 1    
    29   15   14 ar   
    30   16   15 1    
    31   17   16 1    
    32   19   16 1    
    33   18   17 1    
    34   45   17 1    
    35   46   17 1    
    36   21   18 1    
    37   47   18 1    
    38   48   18 1    
    39   20   19 1    
    40   49   19 1    
    41   50   19 1    
    42   21   20 1    
    43   51   20 1    
    44   52   20 1    
    45   22   21 1    
    46   23   22 2    
    47   24   22 2    
    48   25   22 1    
    49   26   25 ar   
    50   27   25 ar   
    51   30   26 ar   
    52   53   26 1    
    53   28   27 ar   
    54   54   27 1    
    55   29   28 ar   
    56   55   28 1    
    57   30   29 ar   
    58   56   29 1    
    59   31   30 1    
    60   32   31 ar   
    61   37   31 ar   
    62   33   32 ar   
    63   57   32 1    
    64   34   33 ar   
    65   35   34 1    
    66   36   34 ar   
    67   58   35 1    
    68   59   35 1    
    69   37   36 ar   
    70   60   37 1    
@<TRIPOS>SUBSTRUCTURE
     1 5342088     1 GROUP   
@<TRIPOS>SET

