#    Name: 2yq9_2AM_1_INTS_M
#    Modification time : Mon Apr  7 18:28:49 2014

@<TRIPOS>MOLECULE
2yq9_2AM_1_INTS_M
   42     0     6     0     0
SMALL
NO_CHARGES


@<TRIPOS>ATOM
      1 N          -5.9875    4.5315  -18.8570 N.am      1 SEC2        0.0000 
      2 N          -6.2450    3.3620  -19.7040 N.am      5 SEL2        0.0000 
      3 N          -5.7300    5.7010  -18.0100 N.am      3 SEP2        0.0000 
      4 N          -5.7370    2.0555  -18.8320 N.am      1 SEC2        0.0000 
      5 N          -5.2290    0.7490  -17.9600 N.am      3 SEP2        0.0000 
      6 N          -6.5405    2.9295  -18.1350 N.am      1 SEC2        0.0000 
      7 N          -6.8360    2.4970  -16.5660 N.am      3 SEP2        0.0000 
      8 N          -6.1825    1.9565  -22.1375 N.am      1 SEC2        0.0000 
      9 N          -5.1830    2.9190  -22.0040 N.am      5 SEL2        0.0000 
     10 N          -7.1820    0.9940  -22.2710 N.am      3 SEP2        0.0000 
     11 N          -5.2845    5.3820  -19.3980 N.am      1 SEC2        0.0000 
     12 N          -4.8390    5.0630  -20.7860 N.am      5 SEL2        0.0000 
     13 N          -3.8600    5.0425  -20.0760 N.am      1 SEC2        0.0000 
     14 N          -2.8810    5.0220  -19.3660 N.am      3 SEP2        0.0000 
     15 CA         -6.6985    7.5685  -26.9740 C.3       2 GLC5        0.0000 
     16 CA         -6.7450    5.8630  -26.2000 C.3       6 GLL5        0.0000 
     17 CA         -6.6520    9.2740  -27.7480 C.3       4 GLP5        0.0000 
     18 CA         -8.8665    5.6635  -26.6610 C.3       2 GLC5        0.0000 
     19 CA        -10.9880    5.4640  -27.1220 C.3       4 GLP5        0.0000 
     20 CA         -7.5690    7.7210  -26.2835 C.3       2 GLC5        0.0000 
     21 CA         -7.0990    6.3750  -24.8140 C.3       6 GLL5        0.0000 
     22 CA         -8.0390    9.0670  -27.7530 C.3       4 GLP5        0.0000 
     23 CA         -8.5115    7.7310  -23.7140 C.3       2 GLC5        0.0000 
     24 CA         -9.9240    9.0870  -22.6140 C.3       4 GLP5        0.0000 
     25 N          -5.2130    7.9705  -23.1645 N.am      1 SEC2        0.0000 
     26 N          -5.9330    6.7680  -22.7540 N.am      5 SEL2        0.0000 
     27 N          -4.4930    9.1730  -23.5750 N.am      3 SEP2        0.0000 
     28 N          -6.7165    7.9340  -22.6290 N.am      1 SEC2        0.0000 
     29 N          -7.5000    9.1000  -22.5040 N.am      3 SEP2        0.0000 
     30 CA         -7.7740    2.8740  -22.1650 C.3       2 GLC5        0.0000 
     31 CA         -7.2700    4.7890  -23.0360 C.3       6 GLL5        0.0000 
     32 CA         -8.2780    0.9590  -21.2940 C.3       4 GLP5        0.0000 
     33 CA         -9.2600    7.2900  -22.9415 C.3       2 GLC5        0.0000 
     34 CA         -8.5960    5.4930  -23.2690 C.3       6 GLL5        0.0000 
     35 CA         -7.9135    1.6690  -25.7960 C.3       2 GLC5        0.0000 
     36 CA         -9.6420    2.2550  -26.1590 C.3       6 GLL5        0.0000 
     37 CA         -6.1850    1.0830  -25.4330 C.3       4 GLP5        0.0000 
     38 CA        -11.6324    4.5302  -24.8188 C.3       2 GLC5        0.0000 
     39 CA        -11.1100    3.0070  -23.9540 C.3       6 GLL5        0.0000 
     40 CA        -12.6340    5.9940  -25.3250 C.3       4 GLP5        0.0000 
     41 CA        -10.0684    1.6783  -23.0823 C.3       2 GLC5        0.0000 
     42 CA         -9.5060    0.2900  -21.8520 C.3       4 GLP5        0.0000 
@<TRIPOS>BOND
@<TRIPOS>SUBSTRUCTURE
     1 SEC2        1 GROUP        1 X    SEC  0     ROOT SEC X 2
     2 GLC5       15 GROUP        1 X    GLC  0     **** GLC X 6
     3 SEP2        3 GROUP        1 Y    SEP  0     ROOT SEP Y 9
     4 GLP5       17 GROUP        1 Y    GLP  0     **** GLP Y 13
     5 SEL2        2 GROUP        1 Z    SEL  0     ROOT SEL Z 16
     6 GLL5       16 GROUP        1 Z    GLL  0     **** GLL Z 20
@<TRIPOS>SET

