#    Name: 2yq9_2AM_1_ligand
#    Modification time : Mon Apr  7 18:28:49 2014

@<TRIPOS>MOLECULE
2yq9_2AM_1_ligand
   35    37     1     0     0
SMALL
NO_CHARGES


@<TRIPOS>ATOM
      1 P          -5.7840    3.9110  -21.0380 P.3       1 2AM1379     0.0000 
      2 O1P        -6.2450    3.3620  -19.7040 O.co2     1 2AM1379     0.0000 
      3 O2P        -5.1830    2.9190  -22.0040 O.co2     1 2AM1379     0.0000 
      4 O3P        -4.8390    5.0630  -20.7860 O.co2     1 2AM1379     0.0000 
      5 C5'        -6.7450    5.8630  -26.2000 C.3       1 2AM1379     0.0000 
      6 O5'        -6.9380    4.4770  -26.3180 O.3       1 2AM1379     0.0000 
      7 C4'        -7.0990    6.3750  -24.8140 C.3       1 2AM1379     0.0000 
      8 O4'        -8.4750    6.1210  -24.5370 O.3       1 2AM1379     0.0000 
      9 C3'        -6.2930    5.7530  -23.6710 C.3       1 2AM1379     0.0000 
     10 O3'        -5.9330    6.7680  -22.7540 O.3       1 2AM1379     0.0000 
     11 C2'        -7.2700    4.7890  -23.0360 C.3       1 2AM1379     0.0000 
     12 O2'        -7.1240    4.5370  -21.6610 O.3       1 2AM1379     0.0000 
     13 C1'        -8.5960    5.4930  -23.2690 C.3       1 2AM1379     0.0000 
     14 N9         -9.7330    4.5680  -23.3090 N.pl3     1 2AM1379     0.0000 
     15 C8        -10.7910    4.5220  -22.4290 C.2       1 2AM1379     0.0000 
     16 N7        -11.6300    3.5640  -22.8380 N.2       1 2AM1379     0.0000 
     17 C5        -11.1100    3.0070  -23.9540 C.ar      1 2AM1379     0.0000 
     18 C6        -11.5750    1.9890  -24.7560 C.ar      1 2AM1379     0.0000 
     19 N6        -12.7260    1.3990  -24.4260 N.pl3     1 2AM1379     0.0000 
     20 N1        -10.8370    1.6140  -25.8610 N.ar      1 2AM1379     0.0000 
     21 C2         -9.6420    2.2550  -26.1590 C.ar      1 2AM1379     0.0000 
     22 N3         -9.1830    3.2880  -25.3480 N.ar      1 2AM1379     0.0000 
     23 C4         -9.9190    3.6350  -24.2700 C.ar      1 2AM1379     0.0000 
     24 H          -7.3608    6.4304  -26.9289 H         1 2AM1379     0.0000 
     25 H          -5.6923    6.1531  -26.4003 H         1 2AM1379     0.0000 
     26 H          -6.9209    7.4555  -24.7876 H         1 2AM1379     0.0000 
     27 H          -5.4893    5.2223  -24.0778 H         1 2AM1379     0.0000 
     28 H          -7.3004    3.8961  -23.6420 H         1 2AM1379     0.0000 
     29 H          -8.7271    6.2277  -22.4993 H         1 2AM1379     0.0000 
     30 H         -10.8885    5.0901  -21.6604 H         1 2AM1379     0.0000 
     31 H         -13.1546    1.7134  -23.5790 H         1 2AM1379     0.0000 
     32 H         -13.0562    0.6956  -25.0555 H         1 2AM1379     0.0000 
     33 H          -9.0939    1.9664  -26.9810 H         1 2AM1379     0.0000 
     34 H          -7.8075    4.2968  -25.8581 H         1 2AM1379     0.0000 
     35 H          -5.5034    6.2861  -21.9903 H         1 2AM1379     0.0000 
@<TRIPOS>BOND
     1    2    1 ar   
     2    3    1 ar   
     3    4    1 ar   
     4   12    1 1    
     5    6    5 1    
     6    7    5 1    
     7   24    5 1    
     8   25    5 1    
     9   34    6 1    
    10    8    7 1    
    11    9    7 1    
    12   26    7 1    
    13   13    8 1    
    14   10    9 1    
    15   11    9 1    
    16   27    9 1    
    17   35   10 1    
    18   12   11 1    
    19   13   11 1    
    20   28   11 1    
    21   14   13 1    
    22   29   13 1    
    23   15   14 1    
    24   23   14 1    
    25   16   15 2    
    26   30   15 1    
    27   17   16 1    
    28   18   17 ar   
    29   23   17 ar   
    30   19   18 1    
    31   20   18 ar   
    32   31   19 1    
    33   32   19 1    
    34   21   20 ar   
    35   22   21 ar   
    36   33   21 1    
    37   23   22 ar   
@<TRIPOS>SUBSTRUCTURE
     1 2AM1379     1 GROUP   
@<TRIPOS>SET

