#    Name: 4kxl_6C6_1_INTS_M
#    Modification time : Tue Mar 25 09:12:50 2014

@<TRIPOS>MOLECULE
4kxl_6C6_1_INTS_M
   68     0     9     0     0
SMALL
NO_CHARGES


@<TRIPOS>ATOM
      1 CA          1.9495   11.0005   63.1325 C.3       3 GLC5        0.0000 
      2 CA          1.1160   12.6580   63.9780 C.3       9 GLL5        0.0000 
      3 CA          2.7830    9.3430   62.2870 C.3       6 GLP5        0.0000 
      4 CA          5.7410   15.2360   67.0765 C.3       3 GLC5        0.0000 
      5 CA          5.3310   14.0670   65.8630 C.3       9 GLL5        0.0000 
      6 CA          6.1510   16.4050   68.2900 C.3       6 GLP5        0.0000 
      7 CA          5.6695   13.0895   64.3360 C.3       3 GLC5        0.0000 
      8 CA          6.0080   12.1120   62.8090 C.3       6 GLP5        0.0000 
      9 N           6.8925   12.2675   66.1250 N.am      2 SEC2        0.0000 
     10 N           5.5930   12.9330   66.5000 N.am      8 SEL2        0.0000 
     11 N           8.1920   11.6020   65.7500 N.am      5 SEP2        0.0000 
     12 CA          3.1665   10.6990   63.9875 C.3       3 GLC5        0.0000 
     13 CA          3.5500   12.0550   65.6880 C.3       9 GLL5        0.0000 
     14 CA          6.1565    8.7990   66.7215 C.3       3 GLC5        0.0000 
     15 CA          5.8100   10.1490   67.8540 C.3       9 GLL5        0.0000 
     16 CA          6.5030    7.4490   65.5890 C.3       6 GLP5        0.0000 
     17 N           7.8870   10.4210   69.2545 N.am      2 SEC2        0.0000 
     18 N           7.2080   11.4920   69.4190 N.am      8 SEL2        0.0000 
     19 N           8.5660    9.3500   69.0900 N.am      5 SEP2        0.0000 
     20 N           5.8440   10.0150   72.7850 N.am      2 SEC2        0.0000 
     21 N           6.2290    9.9230   71.3410 N.am      8 SEL2        0.0000 
     22 N           5.4590   10.1070   74.2290 N.am      5 SEP2        0.0000 
     23 N           7.3975    9.6365   70.2155 N.am      2 SEC2        0.0000 
     24 O           7.3975    9.6365   70.2155 O.2       1 ALC1        0.0000 
     25 O           6.2290    9.9230   71.3410 O.2       7 ALL1        0.0000 
     26 O           8.5660    9.3500   69.0900 O.2       4 ALP1        0.0000 
     27 O           7.1220    9.0100   71.0680 O.2       1 ALC1        0.0000 
     28 O           8.0150    8.0970   70.7950 O.2       4 ALP1        0.0000 
     29 CA          2.2125    8.5700   71.3875 C.3       3 GLC5        0.0000 
     30 CA          3.3870    8.6670   69.5970 C.3       9 GLL5        0.0000 
     31 CA          1.0380    8.4730   73.1780 C.3       6 GLP5        0.0000 
     32 CA          2.3000   10.3530   69.8155 C.3       3 GLC5        0.0000 
     33 CA          1.2130   12.0390   70.0340 C.3       6 GLP5        0.0000 
     34 N           2.6925    4.8330   68.3500 N.am      2 SEC2        0.0000 
     35 N           1.5800    5.7140   67.9910 N.am      8 SEL2        0.0000 
     36 N           3.8050    3.9520   68.7090 N.am      5 SEP2        0.0000 
     37 N           2.1560    5.5060   66.8085 N.am      2 SEC2        0.0000 
     38 N           2.7320    5.2980   65.6260 N.am      5 SEP2        0.0000 
     39 N          -0.3270    8.5365   68.2255 N.am      2 SEC2        0.0000 
     40 N           0.9200    8.2040   67.6920 N.am      8 SEL2        0.0000 
     41 N          -1.5740    8.8690   68.7590 N.am      5 SEP2        0.0000 
     42 N           0.4825    8.2855   70.5835 N.am      2 SEC2        0.0000 
     43 N           0.8380    7.0600   69.9750 N.am      8 SEL2        0.0000 
     44 N           0.1270    9.5110   71.1920 N.am      5 SEP2        0.0000 
     45 N          -0.6465    6.7860   69.9810 N.am      2 SEC2        0.0000 
     46 N          -2.1310    6.5120   69.9870 N.am      5 SEP2        0.0000 
     47 N           1.5660    6.2035   70.6205 N.am      2 SEC2        0.0000 
     48 N           2.2940    5.3470   71.2660 N.am      5 SEP2        0.0000 
     49 CA         -0.8273   14.8975   61.7823 C.3       3 GLC5        0.0000 
     50 CA          0.3380   13.2480   62.7840 C.3       9 GLL5        0.0000 
     51 CA         -1.4940   16.0430   60.4840 C.3       6 GLP5        0.0000 
     52 CA         -0.5637   12.7557   66.7963 C.3       3 GLC5        0.0000 
     53 CA         -0.7400   13.9550   64.8850 C.3       9 GLL5        0.0000 
     54 CA         -0.8080   12.1920   68.5910 C.3       6 GLP5        0.0000 
     55 CA          3.1759   12.4575   67.4952 C.3       3 GLC5        0.0000 
     56 CA          3.3130   13.2670   65.0440 C.3       9 GLL5        0.0000 
     57 CA          2.2770   12.6230   69.0830 C.3       6 GLP5        0.0000 
     58 CA          5.0414   12.2020   64.3582 C.3       3 GLC5        0.0000 
     59 CA          5.8155   12.0403   70.8300 C.3       3 GLC5        0.0000 
     60 CA          5.8750   11.0300   69.1260 C.3       9 GLL5        0.0000 
     61 CA          6.0420   13.4690   71.9550 C.3       6 GLP5        0.0000 
     62 CA          3.9249   11.5071   69.2350 C.3       3 GLC5        0.0000 
     63 CA          5.3030   10.1930   70.2840 C.3       9 GLL5        0.0000 
     64 CA          4.5075    6.8357   69.0233 C.3       3 GLC5        0.0000 
     65 CA          4.9190    8.8480   69.6520 C.3       9 GLL5        0.0000 
     66 CA          4.8620    4.9140   68.4220 C.3       6 GLP5        0.0000 
     67 CA          4.4195    7.7397   71.3912 C.3       3 GLC5        0.0000 
     68 CA          4.6860    6.7220   73.1580 C.3       6 GLP5        0.0000 
@<TRIPOS>BOND
@<TRIPOS>SUBSTRUCTURE
     1 ALC1       24 GROUP        1 X    ALC  0     ROOT ALC X 1
     2 SEC2        9 GROUP        1 X    SEC  0     **** SEC X 2
     3 GLC5        1 GROUP        1 X    GLC  0     **** GLC X 6
     4 ALP1       26 GROUP        1 Y    ALP  0     ROOT ALP Y 8
     5 SEP2       11 GROUP        1 Y    SEP  0     **** SEP Y 9
     6 GLP5        3 GROUP        1 Y    GLP  0     **** GLP Y 13
     7 ALL1       25 GROUP        1 Z    ALL  0     ROOT ALL Z 15
     8 SEL2       10 GROUP        1 Z    SEL  0     **** SEL Z 16
     9 GLL5        2 GROUP        1 Z    GLL  0     **** GLL Z 20
@<TRIPOS>SET

