#    Name: 4kxl_6C6_1_ligand
#    Modification time : Tue Mar 25 09:12:50 2014

@<TRIPOS>MOLECULE
4kxl_6C6_1_ligand
   48    51     1     0     0
SMALL
NO_CHARGES


@<TRIPOS>ATOM
      1 C65         0.3380   13.2480   62.7840 C.3       1 6C6201      0.0000 
      2 C64        -0.6590   14.2560   63.3770 C.3       1 6C6201      0.0000 
      3 C63        -0.7400   13.9550   64.8850 C.3       1 6C6201      0.0000 
      4 C62         0.1010   12.6840   65.1180 C.3       1 6C6201      0.0000 
      5 C61         1.1160   12.6580   63.9780 C.3       1 6C6201      0.0000 
      6 N6          2.2340   13.5610   64.2970 N.pl3     1 6C6201      0.0000 
      7 C6          3.3130   13.2670   65.0440 C.ar      1 6C6201      0.0000 
      8 N1          4.2260   14.2520   65.1630 N.ar      1 6C6201      0.0000 
      9 C2          5.3310   14.0670   65.8630 C.ar      1 6C6201      0.0000 
     10 N3          5.5930   12.9330   66.5000 N.ar      1 6C6201      0.0000 
     11 C4          4.7180   11.9230   66.4490 C.ar      1 6C6201      0.0000 
     12 C5          3.5500   12.0550   65.6880 C.ar      1 6C6201      0.0000 
     13 N7          2.8820   10.8990   65.8030 N.2       1 6C6201      0.0000 
     14 C8          3.6180   10.0760   66.5640 C.2       1 6C6201      0.0000 
     15 N9          4.7470   10.6950   66.9570 N.pl3     1 6C6201      0.0000 
     16 C1'         5.8100   10.1490   67.8540 C.3       1 6C6201      0.0000 
     17 O4'         5.4080    8.8250   68.2880 O.3       1 6C6201      0.0000 
     18 C2'         5.8750   11.0300   69.1260 C.3       1 6C6201      0.0000 
     19 O2'         7.2080   11.4920   69.4190 O.3       1 6C6201      0.0000 
     20 C3'         5.3030   10.1930   70.2840 C.3       1 6C6201      0.0000 
     21 O3'         6.2290    9.9230   71.3410 O.3       1 6C6201      0.0000 
     22 C4'         4.9190    8.8480   69.6520 C.3       1 6C6201      0.0000 
     23 C5'         3.3870    8.6670   69.5970 C.3       1 6C6201      0.0000 
     24 O5'         3.0630    7.5130   68.8830 O.3       1 6C6201      0.0000 
     25 PA          1.5100    7.1240   68.6570 P.3       1 6C6201      0.0000 
     26 OA2         1.5800    5.7140   67.9910 O.co2     1 6C6201      0.0000 
     27 OA3         0.9200    8.2040   67.6920 O.co2     1 6C6201      0.0000 
     28 OA1         0.8380    7.0600   69.9750 O.co2     1 6C6201      0.0000 
     29 H           1.0161   13.7539   62.1335 H         1 6C6201      0.0000 
     30 H          -0.1934   12.4679   62.2861 H         1 6C6201      0.0000 
     31 H          -1.6203   14.1130   62.9330 H         1 6C6201      0.0000 
     32 H          -0.2939   15.2495   63.2311 H         1 6C6201      0.0000 
     33 H          -1.7542   13.7659   65.1578 H         1 6C6201      0.0000 
     34 H          -0.3183   14.7667   65.4347 H         1 6C6201      0.0000 
     35 H          -0.5301   11.8283   65.0625 H         1 6C6201      0.0000 
     36 H           0.6056   12.7612   66.0524 H         1 6C6201      0.0000 
     37 H           1.4013   11.6927   63.7671 H         1 6C6201      0.0000 
     38 H           2.1333   14.5378   63.8696 H         1 6C6201      0.0000 
     39 H           6.0436   14.8607   65.9199 H         1 6C6201      0.0000 
     40 H           3.3728    9.1586   66.8009 H         1 6C6201      0.0000 
     41 H           6.7425   10.1512   67.3880 H         1 6C6201      0.0000 
     42 H           5.1890   11.8615   68.9699 H         1 6C6201      0.0000 
     43 H           4.3995   10.6484   70.6229 H         1 6C6201      0.0000 
     44 H           5.3388    8.0557   70.2229 H         1 6C6201      0.0000 
     45 H           2.9751    9.5802   69.1402 H         1 6C6201      0.0000 
     46 H           3.0328    8.6367   70.6391 H         1 6C6201      0.0000 
     47 H           7.3144   11.3662   70.4053 H         1 6C6201      0.0000 
     48 H           6.8122    9.1891   70.9928 H         1 6C6201      0.0000 
@<TRIPOS>BOND
     1    2    1 1    
     2    5    1 1    
     3   29    1 1    
     4   30    1 1    
     5    3    2 1    
     6   31    2 1    
     7   32    2 1    
     8    4    3 1    
     9   33    3 1    
    10   34    3 1    
    11    5    4 1    
    12   35    4 1    
    13   36    4 1    
    14    6    5 1    
    15   37    5 1    
    16    7    6 1    
    17   38    6 1    
    18    8    7 ar   
    19   12    7 ar   
    20    9    8 ar   
    21   10    9 ar   
    22   39    9 1    
    23   11   10 ar   
    24   12   11 ar   
    25   15   11 1    
    26   13   12 1    
    27   14   13 2    
    28   15   14 1    
    29   40   14 1    
    30   16   15 1    
    31   17   16 1    
    32   18   16 1    
    33   41   16 1    
    34   22   17 1    
    35   19   18 1    
    36   20   18 1    
    37   42   18 1    
    38   47   19 1    
    39   21   20 1    
    40   22   20 1    
    41   43   20 1    
    42   48   21 1    
    43   23   22 1    
    44   44   22 1    
    45   24   23 1    
    46   45   23 1    
    47   46   23 1    
    48   25   24 1    
    49   26   25 ar   
    50   27   25 ar   
    51   28   25 ar   
@<TRIPOS>SUBSTRUCTURE
     1 6C6201      1 GROUP   
@<TRIPOS>SET

