#    Name: 3ovm_MZC_1_INTS_M
#    Modification time : Tue Mar 25 05:20:09 2014

@<TRIPOS>MOLECULE
3ovm_MZC_1_INTS_M
   32     0     3     0     0
SMALL
NO_CHARGES


@<TRIPOS>ATOM
      1 CA         23.5275  -19.5750  -17.6700 C.3       1 GLC5        0.0000 
      2 CA         23.8470  -18.3490  -16.0860 C.3       3 GLL5        0.0000 
      3 CA         23.2080  -20.8010  -19.2540 C.3       2 GLP5        0.0000 
      4 CA         22.9205  -16.4770  -16.7180 C.3       1 GLC5        0.0000 
      5 CA         21.9940  -14.6050  -17.3500 C.3       2 GLP5        0.0000 
      6 CA         26.7695  -17.0650  -15.0800 C.3       1 GLC5        0.0000 
      7 CA         25.3170  -18.0260  -15.8190 C.3       3 GLL5        0.0000 
      8 CA         28.2220  -16.1040  -14.3410 C.3       2 GLP5        0.0000 
      9 CA         28.6380  -19.7470  -15.7525 C.3       1 GLC5        0.0000 
     10 CA         27.6840  -20.6040  -17.2010 C.3       3 GLL5        0.0000 
     11 CA         29.5920  -18.8900  -14.3040 C.3       2 GLP5        0.0000 
     12 CA         26.8145  -22.4630  -17.4310 C.3       1 GLC5        0.0000 
     13 CA         25.9450  -24.3220  -17.6610 C.3       2 GLP5        0.0000 
     14 CA         28.3045  -21.1300  -18.7550 C.3       1 GLC5        0.0000 
     15 CA         28.9250  -21.6560  -20.3090 C.3       2 GLP5        0.0000 
     16 CA         28.1865  -10.5155  -16.5145 C.3       1 GLC5        0.0000 
     17 CA         27.9390  -12.3370  -16.8810 C.3       3 GLL5        0.0000 
     18 CA         28.4340   -8.6940  -16.1480 C.3       2 GLP5        0.0000 
     19 CA         25.8320  -11.8570  -16.9290 C.3       1 GLC5        0.0000 
     20 CA         23.7250  -11.3770  -16.9770 C.3       2 GLP5        0.0000 
     21 CA         26.2470  -15.4157  -14.4387 C.3       1 GLC5        0.0000 
     22 CA         24.2690  -14.1050  -14.2260 C.3       3 GLL5        0.0000 
     23 CA         22.8705  -15.1958  -16.0448 C.3       1 GLC5        0.0000 
     24 CA         24.2750  -15.3500  -14.8470 C.3       3 GLL5        0.0000 
     25 CA         22.0527  -14.9305  -15.4000 C.3       1 GLC5        0.0000 
     26 CA         22.0960  -15.8820  -13.7520 C.3       3 GLL5        0.0000 
     27 CA         22.8648  -14.2698  -15.5787 C.3       1 GLC5        0.0000 
     28 CA         23.2020  -13.7640  -13.3890 C.3       3 GLL5        0.0000 
     29 CA         22.1665  -16.1840  -16.1025 C.3       1 GLC5        0.0000 
     30 CA         22.9510  -17.5750  -15.1400 C.3       3 GLL5        0.0000 
     31 CA         24.5915  -17.7413  -17.9742 C.3       1 GLC5        0.0000 
     32 CA         24.6010  -17.2950  -19.9960 C.3       2 GLP5        0.0000 
@<TRIPOS>BOND
@<TRIPOS>SUBSTRUCTURE
     1 GLC5        1 GROUP        1 X    GLC  0     ROOT GLC X 6
     2 GLP5        3 GROUP        1 Y    GLP  0     ROOT GLP Y 13
     3 GLL5        2 GROUP        1 Z    GLL  0     ROOT GLL Z 20
@<TRIPOS>SET

