#    Name: 3ovm_MZC_1_ligand
#    Modification time : Tue Mar 25 05:20:09 2014

@<TRIPOS>MOLECULE
3ovm_MZC_1_ligand
   37    38     1     0     0
SMALL
NO_CHARGES


@<TRIPOS>ATOM
      1 C1         24.2750  -15.3500  -14.8470 C.ar      1 MZC233      0.0000 
      2 N1         21.2440  -16.9370  -13.7710 N.pl3     1 MZC233      0.0000 
      3 C2         23.2190  -16.2230  -14.6320 C.ar      1 MZC233      0.0000 
      4 N2         26.2470  -18.7570  -16.6630 N.am      1 MZC233      0.0000 
      5 O2         26.2880  -14.3880  -16.1470 O.2       1 MZC233      0.0000 
      6 C3         22.0960  -15.8820  -13.7520 C.ar      1 MZC233      0.0000 
      7 N3         25.2960  -13.2330  -14.4340 N.am      1 MZC233      0.0000 
      8 O3         27.1090  -12.2880  -15.7060 O.3       1 MZC233      0.0000 
      9 C4         22.1270  -14.6300  -13.1480 C.ar      1 MZC233      0.0000 
     10 C5         23.2020  -13.7640  -13.3890 C.ar      1 MZC233      0.0000 
     11 C6         24.2690  -14.1050  -14.2260 C.ar      1 MZC233      0.0000 
     12 C7         22.9510  -17.5750  -15.1400 C.2       1 MZC233      0.0000 
     13 C8         21.7270  -17.9510  -14.5700 C.2       1 MZC233      0.0000 
     14 C10        23.8470  -18.3490  -16.0860 C.3       1 MZC233      0.0000 
     15 C11        25.3170  -18.0260  -15.8190 C.3       1 MZC233      0.0000 
     16 C13        26.4840  -20.0570  -16.4890 C.2       1 MZC233      0.0000 
     17 C14        27.6840  -20.6040  -17.2010 C.3       1 MZC233      0.0000 
     18 C17        26.1890  -13.3860  -15.4340 C.2       1 MZC233      0.0000 
     19 C18        27.9390  -12.3370  -16.8810 C.3       1 MZC233      0.0000 
     20 OXT        25.7620  -20.7610  -15.7980 O.2       1 MZC233      0.0000 
     21 H          25.0533  -15.6176  -15.4572 H         1 MZC233      0.0000 
     22 H          20.3975  -16.9839  -13.2869 H         1 MZC233      0.0000 
     23 H          26.7162  -18.2032  -17.4111 H         1 MZC233      0.0000 
     24 H          25.3917  -12.4053  -13.7824 H         1 MZC233      0.0000 
     25 H          21.3660  -14.3360  -12.5258 H         1 MZC233      0.0000 
     26 H          23.2053  -12.8295  -12.9257 H         1 MZC233      0.0000 
     27 H          21.2970  -18.7972  -14.7224 H         1 MZC233      0.0000 
     28 H          23.6060  -18.0856  -17.1148 H         1 MZC233      0.0000 
     29 H          23.6868  -19.4174  -15.9487 H         1 MZC233      0.0000 
     30 H          25.4501  -16.9301  -15.9467 H         1 MZC233      0.0000 
     31 H          25.5178  -18.2310  -14.7454 H         1 MZC233      0.0000 
     32 H          28.5264  -20.1489  -16.9126 H         1 MZC233      0.0000 
     33 H          27.8049  -21.5815  -17.0280 H         1 MZC233      0.0000 
     34 H          27.6128  -20.4883  -18.1917 H         1 MZC233      0.0000 
     35 H          28.5235  -11.5291  -16.9568 H         1 MZC233      0.0000 
     36 H          28.5413  -13.1352  -16.8772 H         1 MZC233      0.0000 
     37 H          27.3946  -12.3846  -17.7185 H         1 MZC233      0.0000 
@<TRIPOS>BOND
     1    3    1 ar   
     2   11    1 ar   
     3   21    1 1    
     4    6    2 1    
     5   13    2 1    
     6   22    2 1    
     7    6    3 ar   
     8   12    3 1    
     9   15    4 1    
    10   16    4 am   
    11   23    4 1    
    12   18    5 2    
    13    9    6 ar   
    14   11    7 1    
    15   18    7 am   
    16   24    7 1    
    17   18    8 1    
    18   19    8 1    
    19   10    9 ar   
    20   25    9 1    
    21   11   10 ar   
    22   26   10 1    
    23   13   12 2    
    24   14   12 1    
    25   27   13 1    
    26   15   14 1    
    27   28   14 1    
    28   29   14 1    
    29   30   15 1    
    30   31   15 1    
    31   17   16 1    
    32   20   16 2    
    33   32   17 1    
    34   33   17 1    
    35   34   17 1    
    36   35   19 1    
    37   36   19 1    
    38   37   19 1    
@<TRIPOS>SUBSTRUCTURE
     1 MZC233      1 GROUP   
@<TRIPOS>SET

