#    Name: 3C27_1_CAVITY_N1_ALL.mol2
#    Modification time : Tue Mar 11 12:43:12 2014

@<TRIPOS>MOLECULE
3C27_1_CAVITY_N1_ALL.mol2
   89     0     7     0     0
SMALL
NO_CHARGES


@<TRIPOS>ATOM
      1 OG         20.9562  -16.4775   22.2820 O.2       1 SER1        0.0000 
      2 CZ         19.8076  -16.9719   21.4535 C.ar      5 PHE5        0.0000 
      3 OG         21.7377  -14.5679   22.7748 O.2       1 SER1        0.0000 
      4 DU         19.6969  -15.0081   23.1510 H         7 CUB7        0.0000 
      5 OG         20.5891  -15.0623   21.9464 O.2       1 SER1        0.0000 
      6 N          17.6561  -15.4482   23.5271 N.2       2 ALA2        0.0000 
      7 DU         18.5483  -15.5025   22.3225 H         7 CUB7        0.0000 
      8 CZ         19.4405  -15.5567   21.1179 C.ar      5 PHE5        0.0000 
      9 CZ         17.3997  -15.9969   21.4941 C.ar      5 PHE5        0.0000 
     10 N          15.3590  -16.4370   21.8702 N.2       2 ALA2        0.0000 
     11 O          13.3182  -16.8771   22.2463 O.2       2 ALA2        0.0000 
     12 DU         14.2104  -16.9314   21.0417 H         7 CUB7        0.0000 
     13 CA         12.1696  -17.3715   21.4179 C.3       6 GLY6        0.0000 
     14 CA         19.3298  -13.5929   22.8153 C.3       6 GLY6        0.0000 
     15 CA         20.2220  -13.6472   21.6108 C.3       6 GLY6        0.0000 
     16 CZ         21.1142  -13.7014   20.4062 C.ar      5 PHE5        0.0000 
     17 CA         18.1813  -14.0873   21.9869 C.3       6 GLY6        0.0000 
     18 CZ         19.0735  -14.1416   20.7823 C.ar      5 PHE5        0.0000 
     19 CZ         19.9657  -14.1958   19.5777 C.ar      5 PHE5        0.0000 
     20 N          16.1405  -14.5275   22.3630 N.2       2 ALA2        0.0000 
     21 CZ         17.0327  -14.5817   21.1584 C.ar      5 PHE5        0.0000 
     22 CZ         17.9249  -14.6360   19.9539 C.ar      5 PHE5        0.0000 
     23 N          14.9919  -15.0219   21.5346 N.2       2 ALA2        0.0000 
     24 CZ         15.8841  -15.0761   20.3300 C.ar      5 PHE5        0.0000 
     25 N          12.9511  -15.4620   21.9107 N.2       2 ALA2        0.0000 
     26 DU         13.8433  -15.5162   20.7061 H         7 CUB7        0.0000 
     27 NZ         14.7355  -15.5705   19.5015 N.2       4 LYS4        0.0000 
     28 CA         11.8025  -15.9564   21.0823 C.3       6 GLY6        0.0000 
     29 NZ         12.6947  -16.0106   19.8777 N.2       4 LYS4        0.0000 
     30 NZ         13.5869  -16.0649   18.6731 N.2       4 LYS4        0.0000 
     31 NZ         11.5461  -16.5050   19.0492 N.2       4 LYS4        0.0000 
     32 CA         17.8142  -12.6722   21.6513 C.3       6 GLY6        0.0000 
     33 CA         18.7064  -12.7264   20.4467 C.3       6 GLY6        0.0000 
     34 CA         19.5986  -12.7807   19.2421 C.3       6 GLY6        0.0000 
     35 CA         15.7734  -13.1123   22.0274 C.3       6 GLY6        0.0000 
     36 DU         16.6656  -13.1666   20.8228 H         7 CUB7        0.0000 
     37 CZ         17.5578  -13.2208   19.6182 C.ar      5 PHE5        0.0000 
     38 CZ         18.4500  -13.2751   18.4137 C.ar      5 PHE5        0.0000 
     39 O          12.8404  -13.4982   23.6082 O.2       2 ALA2        0.0000 
     40 O          13.7326  -13.5525   22.4036 O.2       2 ALA2        0.0000 
     41 DU         14.6248  -13.6067   21.1990 H         7 CUB7        0.0000 
     42 DU         15.5170  -13.6610   19.9944 H         7 CUB7        0.0000 
     43 CZ         16.4092  -13.7152   18.7898 C.ar      5 PHE5        0.0000 
     44 N          12.5841  -14.0468   21.5751 N.2       2 ALA2        0.0000 
     45 O          13.4763  -14.1011   20.3705 O.2       2 ALA2        0.0000 
     46 CA         14.3684  -14.1554   19.1659 C.3       6 GLY6        0.0000 
     47 CA         15.2606  -14.2096   17.9613 C.3       6 GLY6        0.0000 
     48 CZ         16.1528  -14.2639   16.7568 C.ar      5 PHE5        0.0000 
     49 CZ         17.0450  -14.3181   15.5522 C.ar      5 PHE5        0.0000 
     50 CA         11.4355  -14.5412   20.7467 C.3       6 GLY6        0.0000 
     51 O          12.3277  -14.5955   19.5421 O.2       2 ALA2        0.0000 
     52 CA         13.2199  -14.6498   18.3375 C.3       6 GLY6        0.0000 
     53 CA         15.0043  -14.7583   15.9283 C.3       6 GLY6        0.0000 
     54 NZ         15.8965  -14.8125   14.7237 N.2       4 LYS4        0.0000 
     55 N          15.4064  -11.6972   21.6918 N.2       2 ALA2        0.0000 
     56 N          16.2986  -11.7514   20.4872 N.2       2 ALA2        0.0000 
     57 N          17.1908  -11.8057   19.2826 N.2       2 ALA2        0.0000 
     58 CA         11.5812  -12.0288   24.4771 C.3       6 GLY6        0.0000 
     59 O          12.4734  -12.0830   23.2725 O.2       2 ALA2        0.0000 
     60 O          13.3656  -12.1373   22.0679 O.2       2 ALA2        0.0000 
     61 OG         14.2578  -12.1916   20.8634 O.2       1 SER1        0.0000 
     62 OG         15.1500  -12.2458   19.6588 O.2       1 SER1        0.0000 
     63 OG         16.0422  -12.3001   18.4542 O.2       1 SER1        0.0000 
     64 CA         16.9344  -12.3543   17.2496 C.3       6 GLY6        0.0000 
     65 OD1        17.8266  -12.4086   16.0450 O.3       3 ASP3        0.0000 
     66 CA         11.3248  -12.5774   22.4441 C.3       6 GLY6        0.0000 
     67 CA         12.2170  -12.6317   21.2395 C.3       6 GLY6        0.0000 
     68 O          13.1092  -12.6860   20.0349 O.2       2 ALA2        0.0000 
     69 CA         14.0014  -12.7402   18.8303 C.3       6 GLY6        0.0000 
     70 OG         14.8936  -12.7945   17.6257 O.2       1 SER1        0.0000 
     71 CA         15.7858  -12.8487   16.4211 C.3       6 GLY6        0.0000 
     72 OD1        16.6780  -12.9030   15.2166 O.3       3 ASP3        0.0000 
     73 CA         15.5294  -13.3974   14.3881 C.3       6 GLY6        0.0000 
     74 N          12.3627  -10.1193   24.9700 N.2       2 ALA2        0.0000 
     75 N          13.2549  -10.1735   23.7654 N.2       2 ALA2        0.0000 
     76 N          14.1471  -10.2278   22.5608 N.2       2 ALA2        0.0000 
     77 NZ         11.2141  -10.6136   24.1415 N.2       4 LYS4        0.0000 
     78 CA         12.1063  -10.6679   22.9369 C.3       6 GLY6        0.0000 
     79 N          12.9985  -10.7222   21.7323 N.2       2 ALA2        0.0000 
     80 OG         13.8907  -10.7764   20.5277 O.2       1 SER1        0.0000 
     81 OG         16.5673  -10.9392   16.9140 O.2       1 SER1        0.0000 
     82 OD1        17.4595  -10.9935   15.7094 O.3       3 ASP3        0.0000 
     83 O          10.9577  -11.1623   22.1085 O.2       2 ALA2        0.0000 
     84 N          11.8499  -11.2166   20.9039 N.2       2 ALA2        0.0000 
     85 OG         15.4187  -11.4336   16.0855 O.2       1 SER1        0.0000 
     86 OD1        16.3109  -11.4879   14.8809 O.3       3 ASP3        0.0000 
     87 O          14.2701  -11.9280   15.2571 O.2       2 ALA2        0.0000 
     88 N          15.1623  -11.9822   14.0525 N.2       2 ALA2        0.0000 
     89 CA         11.7393   -9.2528   22.6013 C.3       6 GLY6        0.0000 
@<TRIPOS>BOND
@<TRIPOS>SUBSTRUCTURE
     1 SER1        1 GROUP   
     2 ALA2        6 GROUP   
     3 ASP3       65 GROUP   
     4 LYS4       27 GROUP   
     5 PHE5        2 GROUP   
     6 GLY6       13 GROUP   
     7 CUB7        4 GROUP   
@<TRIPOS>SET

