#    Name: 3c27_DKK_1_INTS_M
#    Modification time : Mon Mar 24 20:24:11 2014

@<TRIPOS>MOLECULE
3c27_DKK_1_INTS_M
   75     0     9     0     0
SMALL
NO_CHARGES


@<TRIPOS>ATOM
      1 OD1         9.7415  -10.5860   25.1640 O.co2     2 ASC3        0.0000 
      2 OD1        11.2340  -11.8410   24.0240 O.co2     8 ASL3        0.0000 
      3 OD1         8.3180  -10.4720   25.7720 O.co2     5 ASP3        0.0000 
      4 OD1         9.3695  -11.7125   25.1400 O.co2     2 ASC3        0.0000 
      5 OD1         8.1240  -12.6470   25.9580 O.co2     5 ASP3        0.0000 
      6 CA         12.5245  -12.1365   18.8610 C.3       3 GLC5        0.0000 
      7 CA         13.8110  -11.4750   20.5450 C.3       9 GLL5        0.0000 
      8 CA         11.2380  -12.7980   17.1770 C.3       6 GLP5        0.0000 
      9 CA         18.3610  -11.0775   19.6620 C.3       3 GLC5        0.0000 
     10 CA         17.6400  -12.3090   20.7360 C.3       9 GLL5        0.0000 
     11 CA         19.0820   -9.8460   18.5880 C.3       6 GLP5        0.0000 
     12 CA         19.6185  -11.5920   19.1885 C.3       3 GLC5        0.0000 
     13 CA         20.1550  -13.3380   19.7890 C.3       9 GLL5        0.0000 
     14 CA         21.6250  -14.4455   19.3970 C.3       3 GLC5        0.0000 
     15 CA         23.0950  -15.5530   19.0050 C.3       6 GLP5        0.0000 
     16 CA         19.3965  -14.7725   18.8635 C.3       3 GLC5        0.0000 
     17 CA         18.6380  -16.2070   17.9380 C.3       6 GLP5        0.0000 
     18 O           9.7415  -10.5860   25.1640 O.2       1 ALC1        0.0000 
     19 O          11.1650  -10.7000   24.5560 O.2       7 ALL1        0.0000 
     20 O           8.3180  -10.4720   25.7720 O.2       4 ALP1        0.0000 
     21 O           9.3695  -11.7125   25.1400 O.2       1 ALC1        0.0000 
     22 O          10.4210  -12.9530   24.5080 O.2       7 ALL1        0.0000 
     23 O           9.2725  -12.8000   25.2330 O.2       1 ALC1        0.0000 
     24 O           8.1240  -12.6470   25.9580 O.2       4 ALP1        0.0000 
     25 O          10.5520  -14.3150   24.2910 O.2       1 ALC1        0.0000 
     26 O          10.6830  -15.6770   24.0740 O.2       4 ALP1        0.0000 
     27 O          10.0865  -13.4370   26.1045 O.2       1 ALC1        0.0000 
     28 O           9.7520  -13.9210   27.7010 O.2       4 ALP1        0.0000 
     29 CA         11.0800  -11.1990   20.8185 C.3       3 GLC5        0.0000 
     30 CA         13.0770  -10.4740   21.4600 C.3       9 GLL5        0.0000 
     31 CA          9.0830  -11.9240   20.1770 C.3       6 GLP5        0.0000 
     32 CA         12.7795   -8.6535   21.5310 C.3       3 GLC5        0.0000 
     33 CA         12.4820   -6.8330   21.6020 C.3       6 GLP5        0.0000 
     34 CA         14.5890  -10.6805   22.9880 C.3       3 GLC5        0.0000 
     35 CA         16.1010  -10.8870   24.5160 C.3       6 GLP5        0.0000 
     36 O          15.9185  -10.3550   21.5540 O.2       1 ALC1        0.0000 
     37 O          15.2510  -11.3940   20.7940 O.2       7 ALL1        0.0000 
     38 O          16.5860   -9.3160   22.3140 O.2       4 ALP1        0.0000 
     39 CA         15.0965  -13.5985   24.5085 C.3       3 GLC5        0.0000 
     40 CA         16.3160  -13.7560   22.8610 C.3       9 GLL5        0.0000 
     41 CA         13.8770  -13.4410   26.1560 C.3       6 GLP5        0.0000 
     42 O          16.1150  -15.7255   24.5615 O.2       1 ALC1        0.0000 
     43 O          17.3670  -16.1260   24.0650 O.2       7 ALL1        0.0000 
     44 O          14.8630  -15.3250   25.0580 O.2       4 ALP1        0.0000 
     45 CA         18.8465  -16.2050   28.5155 C.3       3 GLC5        0.0000 
     46 CA         17.7260  -16.2500   26.7790 C.3       9 GLL5        0.0000 
     47 CA         19.9670  -16.1600   30.2520 C.3       6 GLP5        0.0000 
     48 CA         21.6195  -16.3065   27.3390 C.3       3 GLC5        0.0000 
     49 CA         22.1640  -15.8090   25.2500 C.3       9 GLL5        0.0000 
     50 CA         21.0750  -16.8040   29.4280 C.3       6 GLP5        0.0000 
     51 CA         19.3185  -11.9205   22.0528 C.3       3 GLC5        0.0000 
     52 CA         18.1960  -13.5850   21.3850 C.3       9 GLL5        0.0000 
     53 CA         20.7190  -10.8940   23.0450 C.3       6 GLP5        0.0000 
     54 CA         17.6910  -12.2445   22.9543 C.3       3 GLC5        0.0000 
     55 CA         17.4640  -11.5420   24.8480 C.3       6 GLP5        0.0000 
     56 CA         20.2578  -12.3045   21.6983 C.3       3 GLC5        0.0000 
     57 CA         19.4380  -14.0920   20.9140 C.3       9 GLL5        0.0000 
     58 CA         22.8697  -13.3003   26.9408 C.3       3 GLC5        0.0000 
     59 CA         20.9420  -13.9180   26.1680 C.3       9 GLL5        0.0000 
     60 CA         24.2070  -12.4200   27.9780 C.3       6 GLP5        0.0000 
     61 CA         21.7817  -12.6182   24.8723 C.3       3 GLC5        0.0000 
     62 CA         22.1230  -14.4430   25.6390 C.3       9 GLL5        0.0000 
     63 CA         22.0310  -11.0560   23.8410 C.3       6 GLP5        0.0000 
     64 CA         18.9235  -12.9318   25.5382 C.3       3 GLC5        0.0000 
     65 CA         19.8240  -14.7250   26.2890 C.3       9 GLL5        0.0000 
     66 CA         17.2565  -12.9169   23.8148 C.3       3 GLC5        0.0000 
     67 CA         17.5100  -14.2400   22.4200 C.3       9 GLL5        0.0000 
     68 CA         19.9085  -17.1745   27.8850 C.3       3 GLC5        0.0000 
     69 CA         18.6150  -16.9550   26.0290 C.3       9 GLL5        0.0000 
     70 CA         17.6587  -14.8912   27.0755 C.3       3 GLC5        0.0000 
     71 CA         17.1470  -13.1800   27.7470 C.3       6 GLP5        0.0000 
     72 CA         16.8239  -17.3719   27.4708 C.3       3 GLC5        0.0000 
     73 CA         15.1280  -17.3750   28.4120 C.3       6 GLP5        0.0000 
     74 CA         20.6032  -16.0069   27.7476 C.3       3 GLC5        0.0000 
     75 CA         19.8800  -16.0980   25.9060 C.3       9 GLL5        0.0000 
@<TRIPOS>BOND
@<TRIPOS>SUBSTRUCTURE
     1 ALC1       18 GROUP        1 X    ALC  0     ROOT ALC X 1
     2 ASC3        1 GROUP        1 X    ASC  0     **** ASC X 3
     3 GLC5        6 GROUP        1 X    GLC  0     **** GLC X 6
     4 ALP1       20 GROUP        1 Y    ALP  0     ROOT ALP Y 8
     5 ASP3        3 GROUP        1 Y    ASP  0     **** ASP Y 10
     6 GLP5        8 GROUP        1 Y    GLP  0     **** GLP Y 13
     7 ALL1       19 GROUP        1 Z    ALL  0     ROOT ALL Z 15
     8 ASL3        2 GROUP        1 Z    ASL  0     **** ASL Z 17
     9 GLL5        7 GROUP        1 Z    GLL  0     **** GLL Z 20
@<TRIPOS>SET

