#    Name: 3c27_DKK_1_ligand
#    Modification time : Mon Mar 24 20:24:11 2014

@<TRIPOS>MOLECULE
3c27_DKK_1_ligand
   52    53     1     0     0
SMALL
NO_CHARGES


@<TRIPOS>ATOM
      1 C1         11.2340  -11.8410   24.0240 C.cat     1 DKK5000     0.0000 
      2 O5         13.0470  -11.0050   22.7690 O.3       1 DKK5000     0.0000 
      3 C7         13.8110  -11.4750   20.5450 C.3       1 DKK5000     0.0000 
      4 C9         16.1450  -12.4770   20.3920 C.2       1 DKK5000     0.0000 
      5 C11        17.6400  -12.3090   20.7360 C.3       1 DKK5000     0.0000 
      6 C12        18.1960  -13.5850   21.3850 C.ar      1 DKK5000     0.0000 
      7 C13        19.4380  -14.0920   20.9140 C.ar      1 DKK5000     0.0000 
      8 C14        19.9940  -15.2520   21.4730 C.ar      1 DKK5000     0.0000 
      9 C15        19.3090  -15.9160   22.5060 C.ar      1 DKK5000     0.0000 
     10 C16        18.0540  -15.4150   22.9840 C.ar      1 DKK5000     0.0000 
     11 C19        20.1550  -13.3380   19.7890 C.1       1 DKK5000     0.0000 
     12 C22        18.0710  -17.2740   24.6170 C.3       1 DKK5000     0.0000 
     13 C30        20.9420  -13.9180   26.1680 C.ar      1 DKK5000     0.0000 
     14 C31        19.8240  -14.7250   26.2890 C.ar      1 DKK5000     0.0000 
     15 N2         11.1650  -10.7000   24.5560 N.pl3     1 DKK5000     0.0000 
     16 N3         10.4210  -12.9530   24.5080 N.pl3     1 DKK5000     0.0000 
     17 N4         12.1990  -12.1080   22.9760 N.pl3     1 DKK5000     0.0000 
     18 C6         13.0770  -10.4740   21.4600 C.3       1 DKK5000     0.0000 
     19 N8         15.2510  -11.3940   20.7940 N.am      1 DKK5000     0.0000 
     20 O10        15.6960  -13.5550   20.1100 O.2       1 DKK5000     0.0000 
     21 C17        17.5100  -14.2400   22.4200 C.ar      1 DKK5000     0.0000 
     22 F18        16.3160  -13.7560   22.8610 F         1 DKK5000     0.0000 
     23 N20        20.6850  -12.7820   18.9580 N.1       1 DKK5000     0.0000 
     24 N21        17.3670  -16.1260   24.0650 N.pl3     1 DKK5000     0.0000 
     25 C23        18.6150  -16.9550   26.0290 C.3       1 DKK5000     0.0000 
     26 F24        17.7260  -16.2500   26.7790 F         1 DKK5000     0.0000 
     27 F25        18.8690  -18.1350   26.6550 F         1 DKK5000     0.0000 
     28 C26        19.8800  -16.0980   25.9060 C.ar      1 DKK5000     0.0000 
     29 N27        21.0370  -16.6250   25.3790 N.ar      1 DKK5000     0.0000 
     30 C28        22.1640  -15.8090   25.2500 C.ar      1 DKK5000     0.0000 
     31 C29        22.1230  -14.4430   25.6390 C.ar      1 DKK5000     0.0000 
     32 H          13.5755  -11.2229   19.5125 H         1 DKK5000     0.0000 
     33 H          13.4297  -12.4714   20.7615 H         1 DKK5000     0.0000 
     34 H          17.7535  -11.4769   21.4244 H         1 DKK5000     0.0000 
     35 H          18.1917  -12.0998   19.8244 H         1 DKK5000     0.0000 
     36 H          20.8857  -15.6114   21.1349 H         1 DKK5000     0.0000 
     37 H          19.6984  -16.7619   22.9264 H         1 DKK5000     0.0000 
     38 H          18.9221  -17.5581   23.9896 H         1 DKK5000     0.0000 
     39 H          17.4095  -18.1421   24.7043 H         1 DKK5000     0.0000 
     40 H          20.9088  -12.9354   26.4648 H         1 DKK5000     0.0000 
     41 H          18.9408  -14.3511   26.6543 H         1 DKK5000     0.0000 
     42 H          10.5083  -10.6021   25.3038 H         1 DKK5000     0.0000 
     43 H          11.7735  -10.0015   24.1795 H         1 DKK5000     0.0000 
     44 H          10.5336  -13.8224   24.0270 H         1 DKK5000     0.0000 
     45 H           9.8184  -12.7538   25.2808 H         1 DKK5000     0.0000 
     46 H          12.2357  -12.9350   22.5001 H         1 DKK5000     0.0000 
     47 H          13.6178   -9.5276   21.4051 H         1 DKK5000     0.0000 
     48 H          12.0782  -10.3277   21.0453 H         1 DKK5000     0.0000 
     49 H          15.6314  -10.5758   21.2511 H         1 DKK5000     0.0000 
     50 H          16.4927  -15.8441   24.3911 H         1 DKK5000     0.0000 
     51 H          23.0391  -16.1923   24.8698 H         1 DKK5000     0.0000 
     52 H          22.9513  -13.8626   25.5289 H         1 DKK5000     0.0000 
@<TRIPOS>BOND
     1   15    1 ar   
     2   16    1 ar   
     3   17    1 ar   
     4   17    2 1    
     5   18    2 1    
     6   18    3 1    
     7   19    3 1    
     8   32    3 1    
     9   33    3 1    
    10    5    4 1    
    11   19    4 am   
    12   20    4 2    
    13    6    5 1    
    14   34    5 1    
    15   35    5 1    
    16    7    6 ar   
    17   21    6 ar   
    18    8    7 ar   
    19   11    7 1    
    20    9    8 ar   
    21   36    8 1    
    22   10    9 ar   
    23   37    9 1    
    24   21   10 ar   
    25   24   10 1    
    26   23   11 3    
    27   24   12 1    
    28   25   12 1    
    29   38   12 1    
    30   39   12 1    
    31   14   13 ar   
    32   31   13 ar   
    33   40   13 1    
    34   28   14 ar   
    35   41   14 1    
    36   42   15 1    
    37   43   15 1    
    38   44   16 1    
    39   45   16 1    
    40   46   17 1    
    41   47   18 1    
    42   48   18 1    
    43   49   19 1    
    44   22   21 1    
    45   50   24 1    
    46   26   25 1    
    47   27   25 1    
    48   28   25 1    
    49   29   28 ar   
    50   30   29 ar   
    51   31   30 ar   
    52   51   30 1    
    53   52   31 1    
@<TRIPOS>SUBSTRUCTURE
     1 DKK5000     1 GROUP   
@<TRIPOS>SET

