#    Name: 3qaa_G04_1_INTS_M
#    Modification time : Tue Mar 25 09:14:40 2014

@<TRIPOS>MOLECULE
3qaa_G04_1_INTS_M
   96     0     9     0     0
SMALL
NO_CHARGES


@<TRIPOS>ATOM
      1 CA         21.4720   26.7390   12.8525 C.3       3 GLC5        0.0000 
      2 CA         20.9420   27.6150   14.7790 C.3       9 GLL5        0.0000 
      3 CA         22.0020   25.8630   10.9260 C.3       6 GLP5        0.0000 
      4 CA         17.0205   25.8230   13.6155 C.3       3 GLC5        0.0000 
      5 CA         18.8320   26.4280   14.7080 C.3       9 GLL5        0.0000 
      6 CA         15.2090   25.2180   12.5230 C.3       6 GLP5        0.0000 
      7 CA         22.8585   26.1440   13.8425 C.3       3 GLC5        0.0000 
      8 CA         21.5250   26.5360   15.4430 C.3       9 GLL5        0.0000 
      9 CA         24.1920   25.7520   12.2420 C.3       6 GLP5        0.0000 
     10 CA         19.7725   21.6625   18.1170 C.3       3 GLC5        0.0000 
     11 CA         18.1660   22.2870   19.4840 C.3       9 GLL5        0.0000 
     12 CA         21.3790   21.0380   16.7500 C.3       6 GLP5        0.0000 
     13 CA         17.6925   20.1810   19.9865 C.3       3 GLC5        0.0000 
     14 CA         17.2190   18.0750   20.4890 C.3       6 GLP5        0.0000 
     15 CA         18.9000   25.4960   22.0760 C.3       3 GLC5        0.0000 
     16 CA         19.5430   24.0310   20.6290 C.3       9 GLL5        0.0000 
     17 CA         18.2570   26.9610   23.5230 C.3       6 GLP5        0.0000 
     18 CA         20.0050   23.7755   22.4650 C.3       3 GLC5        0.0000 
     19 CA         20.4670   23.5200   24.3010 C.3       6 GLP5        0.0000 
     20 CA         16.5340   26.9210   16.8005 C.3       3 GLC5        0.0000 
     21 CA         16.3960   24.9270   17.3450 C.3       9 GLL5        0.0000 
     22 CA         16.6720   28.9150   16.2560 C.3       6 GLP5        0.0000 
     23 N          14.0395   25.6650   17.3705 N.am      2 SEC2        0.0000 
     24 N          14.1040   24.7930   18.2510 N.am      8 SEL2        0.0000 
     25 N          13.9750   26.5370   16.4900 N.am      5 SEP2        0.0000 
     26 O          13.6480   25.4420   19.4640 O.2       1 ALC1        0.0000 
     27 O          14.1040   24.7930   18.2510 O.2       7 ALL1        0.0000 
     28 O          13.1920   26.0910   20.6770 O.2       4 ALP1        0.0000 
     29 O          14.2700   24.5840   19.7360 O.2       1 ALC1        0.0000 
     30 O          14.4360   24.3750   21.2210 O.2       4 ALP1        0.0000 
     31 O          12.4330   22.5585   17.7040 O.2       1 ALC1        0.0000 
     32 O          13.9440   22.0230   17.5850 O.2       7 ALL1        0.0000 
     33 O          10.9220   23.0940   17.8230 O.2       4 ALP1        0.0000 
     34 CA         12.3305   20.3410   21.0040 C.3       3 GLC5        0.0000 
     35 CA         12.9230   18.4770   20.2630 C.3       9 GLL5        0.0000 
     36 CA         11.7380   22.2050   21.7450 C.3       6 GLP5        0.0000 
     37 CA         13.6955   17.8415   22.1025 C.3       3 GLC5        0.0000 
     38 CA         14.4680   17.2060   23.9420 C.3       6 GLP5        0.0000 
     39 CA         13.8795   16.6045   20.7575 C.3       3 GLC5        0.0000 
     40 CA         14.8360   14.7320   21.2520 C.3       6 GLP5        0.0000 
     41 N          10.2495   18.7680   21.3735 N.am      2 SEC2        0.0000 
     42 N          11.4920   18.4800   20.1910 N.am      8 SEL2        0.0000 
     43 N           9.0070   19.0560   22.5560 N.am      5 SEP2        0.0000 
     44 CA          9.1670   18.5065   19.4345 C.3       3 GLC5        0.0000 
     45 CA         11.0770   18.0470   18.9070 C.3       9 GLL5        0.0000 
     46 CA          7.2570   18.9660   19.9620 C.3       6 GLP5        0.0000 
     47 N           9.6100   19.8625   19.2880 N.am      2 SEC2        0.0000 
     48 N          10.2630   19.0370   18.2700 N.am      8 SEL2        0.0000 
     49 N           8.9570   20.6880   20.3060 N.am      5 SEP2        0.0000 
     50 CA         10.8400   20.8595   18.7900 C.3       3 GLC5        0.0000 
     51 CA         10.8580   19.4530   17.0530 C.3       9 GLL5        0.0000 
     52 CA         10.8220   22.2660   20.5270 C.3       6 GLP5        0.0000 
     53 CA         12.8635   15.7870   18.7310 C.3       3 GLC5        0.0000 
     54 CA         12.3360   17.8590   18.0810 C.3       9 GLL5        0.0000 
     55 CA         13.3910   13.7150   19.3810 C.3       6 GLP5        0.0000 
     56 CA         11.2070   23.4595   14.7190 C.3       3 GLC5        0.0000 
     57 CA         12.4400   21.9080   14.6260 C.3       9 GLL5        0.0000 
     58 CA          9.9740   25.0110   14.8120 C.3       6 GLP5        0.0000 
     59 N          20.8575   30.1480   14.8610 N.am      2 SEC2        0.0000 
     60 N          21.7050   28.7330   14.5450 N.am      8 SEL2        0.0000 
     61 N          20.0100   31.5630   15.1770 N.am      5 SEP2        0.0000 
     62 CA         22.1680   29.8865   13.9440 C.3       3 GLC5        0.0000 
     63 CA         23.0720   28.3730   14.7960 C.3       9 GLL5        0.0000 
     64 CA         21.2640   31.4000   13.0920 C.3       6 GLP5        0.0000 
     65 CA         23.7740   27.7940   13.4250 C.3       3 GLC5        0.0000 
     66 CA         24.4760   27.2150   12.0540 C.3       6 GLP5        0.0000 
     67 CA         12.9085   16.1215   14.8915 C.3       3 GLC5        0.0000 
     68 CA         11.3180   17.4630   14.6350 C.3       9 GLL5        0.0000 
     69 CA         14.4990   14.7800   15.1480 C.3       6 GLP5        0.0000 
     70 CA         20.7660   29.4943   13.8518 C.3       3 GLC5        0.0000 
     71 CA         19.5940   27.5620   14.4440 C.3       9 GLL5        0.0000 
     72 CA         17.9425   27.9550   15.4160 C.3       3 GLC5        0.0000 
     73 CA         19.1095   25.4020   13.4190 C.3       3 GLC5        0.0000 
     74 CA         19.0060   23.8090   12.2620 C.3       6 GLP5        0.0000 
     75 CA         19.3140   27.4311   12.7444 C.3       3 GLC5        0.0000 
     76 CA         19.0780   27.8540   10.8290 C.3       6 GLP5        0.0000 
     77 CA         19.5250   24.6125   13.9322 C.3       3 GLC5        0.0000 
     78 CA         19.3720   25.3810   15.4480 C.3       9 GLL5        0.0000 
     79 CA         18.0188   22.3940   21.5385 C.3       3 GLC5        0.0000 
     80 CA         18.3420   23.7830   19.7020 C.3       9 GLL5        0.0000 
     81 CA         17.1390   21.2550   22.9660 C.3       6 GLP5        0.0000 
     82 CA         15.1855   18.3342   20.0153 C.3       3 GLC5        0.0000 
     83 CA         13.3810   18.7100   18.8200 C.3       9 GLL5        0.0000 
     84 CA         11.5880   21.3257   12.5218 C.3       3 GLC5        0.0000 
     85 CA         10.9280   21.2900   10.8040 C.3       6 GLP5        0.0000 
     86 CA         14.3637   19.6580   11.6073 C.3       3 GLC5        0.0000 
     87 CA         12.9920   20.1100   13.0900 C.3       9 GLL5        0.0000 
     88 CA         15.0690   18.9950   10.0890 C.3       6 GLP5        0.0000 
     89 CA         12.2933   20.8055   11.9647 C.3       3 GLC5        0.0000 
     90 CA         14.3250   20.5320   13.1610 C.3       9 GLL5        0.0000 
     91 CA         16.5105   20.5482   13.0670 C.3       3 GLC5        0.0000 
     92 CA         18.5000   20.0270   12.5720 C.3       6 GLP5        0.0000 
     93 CA         14.7776   23.7324   13.5465 C.3       3 GLC5        0.0000 
     94 CA         14.7170   21.6070   13.9630 C.3       9 GLL5        0.0000 
     95 CA         15.3154   19.4790   14.2666 C.3       3 GLC5        0.0000 
     96 CA         16.4430   17.9940   14.9890 C.3       6 GLP5        0.0000 
@<TRIPOS>BOND
@<TRIPOS>SUBSTRUCTURE
     1 ALC1       26 GROUP        1 X    ALC  0     ROOT ALC X 1
     2 SEC2       23 GROUP        1 X    SEC  0     **** SEC X 2
     3 GLC5        1 GROUP        1 X    GLC  0     **** GLC X 6
     4 ALP1       28 GROUP        1 Y    ALP  0     ROOT ALP Y 8
     5 SEP2       25 GROUP        1 Y    SEP  0     **** SEP Y 9
     6 GLP5        3 GROUP        1 Y    GLP  0     **** GLP Y 13
     7 ALL1       27 GROUP        1 Z    ALL  0     ROOT ALL Z 15
     8 SEL2       24 GROUP        1 Z    SEL  0     **** SEL Z 16
     9 GLL5        2 GROUP        1 Z    GLL  0     **** GLL Z 20
@<TRIPOS>SET

