#    Name: 3qaa_G04_1_ligand
#    Modification time : Tue Mar 25 09:14:40 2014

@<TRIPOS>MOLECULE
3qaa_G04_1_ligand
   81    84     1     0     0
SMALL
NO_CHARGES


@<TRIPOS>ATOM
      1 C2         20.9420   27.6150   14.7790 C.ar      1 G04401      0.0000 
      2 C3         19.5940   27.5620   14.4440 C.ar      1 G04401      0.0000 
      3 C4         18.8320   26.4280   14.7080 C.ar      1 G04401      0.0000 
      4 C5         19.3720   25.3810   15.4480 C.ar      1 G04401      0.0000 
      5 C6         20.7160   25.4510   15.7570 C.ar      1 G04401      0.0000 
      6 C7         21.5250   26.5360   15.4430 C.ar      1 G04401      0.0000 
      7 S8         18.4050   23.9750   15.8770 S.o2      1 G04401      0.0000 
      8 O9         17.3540   23.8310   14.8320 O.2       1 G04401      0.0000 
      9 O10        19.3040   22.7810   15.9680 O.2       1 G04401      0.0000 
     10 N11        17.6620   24.1990   17.3230 N.pl3     1 G04401      0.0000 
     11 C12        18.5440   24.5780   18.4090 C.3       1 G04401      0.0000 
     12 C13        18.3420   23.7830   19.7020 C.3       1 G04401      0.0000 
     13 C14        18.1660   22.2870   19.4840 C.3       1 G04401      0.0000 
     14 C15        19.5430   24.0310   20.6290 C.3       1 G04401      0.0000 
     15 C16        16.3960   24.9270   17.3450 C.3       1 G04401      0.0000 
     16 C17        15.2640   24.0460   17.8720 C.3       1 G04401      0.0000 
     17 O18        14.1040   24.7930   18.2510 O.3       1 G04401      0.0000 
     18 C19        14.8740   22.9290   16.9030 C.3       1 G04401      0.0000 
     19 N20        13.9440   22.0230   17.5850 N.am      1 G04401      0.0000 
     20 C21        14.2040   20.7510   17.9190 C.2       1 G04401      0.0000 
     21 O22        15.3000   20.2220   17.6810 O.2       1 G04401      0.0000 
     22 O23        13.1760   20.0920   18.5260 O.3       1 G04401      0.0000 
     23 C24        13.3810   18.7100   18.8200 C.3       1 G04401      0.0000 
     24 C25        12.9230   18.4770   20.2630 C.3       1 G04401      0.0000 
     25 O26        11.4920   18.4800   20.1910 O.3       1 G04401      0.0000 
     26 C27        11.0770   18.0470   18.9070 C.3       1 G04401      0.0000 
     27 O28        10.2630   19.0370   18.2700 O.3       1 G04401      0.0000 
     28 C29        10.8580   19.4530   17.0530 C.3       1 G04401      0.0000 
     29 C30        11.9250   18.4170   16.7100 C.3       1 G04401      0.0000 
     30 C31        12.3360   17.8590   18.0810 C.3       1 G04401      0.0000 
     31 C32        14.1790   23.4690   15.6380 C.3       1 G04401      0.0000 
     32 C33        12.4400   21.9080   14.6260 C.ar      1 G04401      0.0000 
     33 C34        12.0560   20.8150   13.8530 C.ar      1 G04401      0.0000 
     34 C35        12.9920   20.1100   13.0900 C.ar      1 G04401      0.0000 
     35 C36        14.3250   20.5320   13.1610 C.ar      1 G04401      0.0000 
     36 C37        14.7170   21.6070   13.9630 C.ar      1 G04401      0.0000 
     37 C38        13.7720   22.3040   14.7160 C.ar      1 G04401      0.0000 
     38 O39        21.7050   28.7330   14.5450 O.3       1 G04401      0.0000 
     39 C40        23.0720   28.3730   14.7960 C.3       1 G04401      0.0000 
     40 O41        11.2990   17.2940   16.0480 O.3       1 G04401      0.0000 
     41 C42        11.3180   17.4630   14.6350 C.3       1 G04401      0.0000 
     42 H          19.1487   28.3799   13.9903 H         1 G04401      0.0000 
     43 H          17.8677   26.3639   14.3553 H         1 G04401      0.0000 
     44 H          21.1578   24.6343   16.2612 H         1 G04401      0.0000 
     45 H          22.5083   26.5454   15.6878 H         1 G04401      0.0000 
     46 H          18.4218   25.6570   18.6572 H         1 G04401      0.0000 
     47 H          19.6105   24.4628   18.1086 H         1 G04401      0.0000 
     48 H          17.4605   24.1717   20.2103 H         1 G04401      0.0000 
     49 H          16.1235   25.2673   16.3376 H         1 G04401      0.0000 
     50 H          16.4665   25.8138   17.9880 H         1 G04401      0.0000 
     51 H          15.6653   23.5277   18.7839 H         1 G04401      0.0000 
     52 H          15.7562   22.3951   16.6085 H         1 G04401      0.0000 
     53 H          12.9994   22.4566   17.8120 H         1 G04401      0.0000 
     54 H          14.3082   18.3361   18.6832 H         1 G04401      0.0000 
     55 H          13.3013   19.2798   20.8685 H         1 G04401      0.0000 
     56 H          13.3117   17.5300   20.5892 H         1 G04401      0.0000 
     57 H          10.5783   17.1011   18.9545 H         1 G04401      0.0000 
     58 H          11.3465   20.4183   17.1412 H         1 G04401      0.0000 
     59 H          10.1460   19.4821   16.2343 H         1 G04401      0.0000 
     60 H          12.7156   18.8192   16.2381 H         1 G04401      0.0000 
     61 H          12.5845   16.8723   18.0434 H         1 G04401      0.0000 
     62 H          14.8615   24.1220   15.1077 H         1 G04401      0.0000 
     63 H          13.2932   24.0219   15.9265 H         1 G04401      0.0000 
     64 H          11.7164   22.4398   15.1472 H         1 G04401      0.0000 
     65 H          11.0662   20.5190   13.8415 H         1 G04401      0.0000 
     66 H          12.7196   19.3317   12.5136 H         1 G04401      0.0000 
     67 H          15.0423   20.0309   12.6010 H         1 G04401      0.0000 
     68 H          15.7066   21.8847   13.9976 H         1 G04401      0.0000 
     69 H          18.9610   21.8813   19.0331 H         1 G04401      0.0000 
     70 H          18.0376   21.7985   20.3471 H         1 G04401      0.0000 
     71 H          17.3705   22.0860   18.9123 H         1 G04401      0.0000 
     72 H          20.4033   23.7452   20.2068 H         1 G04401      0.0000 
     73 H          19.6383   24.9987   20.8625 H         1 G04401      0.0000 
     74 H          19.4578   23.5288   21.4896 H         1 G04401      0.0000 
     75 H          23.6923   29.1430   14.6464 H         1 G04401      0.0000 
     76 H          23.2082   28.0656   15.7378 H         1 G04401      0.0000 
     77 H          23.3764   27.6311   14.1986 H         1 G04401      0.0000 
     78 H          12.2506   17.5432   14.2831 H         1 G04401      0.0000 
     79 H          10.8919   16.6913   14.1629 H         1 G04401      0.0000 
     80 H          10.8264   18.2868   14.3528 H         1 G04401      0.0000 
     81 H          14.0516   24.7026   19.2455 H         1 G04401      0.0000 
@<TRIPOS>BOND
     1    2    1 ar   
     2    6    1 ar   
     3   38    1 1    
     4    3    2 ar   
     5   42    2 1    
     6    4    3 ar   
     7   43    3 1    
     8    5    4 ar   
     9    7    4 1    
    10    6    5 ar   
    11   44    5 1    
    12   45    6 1    
    13    8    7 2    
    14    9    7 2    
    15   10    7 1    
    16   11   10 1    
    17   15   10 1    
    18   12   11 1    
    19   46   11 1    
    20   47   11 1    
    21   13   12 1    
    22   14   12 1    
    23   48   12 1    
    24   69   13 1    
    25   70   13 1    
    26   71   13 1    
    27   72   14 1    
    28   73   14 1    
    29   74   14 1    
    30   16   15 1    
    31   49   15 1    
    32   50   15 1    
    33   17   16 1    
    34   18   16 1    
    35   51   16 1    
    36   81   17 1    
    37   19   18 1    
    38   31   18 1    
    39   52   18 1    
    40   20   19 am   
    41   53   19 1    
    42   21   20 2    
    43   22   20 1    
    44   23   22 1    
    45   24   23 1    
    46   30   23 1    
    47   54   23 1    
    48   25   24 1    
    49   55   24 1    
    50   56   24 1    
    51   26   25 1    
    52   27   26 1    
    53   30   26 1    
    54   57   26 1    
    55   28   27 1    
    56   29   28 1    
    57   58   28 1    
    58   59   28 1    
    59   30   29 1    
    60   40   29 1    
    61   60   29 1    
    62   61   30 1    
    63   37   31 1    
    64   62   31 1    
    65   63   31 1    
    66   33   32 ar   
    67   37   32 ar   
    68   64   32 1    
    69   34   33 ar   
    70   65   33 1    
    71   35   34 ar   
    72   66   34 1    
    73   36   35 ar   
    74   67   35 1    
    75   37   36 ar   
    76   68   36 1    
    77   39   38 1    
    78   75   39 1    
    79   76   39 1    
    80   77   39 1    
    81   41   40 1    
    82   78   41 1    
    83   79   41 1    
    84   80   41 1    
@<TRIPOS>SUBSTRUCTURE
     1 G04401      1 GROUP   
@<TRIPOS>SET

