#    Name: 3rni_21Z_1_INTS_M
#    Modification time : Tue Mar 25 11:42:55 2014

@<TRIPOS>MOLECULE
3rni_21Z_1_INTS_M
   47     0     9     0     0
SMALL
NO_CHARGES


@<TRIPOS>ATOM
      1 N         -37.4310  119.0605   87.0710 N.am      2 SEC2        0.0000 
      2 N         -38.4130  118.2670   86.0070 N.am      8 SEL2        0.0000 
      3 N         -36.4490  119.8540   88.1350 N.am      5 SEP2        0.0000 
      4 O         -36.1890  119.3045   84.9850 O.2       1 ALC1        0.0000 
      5 O         -37.1470  118.7870   84.1970 O.2       7 ALL1        0.0000 
      6 O         -35.2310  119.8220   85.7730 O.2       4 ALP1        0.0000 
      7 O         -39.9130  118.2445   88.6735 O.2       1 ALC1        0.0000 
      8 O         -39.9700  117.4340   87.5180 O.2       7 ALL1        0.0000 
      9 O         -39.8560  119.0550   89.8290 O.2       4 ALP1        0.0000 
     10 CA        -37.2465  120.3995   80.3745 C.3       3 GLC5        0.0000 
     11 CA        -35.3880  119.7170   81.1620 C.3       9 GLL5        0.0000 
     12 CA        -39.1050  121.0820   79.5870 C.3       6 GLP5        0.0000 
     13 CA        -36.5735  115.8595   83.5395 C.3       3 GLC5        0.0000 
     14 CA        -36.7100  117.4430   82.2210 C.3       9 GLL5        0.0000 
     15 CA        -36.4370  114.2760   84.8580 C.3       6 GLP5        0.0000 
     16 CA        -39.1985  114.5815   85.3175 C.3       3 GLC5        0.0000 
     17 CA        -40.6500  114.1880   83.7570 C.3       9 GLL5        0.0000 
     18 CA        -37.7470  114.9750   86.8780 C.3       6 GLP5        0.0000 
     19 CA        -40.4045  111.4275   83.2100 C.3       3 GLC5        0.0000 
     20 CA        -41.0310  113.3230   82.6930 C.3       9 GLL5        0.0000 
     21 CA        -39.7780  109.5320   83.7270 C.3       6 GLP5        0.0000 
     22 CA        -39.5740  118.9935   82.9115 C.3       3 GLC5        0.0000 
     23 CA        -39.2490  117.1460   83.8280 C.3       9 GLL5        0.0000 
     24 CA        -39.8990  120.8410   81.9950 C.3       6 GLP5        0.0000 
     25 CA        -38.4980  116.0605   85.3530 C.3       3 GLC5        0.0000 
     26 CA        -40.7882  118.6887   86.0155 C.3       3 GLC5        0.0000 
     27 CA        -40.1260  116.8060   85.2660 C.3       9 GLL5        0.0000 
     28 CA        -41.7480  120.2240   86.2340 C.3       6 GLP5        0.0000 
     29 CA        -38.7877  116.0643   86.3375 C.3       3 GLC5        0.0000 
     30 CA        -39.5310  117.5010   86.3280 C.3       9 GLL5        0.0000 
     31 CA        -38.1013  120.0297   82.3598 C.3       3 GLC5        0.0000 
     32 CA        -36.6380  118.6570   83.0000 C.3       9 GLL5        0.0000 
     33 CA        -40.6163  113.4880   85.6428 C.3       3 GLC5        0.0000 
     34 CA        -41.5970  115.1100   84.3160 C.3       9 GLL5        0.0000 
     35 CA        -40.1090  112.3270   87.2490 C.3       6 GLP5        0.0000 
     36 CA        -42.2022  112.7975   84.1868 C.3       3 GLC5        0.0000 
     37 CA        -43.2810  110.9460   84.3370 C.3       6 GLP5        0.0000 
     38 CA        -35.3618  115.5320   81.7518 C.3       3 GLC5        0.0000 
     39 CA        -34.3050  113.6520   81.9330 C.3       6 GLP5        0.0000 
     40 CA        -42.4860  112.1453   83.3868 C.3       3 GLC5        0.0000 
     41 CA        -43.8777  113.7007   80.5333 C.3       3 GLC5        0.0000 
     42 CA        -42.3510  113.3660   82.1800 C.3       9 GLL5        0.0000 
     43 CA        -44.9300  113.5830   78.6130 C.3       6 GLP5        0.0000 
     44 CA        -43.1967  112.8260   83.7980 C.3       3 GLC5        0.0000 
     45 CA        -43.3000  114.2710   82.7270 C.3       9 GLL5        0.0000 
     46 CA        -43.5616  115.7159   81.9386 C.3       3 GLC5        0.0000 
     47 CA        -44.2480  116.9520   80.7550 C.3       6 GLP5        0.0000 
@<TRIPOS>BOND
@<TRIPOS>SUBSTRUCTURE
     1 ALC1        4 GROUP        1 X    ALC  0     ROOT ALC X 1
     2 SEC2        1 GROUP        1 X    SEC  0     **** SEC X 2
     3 GLC5       10 GROUP        1 X    GLC  0     **** GLC X 6
     4 ALP1        6 GROUP        1 Y    ALP  0     ROOT ALP Y 8
     5 SEP2        3 GROUP        1 Y    SEP  0     **** SEP Y 9
     6 GLP5       12 GROUP        1 Y    GLP  0     **** GLP Y 13
     7 ALL1        5 GROUP        1 Z    ALL  0     ROOT ALL Z 15
     8 SEL2        2 GROUP        1 Z    SEL  0     **** SEL Z 16
     9 GLL5       11 GROUP        1 Z    GLL  0     **** GLL Z 20
@<TRIPOS>SET

