#    Name: 3rni_21Z_1_ligand
#    Modification time : Tue Mar 25 11:42:55 2014

@<TRIPOS>MOLECULE
3rni_21Z_1_ligand
   39    41     1     0     0
SMALL
NO_CHARGES


@<TRIPOS>ATOM
      1 N01       -38.4130  118.2670   86.0070 N.2       1 21Z424      0.0000 
      2 N02       -37.1470  118.7870   84.1970 N.pl3     1 21Z424      0.0000 
      3 N03       -39.9700  117.4340   87.5180 N.pl3     1 21Z424      0.0000 
      4 N04       -34.6300  122.4010   81.6300 N.pl3     1 21Z424      0.0000 
      5 C05       -40.1260  116.8060   85.2660 C.2       1 21Z424      0.0000 
      6 C06       -39.5310  117.5010   86.3280 C.2       1 21Z424      0.0000 
      7 C07       -38.1560  118.1610   84.7150 C.2       1 21Z424      0.0000 
      8 C08       -41.2450  115.9660   85.3540 C.2       1 21Z424      0.0000 
      9 C09       -36.6380  118.6570   83.0000 C.ar      1 21Z424      0.0000 
     10 C10       -41.5970  115.1100   84.3160 C.ar      1 21Z424      0.0000 
     11 C11       -35.9690  119.7800   82.4490 C.ar      1 21Z424      0.0000 
     12 C12       -35.3880  119.7170   81.1620 C.ar      1 21Z424      0.0000 
     13 C13       -35.4650  118.5260   80.3910 C.ar      1 21Z424      0.0000 
     14 C14       -36.1270  117.3810   80.9200 C.ar      1 21Z424      0.0000 
     15 C15       -36.7100  117.4430   82.2210 C.ar      1 21Z424      0.0000 
     16 C16       -40.6500  114.1880   83.7570 C.ar      1 21Z424      0.0000 
     17 C17       -41.0310  113.3230   82.6930 C.ar      1 21Z424      0.0000 
     18 C18       -42.3510  113.3660   82.1800 C.ar      1 21Z424      0.0000 
     19 C19       -43.3000  114.2710   82.7270 C.ar      1 21Z424      0.0000 
     20 C20       -42.9250  115.1410   83.7910 C.ar      1 21Z424      0.0000 
     21 O21       -41.9250  115.9710   86.3700 O.2       1 21Z424      0.0000 
     22 O22       -33.1580  120.7970   80.2760 O.2       1 21Z424      0.0000 
     23 O23       -35.1860  121.5330   79.2490 O.2       1 21Z424      0.0000 
     24 S24       -39.2490  117.1460   83.8280 S.3       1 21Z424      0.0000 
     25 S25       -34.5530  121.1460   80.5080 S.o2      1 21Z424      0.0000 
     26 H         -36.6448  119.5342   84.8536 H         1 21Z424      0.0000 
     27 H         -39.4664  117.9604   88.2031 H         1 21Z424      0.0000 
     28 H         -40.7777  116.8612   87.6574 H         1 21Z424      0.0000 
     29 H         -35.1061  122.1977   82.4856 H         1 21Z424      0.0000 
     30 H         -34.1942  123.2597   81.3603 H         1 21Z424      0.0000 
     31 H         -35.9073  120.6473   82.9929 H         1 21Z424      0.0000 
     32 H         -35.0493  118.4895   79.4642 H         1 21Z424      0.0000 
     33 H         -36.1842  116.5273   80.3768 H         1 21Z424      0.0000 
     34 H         -37.1816  116.6299   82.6094 H         1 21Z424      0.0000 
     35 H         -39.7023  114.1565   84.1269 H         1 21Z424      0.0000 
     36 H         -40.3511  112.6725   82.3013 H         1 21Z424      0.0000 
     37 H         -42.6224  112.7467   81.4164 H         1 21Z424      0.0000 
     38 H         -44.2488  114.2990   82.3596 H         1 21Z424      0.0000 
     39 H         -43.6072  115.7900   84.1810 H         1 21Z424      0.0000 
@<TRIPOS>BOND
     1    6    1 1    
     2    7    1 2    
     3    7    2 1    
     4    9    2 1    
     5   26    2 1    
     6    6    3 1    
     7   27    3 1    
     8   28    3 1    
     9   25    4 1    
    10   29    4 1    
    11   30    4 1    
    12    6    5 2    
    13    8    5 1    
    14   24    5 1    
    15   24    7 1    
    16   10    8 1    
    17   21    8 2    
    18   11    9 ar   
    19   15    9 ar   
    20   16   10 ar   
    21   20   10 ar   
    22   12   11 ar   
    23   31   11 1    
    24   13   12 ar   
    25   25   12 1    
    26   14   13 ar   
    27   32   13 1    
    28   15   14 ar   
    29   33   14 1    
    30   34   15 1    
    31   17   16 ar   
    32   35   16 1    
    33   18   17 ar   
    34   36   17 1    
    35   19   18 ar   
    36   37   18 1    
    37   20   19 ar   
    38   38   19 1    
    39   39   20 1    
    40   25   22 2    
    41   25   23 2    
@<TRIPOS>SUBSTRUCTURE
     1 21Z424      1 GROUP   
@<TRIPOS>SET

