#    Name: 1n2i_PAJ_2_INTS_M
#    Modification time : Mon Apr  7 14:56:49 2014

@<TRIPOS>MOLECULE
1n2i_PAJ_2_INTS_M
   88     0     9     0     0
SMALL
NO_CHARGES


@<TRIPOS>ATOM
      1 N          16.7250   11.2770   72.3340 N.am      2 SEC2        0.0000 
      2 N          17.1600   11.5810   73.6430 N.am      8 SEL2        0.0000 
      3 N          16.2900   10.9730   71.0250 N.am      5 SEP2        0.0000 
      4 CA         16.0970   13.7185   72.6435 C.3       3 GLC5        0.0000 
      5 CA         16.9500   14.2590   74.2650 C.3       9 GLL5        0.0000 
      6 CA         15.2440   13.1780   71.0220 C.3       6 GLP5        0.0000 
      7 N          17.6450   18.8645   76.1885 N.am      2 SEC2        0.0000 
      8 N          17.8200   17.8390   75.1980 N.am      8 SEL2        0.0000 
      9 N          17.4700   19.8900   77.1790 N.am      5 SEP2        0.0000 
     10 O          17.1855   18.0185   74.0400 O.2       1 ALC1        0.0000 
     11 O          17.8200   17.8390   75.1980 O.2       7 ALL1        0.0000 
     12 O          16.5510   18.1980   72.8820 O.2       4 ALP1        0.0000 
     13 N          18.3350   18.4135   77.3335 N.am      2 SEC2        0.0000 
     14 N          19.2000   16.9370   77.4880 N.am      8 SEL2        0.0000 
     15 O          20.2090   16.1585   77.5735 O.2       1 ALC1        0.0000 
     16 O          19.2000   16.9370   77.4880 O.2       7 ALL1        0.0000 
     17 O          21.2180   15.3800   77.6590 O.2       4 ALP1        0.0000 
     18 CA         15.7760   14.1905   76.9265 C.3       3 GLC5        0.0000 
     19 CA         16.8720   16.0270   77.3680 C.3       9 GLL5        0.0000 
     20 CA         14.6800   12.3540   76.4850 C.3       6 GLP5        0.0000 
     21 CA         15.5535   17.2605   76.5265 C.3       3 GLC5        0.0000 
     22 CA         14.2350   18.4940   75.6850 C.3       6 GLP5        0.0000 
     23 CA         14.8045   15.3005   83.5575 C.3       3 GLC5        0.0000 
     24 CA         16.3980   15.0460   82.1600 C.3       9 GLL5        0.0000 
     25 CA         13.2110   15.5550   84.9550 C.3       6 GLP5        0.0000 
     26 O          16.1985   14.3820   84.6440 O.2       1 ALC1        0.0000 
     27 O          16.5400   14.1710   83.1530 O.2       7 ALL1        0.0000 
     28 O          15.8570   14.5930   86.1350 O.2       4 ALP1        0.0000 
     29 O          17.2105   12.8530   83.1690 O.2       1 ALC1        0.0000 
     30 O          17.8810   11.5350   83.1850 O.2       4 ALP1        0.0000 
     31 N          15.5535   16.6730   83.7855 N.am      2 SEC2        0.0000 
     32 N          15.9310   16.3100   82.4520 N.am      8 SEL2        0.0000 
     33 N          15.1760   17.0360   85.1190 N.am      5 SEP2        0.0000 
     34 CA         14.4105   15.5635   81.4845 C.3       3 GLC5        0.0000 
     35 CA         15.7760   17.2480   81.4500 C.3       9 GLL5        0.0000 
     36 CA         13.0450   13.8790   81.5190 C.3       6 GLP5        0.0000 
     37 CA         14.6990   17.9030   79.7930 C.3       3 GLC5        0.0000 
     38 CA         13.6220   18.5580   78.1360 C.3       6 GLP5        0.0000 
     39 CA         16.6370   18.5070   80.0340 C.3       3 GLC5        0.0000 
     40 CA         17.4980   19.7660   78.6180 C.3       6 GLP5        0.0000 
     41 CA         17.8205   16.8650   81.4250 C.3       3 GLC5        0.0000 
     42 CA         19.8650   16.4820   81.4000 C.3       6 GLP5        0.0000 
     43 CA         16.3050   17.9995   83.0930 C.3       3 GLC5        0.0000 
     44 CA         16.8340   18.7510   84.7360 C.3       6 GLP5        0.0000 
     45 CA         14.0925   16.9050   82.7870 C.3       3 GLC5        0.0000 
     46 CA         12.4090   16.5620   84.1240 C.3       6 GLP5        0.0000 
     47 CA         15.0730   17.1620   78.9965 C.3       3 GLC5        0.0000 
     48 CA         16.5240   15.7660   79.8570 C.3       9 GLL5        0.0000 
     49 CA         17.0110   17.7660   79.2375 C.3       3 GLC5        0.0000 
     50 N          21.0085   16.0675   73.8725 N.am      2 SEC2        0.0000 
     51 N          20.4830   14.6920   73.6050 N.am      8 SEL2        0.0000 
     52 N          21.5340   17.4430   74.1400 N.am      5 SEP2        0.0000 
     53 CA         19.9300   12.2585   70.6635 C.3       3 GLC5        0.0000 
     54 CA         20.7860   14.0230   71.2380 C.3       9 GLL5        0.0000 
     55 CA         19.0740   10.4940   70.0890 C.3       6 GLP5        0.0000 
     56 N          22.8695   13.3235   70.9940 N.am      2 SEC2        0.0000 
     57 N          22.1090   14.5000   71.4390 N.am      8 SEL2        0.0000 
     58 N          23.6300   12.1470   70.5490 N.am      5 SEP2        0.0000 
     59 O          22.5885   15.5695   72.0715 O.2       1 ALC1        0.0000 
     60 O          22.1090   14.5000   71.4390 O.2       7 ALL1        0.0000 
     61 O          23.0680   16.6390   72.7040 O.2       4 ALP1        0.0000 
     62 CA         17.3435   15.8905   69.5360 C.3       3 GLC5        0.0000 
     63 CA         18.5040   14.4430   70.0530 C.3       9 GLL5        0.0000 
     64 CA         16.1830   17.3380   69.0190 C.3       6 GLP5        0.0000 
     65 CA         16.8740   13.8105   70.5375 C.3       3 GLC5        0.0000 
     66 CA         18.7890   12.4685   70.0710 C.3       3 GLC5        0.0000 
     67 CA         18.0650   16.8915   69.8790 C.3       3 GLC5        0.0000 
     68 CA         19.9470   16.4450   70.7390 C.3       9 GLL5        0.0000 
     69 CA         20.4285   17.7015   69.2040 C.3       3 GLC5        0.0000 
     70 CA         20.9100   18.9580   67.6690 C.3       6 GLP5        0.0000 
     71 CA         19.5690   18.1890   71.0000 C.3       3 GLC5        0.0000 
     72 CA         19.1910   19.9330   71.2610 C.3       6 GLP5        0.0000 
     73 CA         22.4985   16.2120   69.3365 C.3       3 GLC5        0.0000 
     74 CA         20.7530   14.9020   68.9330 C.3       9 GLL5        0.0000 
     75 CA         24.2440   17.5220   69.7400 C.3       6 GLP5        0.0000 
     76 CA         21.2405   15.1130   67.2020 C.3       3 GLC5        0.0000 
     77 CA         21.7280   15.3240   65.4710 C.3       6 GLP5        0.0000 
     78 CA         20.8315   16.9300   68.3010 C.3       3 GLC5        0.0000 
     79 O          22.1030   13.1765   68.3765 O.2       1 ALC1        0.0000 
     80 O          20.8040   13.5360   68.3490 O.2       7 ALL1        0.0000 
     81 O          23.4020   12.8170   68.4040 O.2       4 ALP1        0.0000 
     82 CA         15.7628   13.6460   75.5645 C.3       3 GLC5        0.0000 
     83 CA         15.8145   17.2510   75.4435 C.3       3 GLC5        0.0000 
     84 CA         16.7410   15.6170   75.0230 C.3       9 GLL5        0.0000 
     85 CA         17.5380   17.9040   77.8542 C.3       3 GLC5        0.0000 
     86 CA         14.7921   14.6020   81.0931 C.3       3 GLC5        0.0000 
     87 CA         16.7110   14.7220   80.7950 C.3       9 GLL5        0.0000 
     88 CA         18.2021   15.9035   81.0336 C.3       3 GLC5        0.0000 
@<TRIPOS>BOND
@<TRIPOS>SUBSTRUCTURE
     1 ALC1       10 GROUP        1 X    ALC  0     ROOT ALC X 1
     2 SEC2        1 GROUP        1 X    SEC  0     **** SEC X 2
     3 GLC5        4 GROUP        1 X    GLC  0     **** GLC X 6
     4 ALP1       12 GROUP        1 Y    ALP  0     ROOT ALP Y 8
     5 SEP2        3 GROUP        1 Y    SEP  0     **** SEP Y 9
     6 GLP5        6 GROUP        1 Y    GLP  0     **** GLP Y 13
     7 ALL1       11 GROUP        1 Z    ALL  0     ROOT ALL Z 15
     8 SEL2        2 GROUP        1 Z    SEL  0     **** SEL Z 16
     9 GLL5        5 GROUP        1 Z    GLL  0     **** GLL Z 20
@<TRIPOS>SET

