#    Name: 1n2i_PAJ_2_ligand
#    Modification time : Mon Apr  7 14:56:49 2014

@<TRIPOS>MOLECULE
1n2i_PAJ_2_ligand
   55    57     1     0     0
SMALL
NO_CHARGES


@<TRIPOS>ATOM
      1 P          18.3100   12.3730   74.1450 P.3       1 PAJ1002     0.0000 
      2 O1P        19.3170   11.6680   74.9430 O.co2     1 PAJ1002     0.0000 
      3 O2P        17.1600   11.5810   73.6430 O.co2     1 PAJ1002     0.0000 
      4 O5'        17.7710   13.6070   75.0140 O.3       1 PAJ1002     0.0000 
      5 C5'        16.9500   14.2590   74.2650 C.3       1 PAJ1002     0.0000 
      6 C4'        16.7410   15.6170   75.0230 C.3       1 PAJ1002     0.0000 
      7 O4'        16.1400   15.3280   76.3320 O.3       1 PAJ1002     0.0000 
      8 C3'        18.0470   16.3990   75.3810 C.3       1 PAJ1002     0.0000 
      9 O3'        17.8200   17.8390   75.1980 O.3       1 PAJ1002     0.0000 
     10 C2'        18.2840   16.0570   76.8130 C.3       1 PAJ1002     0.0000 
     11 O2'        19.2000   16.9370   77.4880 O.3       1 PAJ1002     0.0000 
     12 C1'        16.8720   16.0270   77.3680 C.3       1 PAJ1002     0.0000 
     13 N9         16.8830   15.2810   78.6700 N.pl3     1 PAJ1002     0.0000 
     14 C8         17.2610   13.9660   78.9410 C.2       1 PAJ1002     0.0000 
     15 N7         17.1840   13.5640   80.1770 N.2       1 PAJ1002     0.0000 
     16 C5         16.7110   14.7220   80.7950 C.ar      1 PAJ1002     0.0000 
     17 C6         16.3980   15.0460   82.1600 C.ar      1 PAJ1002     0.0000 
     18 N6         16.5400   14.1710   83.1530 N.pl3     1 PAJ1002     0.0000 
     19 N1         15.9310   16.3100   82.4520 N.ar      1 PAJ1002     0.0000 
     20 C2         15.7760   17.2480   81.4500 C.ar      1 PAJ1002     0.0000 
     21 N3         16.0600   17.0440   80.1310 N.ar      1 PAJ1002     0.0000 
     22 C4         16.5240   15.7660   79.8570 C.ar      1 PAJ1002     0.0000 
     23 O11        20.4830   14.6920   73.6050 O.2       1 PAJ1002     0.0000 
     24 C11        20.1200   13.9160   72.5980 C.2       1 PAJ1002     0.0000 
     25 O12        19.0140   12.9310   72.8920 O.3       1 PAJ1002     0.0000 
     26 C12        20.7860   14.0230   71.2380 C.3       1 PAJ1002     0.0000 
     27 O13        22.1090   14.5000   71.4390 O.3       1 PAJ1002     0.0000 
     28 C13        19.9750   14.9530   70.2470 C.3       1 PAJ1002     0.0000 
     29 C14        18.5040   14.4430   70.0530 C.3       1 PAJ1002     0.0000 
     30 C15        19.9470   16.4450   70.7390 C.3       1 PAJ1002     0.0000 
     31 C16        20.7530   14.9020   68.9330 C.3       1 PAJ1002     0.0000 
     32 O14        20.8040   13.5360   68.3490 O.3       1 PAJ1002     0.0000 
     33 H          15.9485   13.8389   74.1602 H         1 PAJ1002     0.0000 
     34 H          17.3137   14.5424   73.2762 H         1 PAJ1002     0.0000 
     35 H          16.1020   16.2512   74.4653 H         1 PAJ1002     0.0000 
     36 H          18.8197   16.0227   74.7779 H         1 PAJ1002     0.0000 
     37 H          18.6358   15.0128   76.8273 H         1 PAJ1002     0.0000 
     38 H          16.5383   17.0147   77.4855 H         1 PAJ1002     0.0000 
     39 H          17.5806   13.3747   78.1667 H         1 PAJ1002     0.0000 
     40 H          16.9002   13.2731   82.9000 H         1 PAJ1002     0.0000 
     41 H          16.2738   14.4905   84.0625 H         1 PAJ1002     0.0000 
     42 H          15.4030   18.2094   81.7377 H         1 PAJ1002     0.0000 
     43 H          20.7999   13.0265   70.7949 H         1 PAJ1002     0.0000 
     44 H          21.7739   15.2712   69.1190 H         1 PAJ1002     0.0000 
     45 H          20.2810   15.5988   68.2224 H         1 PAJ1002     0.0000 
     46 H          18.4786   13.5157   69.6796 H         1 PAJ1002     0.0000 
     47 H          18.0002   14.4251   70.9166 H         1 PAJ1002     0.0000 
     48 H          17.9886   15.0260   69.4250 H         1 PAJ1002     0.0000 
     49 H          20.8676   16.8276   70.8171 H         1 PAJ1002     0.0000 
     50 H          19.4372   17.0335   70.1115 H         1 PAJ1002     0.0000 
     51 H          19.5163   16.5318   71.6373 H         1 PAJ1002     0.0000 
     52 H          16.9864   17.9018   74.6493 H         1 PAJ1002     0.0000 
     53 H          20.1085   16.6389   77.1951 H         1 PAJ1002     0.0000 
     54 H          22.0832   14.9700   72.3213 H         1 PAJ1002     0.0000 
     55 H          21.7702   13.2796   68.3747 H         1 PAJ1002     0.0000 
@<TRIPOS>BOND
     1    2    1 ar   
     2    3    1 ar   
     3    4    1 1    
     4   25    1 1    
     5    5    4 1    
     6    6    5 1    
     7   33    5 1    
     8   34    5 1    
     9    7    6 1    
    10    8    6 1    
    11   35    6 1    
    12   12    7 1    
    13    9    8 1    
    14   10    8 1    
    15   36    8 1    
    16   52    9 1    
    17   11   10 1    
    18   12   10 1    
    19   37   10 1    
    20   53   11 1    
    21   13   12 1    
    22   38   12 1    
    23   14   13 1    
    24   22   13 1    
    25   15   14 2    
    26   39   14 1    
    27   16   15 1    
    28   17   16 ar   
    29   22   16 ar   
    30   18   17 1    
    31   19   17 ar   
    32   40   18 1    
    33   41   18 1    
    34   20   19 ar   
    35   21   20 ar   
    36   42   20 1    
    37   22   21 ar   
    38   24   23 2    
    39   25   24 1    
    40   26   24 1    
    41   27   26 1    
    42   28   26 1    
    43   43   26 1    
    44   54   27 1    
    45   29   28 1    
    46   30   28 1    
    47   31   28 1    
    48   46   29 1    
    49   47   29 1    
    50   48   29 1    
    51   49   30 1    
    52   50   30 1    
    53   51   30 1    
    54   32   31 1    
    55   44   31 1    
    56   45   31 1    
    57   55   32 1    
@<TRIPOS>SUBSTRUCTURE
     1 PAJ1002     1 GROUP   
@<TRIPOS>SET

