#    Name: 4gyz_D5M_4_INTS_M
#    Modification time : Mon Mar 24 23:58:56 2014

@<TRIPOS>MOLECULE
4gyz_D5M_4_INTS_M
   42     0    12     0     0
SMALL
NO_CHARGES


@<TRIPOS>ATOM
      1 CA         85.9380  117.6505   74.5670 C.3       4 GLC5        0.0000 
      2 CA         84.2220  118.8380   74.5320 C.3      12 GLL5        0.0000 
      3 CA         87.6540  116.4630   74.6020 C.3       8 GLP5        0.0000 
      4 CA         80.6935  121.5610   76.6670 C.3       4 GLC5        0.0000 
      5 CA         81.6930  121.1010   74.7630 C.3      12 GLL5        0.0000 
      6 CA         79.6940  122.0210   78.5710 C.3       8 GLP5        0.0000 
      7 CA         75.9690  118.0950   71.5370 C.3       4 GLC5        0.0000 
      8 CA         76.9750  119.1190   73.1790 C.3      12 GLL5        0.0000 
      9 CA         74.9630  117.0710   69.8950 C.3       8 GLP5        0.0000 
     10 O          76.1225  117.5750   71.9825 O.2       1 ALC1        0.0000 
     11 O          76.0960  118.0010   73.3020 O.2       9 ALL1        0.0000 
     12 O          76.1490  117.1490   70.6630 O.2       5 ALP1        0.0000 
     13 CA         77.5485  121.0790   75.3505 C.3       4 GLC5        0.0000 
     14 CA         77.3060  121.4400   73.1810 C.3      12 GLL5        0.0000 
     15 CA         77.7910  120.7180   77.5200 C.3       8 GLP5        0.0000 
     16 CA         76.7740  123.0170   73.8225 C.3       4 GLC5        0.0000 
     17 CA         76.2420  124.5940   74.4640 C.3       8 GLP5        0.0000 
     18 N          85.7505  116.1220   77.0715 N.am      2 SEC2        0.0000 
     19 N          84.7930  116.9380   76.7360 N.am     10 SEL2        0.0000 
     20 N          86.7080  115.3060   77.4070 N.am      6 SEP2        0.0000 
     21 N          84.3980  117.2530   78.1030 N.am      2 SEC2        0.0000 
     22 N          84.0030  117.5680   79.4700 N.am      6 SEP2        0.0000 
     23 Zn         83.2110  115.1740   74.0235 Zn        3 ZIC7        0.0000 
     24 Zn         83.8280  115.7770   74.7700 Zn       11 ZIL7        0.0000 
     25 Zn         82.5940  114.5710   73.2770 Zn        7 ZIP7        0.0000 
     26 N          85.3020  115.8195   74.2960 N.am      2 SEC2        0.0000 
     27 N          83.8280  115.7770   74.7700 N.am     10 SEL2        0.0000 
     28 N          86.7760  115.8620   73.8220 N.am      6 SEP2        0.0000 
     29 N          82.8780  115.1975   77.5690 N.am      2 SEC2        0.0000 
     30 N          82.4100  116.2970   76.7100 N.am     10 SEL2        0.0000 
     31 N          83.3460  114.0980   78.4280 N.am      6 SEP2        0.0000 
     32 N          81.6080  116.3900   77.6690 N.am      2 SEC2        0.0000 
     33 N          80.8060  116.4830   78.6280 N.am      6 SEP2        0.0000 
     34 N          83.2065  116.9325   78.0900 N.am      2 SEC2        0.0000 
     35 CA         85.1737  120.0872   72.7652 C.3       4 GLC5        0.0000 
     36 CA         86.4020  120.7200   71.3170 C.3       8 GLP5        0.0000 
     37 CA         85.2886  120.9556   75.1411 C.3       4 GLC5        0.0000 
     38 CA         83.6690  120.0710   73.8950 C.3      12 GLL5        0.0000 
     39 CA         87.0230  121.6900   75.7020 C.3       8 GLP5        0.0000 
     40 CA         76.9557  118.0943   74.8603 C.3       4 GLC5        0.0000 
     41 CA         78.3020  118.9580   73.3320 C.3      12 GLL5        0.0000 
     42 CA         76.2730  117.1500   76.4650 C.3       8 GLP5        0.0000 
@<TRIPOS>BOND
@<TRIPOS>SUBSTRUCTURE
     1 ALC1       10 GROUP        1 X    ALC  0     ROOT ALC X 1
     2 SEC2       18 GROUP        1 X    SEC  0     **** SEC X 2
     3 ZIC7       23 GROUP        1 X    ZIC  0     **** ZIC X 5
     4 GLC5        1 GROUP        1 X    GLC  0     **** GLC X 6
     5 ALP1       12 GROUP        1 Y    ALP  0     ROOT ALP Y 8
     6 SEP2       20 GROUP        1 Y    SEP  0     **** SEP Y 9
     7 ZIP7       25 GROUP        1 Y    ZIP  0     **** ZIP Y 12
     8 GLP5        3 GROUP        1 Y    GLP  0     **** GLP Y 13
     9 ALL1       11 GROUP        1 Z    ALL  0     ROOT ALL Z 15
    10 SEL2       19 GROUP        1 Z    SEL  0     **** SEL Z 16
    11 ZIL7       24 GROUP        1 Z    ZIL  0     **** ZIL Z 19
    12 GLL5        2 GROUP        1 Z    GLL  0     **** GLL Z 20
@<TRIPOS>SET

