#    Name: 4gyz_D5M_4_ligand
#    Modification time : Mon Mar 24 23:58:56 2014

@<TRIPOS>MOLECULE
4gyz_D5M_4_ligand
   34    36     1     0     0
SMALL
NO_CHARGES


@<TRIPOS>ATOM
      1 O5'        83.2290  118.1710   75.2280 O.3       1 D5M402      0.0000 
      2 C5'        84.2220  118.8380   74.5320 C.3       1 D5M402      0.0000 
      3 C4'        83.6690  120.0710   73.8950 C.3       1 D5M402      0.0000 
      4 O4'        82.6220  119.7660   73.0580 O.3       1 D5M402      0.0000 
      5 C3'        83.1630  120.9880   74.9470 C.3       1 D5M402      0.0000 
      6 O3'        83.7460  122.2320   74.8320 O.3       1 D5M402      0.0000 
      7 C2'        81.6930  121.1010   74.7630 C.3       1 D5M402      0.0000 
      8 C1'        81.5020  120.4960   73.4090 C.3       1 D5M402      0.0000 
      9 N9         80.3480  119.6470   73.4240 N.pl3     1 D5M402      0.0000 
     10 C8         80.2960  118.3300   73.6180 C.2       1 D5M402      0.0000 
     11 N7         79.0590  117.8720   73.5680 N.2       1 D5M402      0.0000 
     12 C5         78.3020  118.9580   73.3320 C.ar      1 D5M402      0.0000 
     13 C6         76.9750  119.1190   73.1790 C.ar      1 D5M402      0.0000 
     14 N6         76.0960  118.0010   73.3020 N.pl3     1 D5M402      0.0000 
     15 N1         76.4740  120.3510   72.9570 N.ar      1 D5M402      0.0000 
     16 C2         77.3060  121.4400   73.1810 C.ar      1 D5M402      0.0000 
     17 N3         78.6760  121.3320   73.0080 N.ar      1 D5M402      0.0000 
     18 C4         79.0730  120.0770   73.2370 C.ar      1 D5M402      0.0000 
     19 P          83.5660  116.7820   75.8670 P.3       1 D5M402      0.0000 
     20 O1P        84.7930  116.9380   76.7360 O.co2     1 D5M402      0.0000 
     21 O3P        83.8280  115.7770   74.7700 O.co2     1 D5M402      0.0000 
     22 O2P        82.4100  116.2970   76.7100 O.co2     1 D5M402      0.0000 
     23 H          84.6648  118.2134   73.7320 H         1 D5M402      0.0000 
     24 H          85.0607  119.1430   75.1877 H         1 D5M402      0.0000 
     25 H          84.4736  120.5757   73.3702 H         1 D5M402      0.0000 
     26 H          83.3456  120.5321   75.9111 H         1 D5M402      0.0000 
     27 H          81.3968  122.1208   74.7523 H         1 D5M402      0.0000 
     28 H          81.1813  120.5265   75.4951 H         1 D5M402      0.0000 
     29 H          81.3348  121.3182   72.7076 H         1 D5M402      0.0000 
     30 H          81.1001  117.7632   73.7811 H         1 D5M402      0.0000 
     31 H          75.6989  117.8510   74.2075 H         1 D5M402      0.0000 
     32 H          75.9512  117.4617   72.4724 H         1 D5M402      0.0000 
     33 H          76.8963  122.3418   73.4805 H         1 D5M402      0.0000 
     34 H          84.6988  122.0973   75.1039 H         1 D5M402      0.0000 
@<TRIPOS>BOND
     1    2    1 1    
     2   19    1 1    
     3    3    2 1    
     4   23    2 1    
     5   24    2 1    
     6    4    3 1    
     7    5    3 1    
     8   25    3 1    
     9    8    4 1    
    10    6    5 1    
    11    7    5 1    
    12   26    5 1    
    13   34    6 1    
    14    8    7 1    
    15   27    7 1    
    16   28    7 1    
    17    9    8 1    
    18   29    8 1    
    19   10    9 1    
    20   18    9 1    
    21   11   10 2    
    22   30   10 1    
    23   12   11 1    
    24   13   12 ar   
    25   18   12 ar   
    26   14   13 1    
    27   15   13 ar   
    28   31   14 1    
    29   32   14 1    
    30   16   15 ar   
    31   17   16 ar   
    32   33   16 1    
    33   18   17 ar   
    34   20   19 ar   
    35   21   19 ar   
    36   22   19 ar   
@<TRIPOS>SUBSTRUCTURE
     1 D5M402      1 GROUP   
@<TRIPOS>SET

