#    Name: 3qto_10P_1_INTS_M
#    Modification time : Tue Mar 25 10:07:03 2014

@<TRIPOS>MOLECULE
3qto_10P_1_INTS_M
   63     0     9     0     0
SMALL
NO_CHARGES


@<TRIPOS>ATOM
      1 O          15.3075  -15.3665   23.7450 O.2       1 ALC1        0.0000 
      2 O          16.2450  -16.0150   22.9050 O.2       7 ALL1        0.0000 
      3 O          14.3700  -14.7180   24.5850 O.2       4 ALP1        0.0000 
      4 N          15.5350  -12.6765   23.9345 N.am      2 SEC2        0.0000 
      5 N          16.4100  -13.2450   22.8480 N.am      8 SEL2        0.0000 
      6 N          14.6600  -12.1080   25.0210 N.am      5 SEP2        0.0000 
      7 CA         17.5180  -13.8610   26.0355 C.3       3 GLC5        0.0000 
      8 CA         17.9810  -15.3150   24.4320 C.3       9 GLL5        0.0000 
      9 CA         17.0550  -12.4070   27.6390 C.3       6 GLP5        0.0000 
     10 CA         20.1495  -11.9105   24.1210 C.3       3 GLC5        0.0000 
     11 CA         19.6390  -13.7000   25.3810 C.3       9 GLL5        0.0000 
     12 CA         20.6600  -10.1210   22.8610 C.3       6 GLP5        0.0000 
     13 CA         17.6665  -11.5140   22.7990 C.3       3 GLC5        0.0000 
     14 CA         17.9050  -12.1760   20.8580 C.3       9 GLL5        0.0000 
     15 CA         17.4280  -10.8520   24.7400 C.3       6 GLP5        0.0000 
     16 CA         14.9350   -9.0625   18.7980 C.3       3 GLC5        0.0000 
     17 CA         14.4710  -10.6000   20.2420 C.3       9 GLL5        0.0000 
     18 CA         15.3990   -7.5250   17.3540 C.3       6 GLP5        0.0000 
     19 CA         10.9420  -10.9035   21.0285 C.3       3 GLC5        0.0000 
     20 CA         12.8040  -10.4460   22.1600 C.3       9 GLL5        0.0000 
     21 CA          9.0800  -11.3610   19.8970 C.3       6 GLP5        0.0000 
     22 CA         12.7435   -8.4485   21.7390 C.3       3 GLC5        0.0000 
     23 CA         12.6830   -6.4510   21.3180 C.3       6 GLP5        0.0000 
     24 CA         13.2350  -11.6180   23.9900 C.3       3 GLC5        0.0000 
     25 CA         13.6660  -12.7900   25.8200 C.3       6 GLP5        0.0000 
     26 CA         10.1940   -8.8770   23.0665 C.3       3 GLC5        0.0000 
     27 CA         11.2320  -10.1850   24.0120 C.3       9 GLL5        0.0000 
     28 CA          9.1560   -7.5690   22.1210 C.3       6 GLP5        0.0000 
     29 CA         12.4490  -11.4875   24.9160 C.3       3 GLC5        0.0000 
     30 CA         11.1520   -9.6745   25.9555 C.3       3 GLC5        0.0000 
     31 CA         11.0720   -9.1640   27.8990 C.3       6 GLP5        0.0000 
     32 CA         13.0740  -13.4595   19.3535 C.3       3 GLC5        0.0000 
     33 CA         13.1920  -12.5690   21.1300 C.3       9 GLL5        0.0000 
     34 CA         12.9560  -14.3500   17.5770 C.3       6 GLP5        0.0000 
     35 O          16.4885   -9.8970   21.4670 O.2       1 ALC1        0.0000 
     36 O          15.8480  -10.9030   20.6690 O.2       7 ALL1        0.0000 
     37 O          17.1290   -8.8910   22.2650 O.2       4 ALP1        0.0000 
     38 CA         19.0332  -15.2805   26.5610 C.3       3 GLC5        0.0000 
     39 CA         19.3790  -15.5060   28.6230 C.3       6 GLP5        0.0000 
     40 CA         19.8308  -14.4785   27.0318 C.3       3 GLC5        0.0000 
     41 CA         22.7750  -12.6588   26.3590 C.3       3 GLC5        0.0000 
     42 CA         20.9260  -13.2020   25.5000 C.3       9 GLL5        0.0000 
     43 CA         24.0990  -11.8150   27.5610 C.3       6 GLP5        0.0000 
     44 CA         21.7485  -11.8577   24.3305 C.3       3 GLC5        0.0000 
     45 CA         21.9760  -13.8030   24.8140 C.3       9 GLL5        0.0000 
     46 CA         22.0460  -10.2130   23.5040 C.3       6 GLP5        0.0000 
     47 CA         18.8246  -12.2884   24.9884 C.3       3 GLC5        0.0000 
     48 CA         18.8155  -10.5962   19.1880 C.3       3 GLC5        0.0000 
     49 CA         19.2100   -9.0560   18.0770 C.3       6 GLP5        0.0000 
     50 CA         21.5165  -13.9688   20.0810 C.3       3 GLC5        0.0000 
     51 CA         19.9880  -13.1470   20.0810 C.3       9 GLL5        0.0000 
     52 CA         23.4270  -14.2440   19.7170 C.3       6 GLP5        0.0000 
     53 CA         19.9322  -11.3814   21.5255 C.3       3 GLC5        0.0000 
     54 CA         18.9036  -14.3625   18.8564 C.3       3 GLC5        0.0000 
     55 CA         18.9370  -12.0970   19.7400 C.3       9 GLL5        0.0000 
     56 CA         18.4640  -15.2940   17.3530 C.3       6 GLP5        0.0000 
     57 CA         14.7215  -10.4736   22.8856 C.3       3 GLC5        0.0000 
     58 CA         16.0580  -10.2730   24.3310 C.3       6 GLP5        0.0000 
     59 CA         12.8085  -12.7530   24.1455 C.3       3 GLC5        0.0000 
     60 CA         11.6370  -12.3130   22.9410 C.3       9 GLL5        0.0000 
     61 CA         10.3360  -13.6000   21.7850 C.3       3 GLC5        0.0000 
     62 CA          8.7210  -14.4840   21.0990 C.3       6 GLP5        0.0000 
     63 CA         10.8257  -12.0017   20.8487 C.3       3 GLC5        0.0000 
@<TRIPOS>BOND
@<TRIPOS>SUBSTRUCTURE
     1 ALC1        1 GROUP        1 X    ALC  0     ROOT ALC X 1
     2 SEC2        4 GROUP        1 X    SEC  0     **** SEC X 2
     3 GLC5        7 GROUP        1 X    GLC  0     **** GLC X 6
     4 ALP1        3 GROUP        1 Y    ALP  0     ROOT ALP Y 8
     5 SEP2        6 GROUP        1 Y    SEP  0     **** SEP Y 9
     6 GLP5        9 GROUP        1 Y    GLP  0     **** GLP Y 13
     7 ALL1        2 GROUP        1 Z    ALL  0     ROOT ALL Z 15
     8 SEL2        5 GROUP        1 Z    SEL  0     **** SEL Z 16
     9 GLL5        8 GROUP        1 Z    GLL  0     **** GLL Z 20
@<TRIPOS>SET

