#    Name: 3qto_10P_1_ligand
#    Modification time : Tue Mar 25 10:07:03 2014

@<TRIPOS>MOLECULE
3qto_10P_1_ligand
   55    57     1     0     0
SMALL
NO_CHARGES


@<TRIPOS>ATOM
      1 N22        16.2450  -16.0150   22.9050 N.4       1 10P1001     0.0000 
      2 C3         17.5270  -15.3320   22.9680 C.3       1 10P1001     0.0000 
      3 C4         17.3150  -13.9460   22.4080 C.2       1 10P1001     0.0000 
      4 O24        16.4100  -13.2450   22.8480 O.2       1 10P1001     0.0000 
      5 C2         17.9810  -15.3150   24.4320 C.3       1 10P1001     0.0000 
      6 C1         19.3940  -14.7950   24.5660 C.ar      1 10P1001     0.0000 
      7 C5         19.6390  -13.7000   25.3810 C.ar      1 10P1001     0.0000 
      8 C9         20.4430  -15.4020   23.8780 C.ar      1 10P1001     0.0000 
      9 C6         20.9260  -13.2020   25.5000 C.ar      1 10P1001     0.0000 
     10 C8         21.7350  -14.9070   24.0050 C.ar      1 10P1001     0.0000 
     11 C7         21.9760  -13.8030   24.8140 C.ar      1 10P1001     0.0000 
     12 N23        18.1100  -13.5150   21.4340 N.am      1 10P1001     0.0000 
     13 C10        17.9050  -12.1760   20.8580 C.3       1 10P1001     0.0000 
     14 C11        16.5020  -12.0120   20.3250 C.2       1 10P1001     0.0000 
     15 O25        15.9740  -12.8780   19.6250 O.2       1 10P1001     0.0000 
     16 C14        18.9370  -12.0970   19.7400 C.3       1 10P1001     0.0000 
     17 C15        19.9880  -13.1470   20.0810 C.3       1 10P1001     0.0000 
     18 C16        19.2240  -14.2400   20.8090 C.3       1 10P1001     0.0000 
     19 C12        14.4710  -10.6000   20.2420 C.3       1 10P1001     0.0000 
     20 C13        13.4610  -11.2050   21.1990 C.ar      1 10P1001     0.0000 
     21 C17        12.8040  -10.4460   22.1600 C.ar      1 10P1001     0.0000 
     22 C18        11.2320  -10.1850   24.0120 C.3       1 10P1001     0.0000 
     23 C19        11.6370  -12.3130   22.9410 C.ar      1 10P1001     0.0000 
     24 C20        12.2650  -13.1190   22.0010 C.ar      1 10P1001     0.0000 
     25 C21        13.1920  -12.5690   21.1300 C.ar      1 10P1001     0.0000 
     26 N26        15.8480  -10.9030   20.6690 N.am      1 10P1001     0.0000 
     27 N27        11.9160  -11.0010   22.9970 N.pl3     1 10P1001     0.0000 
     28 H          18.2507  -15.8512   22.3811 H         1 10P1001     0.0000 
     29 H          17.9236  -16.3306   24.8307 H         1 10P1001     0.0000 
     30 H          17.3000  -14.6811   25.0049 H         1 10P1001     0.0000 
     31 H          18.8652  -13.2586   25.8963 H         1 10P1001     0.0000 
     32 H          20.2590  -16.2155   23.2773 H         1 10P1001     0.0000 
     33 H          21.1089  -12.3829   26.0987 H         1 10P1001     0.0000 
     34 H          22.5104  -15.3559   23.5021 H         1 10P1001     0.0000 
     35 H          22.9299  -13.4304   24.9056 H         1 10P1001     0.0000 
     36 H          18.1302  -11.4288   21.5782 H         1 10P1001     0.0000 
     37 H          19.3854  -11.1280   19.7304 H         1 10P1001     0.0000 
     38 H          18.4772  -12.3370   18.8067 H         1 10P1001     0.0000 
     39 H          20.7216  -12.7243   20.7281 H         1 10P1001     0.0000 
     40 H          20.4116  -13.5361   19.1839 H         1 10P1001     0.0000 
     41 H          18.8707  -14.9524   20.0985 H         1 10P1001     0.0000 
     42 H          19.8588  -14.6802   21.5440 H         1 10P1001     0.0000 
     43 H          14.3124   -9.5156   20.2050 H         1 10P1001     0.0000 
     44 H          14.2856  -11.0003   19.2380 H         1 10P1001     0.0000 
     45 H          13.0212   -9.4246   22.2140 H         1 10P1001     0.0000 
     46 H          10.9542  -12.7449   23.5920 H         1 10P1001     0.0000 
     47 H          12.0420  -14.1217   21.9521 H         1 10P1001     0.0000 
     48 H          13.6738  -13.1554   20.4443 H         1 10P1001     0.0000 
     49 H          16.2902  -10.1674   21.2781 H         1 10P1001     0.0000 
     50 H          16.3042  -16.9491   23.2570 H         1 10P1001     0.0000 
     51 H          15.5460  -15.5431   23.4422 H         1 10P1001     0.0000 
     52 H          15.9025  -16.0762   21.9675 H         1 10P1001     0.0000 
     53 H          11.8793   -9.7603   24.6450 H         1 10P1001     0.0000 
     54 H          10.6997   -9.4466   23.5979 H         1 10P1001     0.0000 
     55 H          10.5990  -10.7300   24.5618 H         1 10P1001     0.0000 
@<TRIPOS>BOND
     1    2    1 1    
     2   50    1 1    
     3   51    1 1    
     4   52    1 1    
     5    3    2 1    
     6    5    2 1    
     7   28    2 1    
     8    4    3 2    
     9   12    3 am   
    10    6    5 1    
    11   29    5 1    
    12   30    5 1    
    13    7    6 ar   
    14    8    6 ar   
    15    9    7 ar   
    16   31    7 1    
    17   10    8 ar   
    18   32    8 1    
    19   11    9 ar   
    20   33    9 1    
    21   11   10 ar   
    22   34   10 1    
    23   35   11 1    
    24   13   12 1    
    25   18   12 1    
    26   14   13 1    
    27   16   13 1    
    28   36   13 1    
    29   15   14 2    
    30   26   14 am   
    31   17   16 1    
    32   37   16 1    
    33   38   16 1    
    34   18   17 1    
    35   39   17 1    
    36   40   17 1    
    37   41   18 1    
    38   42   18 1    
    39   20   19 1    
    40   26   19 1    
    41   43   19 1    
    42   44   19 1    
    43   21   20 ar   
    44   25   20 ar   
    45   27   21 ar   
    46   45   21 1    
    47   27   22 1    
    48   53   22 1    
    49   54   22 1    
    50   55   22 1    
    51   24   23 ar   
    52   27   23 ar   
    53   46   23 1    
    54   25   24 ar   
    55   47   24 1    
    56   48   25 1    
    57   49   26 1    
@<TRIPOS>SUBSTRUCTURE
     1 10P1001     1 GROUP   
@<TRIPOS>SET

