#    Name: 1xa4_COA_1_INTS_M
#    Modification time : Tue Mar 25 09:40:25 2014

@<TRIPOS>MOLECULE
1xa4_COA_1_INTS_M
   90     0    12     0     0
SMALL
NO_CHARGES


@<TRIPOS>ATOM
      1 N          11.4985    2.2340  -14.3820 N.am      2 SEC2        0.0000 
      2 N          11.3260    0.6330  -13.7870 N.am     10 SEL2        0.0000 
      3 N          11.6710    3.8350  -14.9770 N.am      6 SEP2        0.0000 
      4 CA         11.6295    1.1460  -15.3265 C.3       4 GLC5        0.0000 
      5 CA         12.4400   -0.0870  -13.9160 C.3      12 GLL5        0.0000 
      6 CA         10.8190    2.3790  -16.7370 C.3       8 GLP5        0.0000 
      7 N          11.8660   -1.9215  -13.5075 N.am      2 SEC2        0.0000 
      8 N          12.9330   -0.8000  -12.8980 N.am     10 SEL2        0.0000 
      9 N          10.7990   -3.0430  -14.1170 N.am      6 SEP2        0.0000 
     10 CA          9.8005   -1.4025  -12.4915 C.3       4 GLC5        0.0000 
     11 CA         11.1270   -0.0700  -11.5410 C.3      12 GLL5        0.0000 
     12 CA          8.4740   -2.7350  -13.4420 C.3       8 GLP5        0.0000 
     13 CA          9.1025   -0.4690  -13.2985 C.3       4 GLC5        0.0000 
     14 CA         10.6440    0.6660  -12.6310 C.3      12 GLL5        0.0000 
     15 CA          7.5610   -1.6040  -13.9660 C.3       8 GLP5        0.0000 
     16 CA         10.7315    1.5225  -14.6840 C.3       4 GLC5        0.0000 
     17 CA         11.4335    2.5380  -12.3075 C.3       4 GLC5        0.0000 
     18 CA         12.2230    4.4100  -11.9840 C.3       8 GLP5        0.0000 
     19 O           9.1030    1.9565  -13.7645 O.2       1 ALC1        0.0000 
     20 O           9.5330    1.3740  -12.5290 O.2       9 ALL1        0.0000 
     21 O           8.6730    2.5390  -15.0000 O.2       5 ALP1        0.0000 
     22 CA         14.2850   -0.1975  -10.6095 C.3       4 GLC5        0.0000 
     23 CA         13.7330   -2.2870  -10.3010 C.3      12 GLL5        0.0000 
     24 CA         14.8370    1.8920  -10.9180 C.3       8 GLP5        0.0000 
     25 NZ         18.1535   -1.6240  -10.7010 N.4       3 LYC4        0.0000 
     26 NZ         18.9170   -2.4330   -9.5470 N.4      11 LYL4        0.0000 
     27 NZ         18.2330   -0.3060  -12.7600 N.4       7 LYP4        0.0000 
     28 N          18.1535   -1.6240  -10.7010 N.am      2 SEC2        0.0000 
     29 N          18.9170   -2.4330   -9.5470 N.am     10 SEL2        0.0000 
     30 N          17.3900   -0.8150  -11.8550 N.am      6 SEP2        0.0000 
     31 NZ         17.8030   -5.1810   -7.2585 N.4       3 LYC4        0.0000 
     32 NZ         17.9620   -4.8490   -9.1260 N.4      11 LYL4        0.0000 
     33 NZ         17.6440   -5.5130   -5.3910 N.4       7 LYP4        0.0000 
     34 NZ         17.8010   -4.2920   -6.3100 N.4       3 LYC4        0.0000 
     35 NZ         17.9580   -3.0710   -7.2290 N.4      11 LYL4        0.0000 
     36 N          17.8010   -4.2920   -6.3100 N.am      2 SEC2        0.0000 
     37 N          17.9580   -3.0710   -7.2290 N.am     10 SEL2        0.0000 
     38 N          17.6440   -5.5130   -5.3910 N.am      6 SEP2        0.0000 
     39 NZ         15.7915   -5.2710   -5.4865 N.4       3 LYC4        0.0000 
     40 NZ         13.9390   -5.0290   -5.5820 N.4      11 LYL4        0.0000 
     41 NZ         16.6255   -6.2530   -5.6175 N.4       3 LYC4        0.0000 
     42 NZ         15.6070   -6.9930   -5.8440 N.4      11 LYL4        0.0000 
     43 N          16.6255   -6.2530   -5.6175 N.am      2 SEC2        0.0000 
     44 N          15.6070   -6.9930   -5.8440 N.am     10 SEL2        0.0000 
     45 CA         10.1100   -6.7855   -4.5490 C.3       4 GLC5        0.0000 
     46 CA         12.2390   -6.8810   -3.8650 C.3      12 GLL5        0.0000 
     47 CA          7.9810   -6.6900   -5.2330 C.3       8 GLP5        0.0000 
     48 CA         14.5975   -8.3460   -0.9730 C.3       4 GLC5        0.0000 
     49 CA         12.7510   -7.4170   -1.4710 C.3      12 GLL5        0.0000 
     50 CA         16.4440   -9.2750   -0.4750 C.3       8 GLP5        0.0000 
     51 CA         11.7290   -8.9355   -1.1200 C.3       4 GLC5        0.0000 
     52 CA         10.7070  -10.4540   -0.7690 C.3       8 GLP5        0.0000 
     53 CA          9.1455   -5.6595   -3.3620 C.3       4 GLC5        0.0000 
     54 CA         10.7190   -6.0040   -2.1220 C.3      12 GLL5        0.0000 
     55 CA          7.5720   -5.3150   -4.6020 C.3       8 GLP5        0.0000 
     56 CA         10.1440   -7.9260   -1.2160 C.3       4 GLC5        0.0000 
     57 CA          9.5690   -9.8480   -0.3100 C.3       8 GLP5        0.0000 
     58 CA         13.6850   -3.0585   -2.2605 C.3       4 GLC5        0.0000 
     59 CA         13.1000   -5.1080   -2.3310 C.3      12 GLL5        0.0000 
     60 CA         14.2700   -1.0090   -2.1900 C.3       8 GLP5        0.0000 
     61 CA         15.0945   -5.1830   -2.3395 C.3       4 GLC5        0.0000 
     62 CA         17.0890   -5.2580   -2.3480 C.3       8 GLP5        0.0000 
     63 N          14.5615   -6.5350    1.0190 N.am      2 SEC2        0.0000 
     64 N          14.1520   -5.3940   -0.0880 N.am     10 SEL2        0.0000 
     65 N          14.9710   -7.6760    2.1260 N.am      6 SEP2        0.0000 
     66 CA         11.3360   -1.4825    0.1005 C.3       4 GLC5        0.0000 
     67 CA         12.6810   -2.9300    0.8430 C.3      12 GLL5        0.0000 
     68 CA          9.9910   -0.0350   -0.6420 C.3       8 GLP5        0.0000 
     69 CA         13.4755   -1.9695   -0.6735 C.3       4 GLC5        0.0000 
     70 CA         11.4515   -3.9925    3.7225 C.3       4 GLC5        0.0000 
     71 CA         11.9640   -3.8570    1.8310 C.3      12 GLL5        0.0000 
     72 CA         10.9390   -4.1280    5.6140 C.3       8 GLP5        0.0000 
     73 O          11.0740   -6.2795    1.7590 O.2       1 ALC1        0.0000 
     74 O          10.0040   -5.2210    1.3280 O.2       9 ALL1        0.0000 
     75 O          12.1440   -7.3380    2.1900 O.2       5 ALP1        0.0000 
     76 CA          8.9840   -7.5960    1.0065 C.3       4 GLC5        0.0000 
     77 CA          8.6090   -5.4380    0.9210 C.3      12 GLL5        0.0000 
     78 CA          9.3590   -9.7540    1.0920 C.3       8 GLP5        0.0000 
     79 CA          5.4825   -6.5270    0.1405 C.3       4 GLC5        0.0000 
     80 CA          6.1820   -6.2500    1.7460 C.3      12 GLL5        0.0000 
     81 CA          4.7830   -6.8040   -1.4650 C.3       8 GLP5        0.0000 
     82 CA          4.4275   -5.7260    2.2335 C.3       4 GLC5        0.0000 
     83 CA          2.6730   -5.2020    2.7210 C.3       8 GLP5        0.0000 
     84 CA          5.5045   -5.8050    3.7640 C.3       4 GLC5        0.0000 
     85 CA          4.8270   -5.3600    5.7820 C.3       8 GLP5        0.0000 
     86 CA         13.4787   -2.0308    2.3270 C.3       4 GLC5        0.0000 
     87 CA         14.6350   -0.6680    3.3170 C.3       8 GLP5        0.0000 
     88 CA          6.8790   -4.0800    2.8110 C.3       4 GLC5        0.0000 
     89 CA          7.7660   -5.4680    2.1820 C.3      12 GLL5        0.0000 
     90 CA          6.7840   -2.3010    3.6580 C.3       8 GLP5        0.0000 
@<TRIPOS>BOND
@<TRIPOS>SUBSTRUCTURE
     1 ALC1       19 GROUP        1 X    ALC  0     ROOT ALC X 1
     2 SEC2        1 GROUP        1 X    SEC  0     **** SEC X 2
     3 LYC4       25 GROUP        1 X    LYC  0     **** LYC X 4
     4 GLC5        4 GROUP        1 X    GLC  0     **** GLC X 6
     5 ALP1       21 GROUP        1 Y    ALP  0     ROOT ALP Y 8
     6 SEP2        3 GROUP        1 Y    SEP  0     **** SEP Y 9
     7 LYP4       27 GROUP        1 Y    LYP  0     **** LYP Y 11
     8 GLP5        6 GROUP        1 Y    GLP  0     **** GLP Y 13
     9 ALL1       20 GROUP        1 Z    ALL  0     ROOT ALL Z 15
    10 SEL2        2 GROUP        1 Z    SEL  0     **** SEL Z 16
    11 LYL4       26 GROUP        1 Z    LYL  0     **** LYL Z 18
    12 GLL5        5 GROUP        1 Z    GLL  0     **** GLL Z 20
@<TRIPOS>SET

