#    Name: 1xa4_COA_1_ligand
#    Modification time : Tue Mar 25 09:40:25 2014

@<TRIPOS>MOLECULE
1xa4_COA_1_ligand
   79    81     1     0     0
SMALL
NO_CHARGES


@<TRIPOS>ATOM
      1 N1A        11.3260    0.6330  -13.7870 N.ar      1 COA701      0.0000 
      2 C2A        12.4400   -0.0870  -13.9160 C.ar      1 COA701      0.0000 
      3 N3A        12.9330   -0.8000  -12.8980 N.ar      1 COA701      0.0000 
      4 C4A        12.2990   -0.8120  -11.7070 C.ar      1 COA701      0.0000 
      5 C5A        11.1270   -0.0700  -11.5410 C.ar      1 COA701      0.0000 
      6 C6A        10.6440    0.6660  -12.6310 C.ar      1 COA701      0.0000 
      7 N6A         9.5330    1.3740  -12.5290 N.pl3     1 COA701      0.0000 
      8 N7A        10.7240   -0.2500  -10.2790 N.2       1 COA701      0.0000 
      9 C8A        11.5940   -1.0710   -9.6740 C.2       1 COA701      0.0000 
     10 N9A        12.5540   -1.4220  -10.5400 N.pl3     1 COA701      0.0000 
     11 C1B        13.7330   -2.2870  -10.3010 C.3       1 COA701      0.0000 
     12 C2B        14.0310   -2.5290   -8.8190 C.3       1 COA701      0.0000 
     13 O2B        14.4340   -1.3070   -8.1760 O.3       1 COA701      0.0000 
     14 C3B        15.1910   -3.5140   -8.9900 C.3       1 COA701      0.0000 
     15 O3B        16.3990   -2.8140   -9.3300 O.3       1 COA701      0.0000 
     16 P3B        17.8360   -3.2630   -8.7090 P.3       1 COA701      0.0000 
     17 O7A        18.9170   -2.4330   -9.5470 O.co2     1 COA701      0.0000 
     18 O8A        17.9620   -4.8490   -9.1260 O.co2     1 COA701      0.0000 
     19 O9A        17.9580   -3.0710   -7.2290 O.co2     1 COA701      0.0000 
     20 C4B        14.7430   -4.3510  -10.1900 C.3       1 COA701      0.0000 
     21 O4B        13.6160   -3.6230  -10.8030 O.3       1 COA701      0.0000 
     22 C5B        14.2010   -5.6520   -9.6430 C.3       1 COA701      0.0000 
     23 O5B        13.2580   -5.3610   -8.5980 O.3       1 COA701      0.0000 
     24 P1A        12.3340   -6.5140   -7.9180 P.3       1 COA701      0.0000 
     25 O1A        12.1120   -7.5930   -8.9320 O.co2     1 COA701      0.0000 
     26 O2A        11.1740   -5.8640   -7.2500 O.co2     1 COA701      0.0000 
     27 O3A        13.2840   -7.2270   -6.7700 O.3       1 COA701      0.0000 
     28 P2A        14.2070   -6.4970   -5.6590 P.3       1 COA701      0.0000 
     29 O4A        13.9390   -5.0290   -5.5820 O.co2     1 COA701      0.0000 
     30 O5A        15.6070   -6.9930   -5.8440 O.co2     1 COA701      0.0000 
     31 O6A        13.6150   -7.1180   -4.2450 O.3       1 COA701      0.0000 
     32 CBP        12.1860   -6.3520   -2.4290 C.3       1 COA701      0.0000 
     33 CCP        12.2390   -6.8810   -3.8650 C.3       1 COA701      0.0000 
     34 CDP        12.7510   -7.4170   -1.4710 C.3       1 COA701      0.0000 
     35 CEP        10.7190   -6.0040   -2.1220 C.3       1 COA701      0.0000 
     36 CAP        13.1000   -5.1080   -2.3310 C.3       1 COA701      0.0000 
     37 OAP        12.5410   -4.0270   -3.0880 O.3       1 COA701      0.0000 
     38 C9P        13.3060   -4.6550   -0.8680 C.2       1 COA701      0.0000 
     39 O9P        14.1520   -5.3940   -0.0880 O.2       1 COA701      0.0000 
     40 N8P        12.6350   -3.5630   -0.5010 N.am      1 COA701      0.0000 
     41 C7P        12.6810   -2.9300    0.8430 C.3       1 COA701      0.0000 
     42 C6P        11.9640   -3.8570    1.8310 C.3       1 COA701      0.0000 
     43 C5P        10.4930   -3.9940    1.3940 C.2       1 COA701      0.0000 
     44 O5P         9.8400   -3.0020    1.1160 O.2       1 COA701      0.0000 
     45 N4P        10.0040   -5.2210    1.3280 N.am      1 COA701      0.0000 
     46 C3P         8.6090   -5.4380    0.9210 C.3       1 COA701      0.0000 
     47 C2P         7.7660   -5.4680    2.1820 C.3       1 COA701      0.0000 
     48 S1P         6.1820   -6.2500    1.7460 S.3       1 COA701      0.0000 
     49 H          12.9469   -0.0959  -14.8435 H         1 COA701      0.0000 
     50 H           9.2316    1.8420  -13.3598 H         1 COA701      0.0000 
     51 H           9.0944    1.3775  -11.6303 H         1 COA701      0.0000 
     52 H          11.5365   -1.3672   -8.7456 H         1 COA701      0.0000 
     53 H          14.6370   -1.8304  -10.7145 H         1 COA701      0.0000 
     54 H          13.2255   -3.0261   -8.3983 H         1 COA701      0.0000 
     55 H          15.2571   -4.1229   -8.1531 H         1 COA701      0.0000 
     56 H          15.5213   -4.5041  -10.8392 H         1 COA701      0.0000 
     57 H          15.0399   -6.2449   -9.2693 H         1 COA701      0.0000 
     58 H          13.7308   -6.2013  -10.4628 H         1 COA701      0.0000 
     59 H          11.6496   -7.8003   -3.9081 H         1 COA701      0.0000 
     60 H          11.7679   -6.1398   -4.5154 H         1 COA701      0.0000 
     61 H          14.0753   -5.3843   -2.7276 H         1 COA701      0.0000 
     62 H          11.9959   -3.0578   -1.1859 H         1 COA701      0.0000 
     63 H          12.1732   -1.9750    0.8317 H         1 COA701      0.0000 
     64 H          13.7045   -2.8008    1.1682 H         1 COA701      0.0000 
     65 H          12.0025   -3.4299    2.8190 H         1 COA701      0.0000 
     66 H          12.4301   -4.8279    1.8177 H         1 COA701      0.0000 
     67 H          10.5477   -6.0669    1.5486 H         1 COA701      0.0000 
     68 H           8.5010   -6.3835    0.4044 H         1 COA701      0.0000 
     69 H           8.2628   -4.6315    0.2869 H         1 COA701      0.0000 
     70 H           7.4607   -4.5212    2.5185 H         1 COA701      0.0000 
     71 H           8.1315   -6.1091    2.9292 H         1 COA701      0.0000 
     72 H          13.7013   -7.6427   -1.6854 H         1 COA701      0.0000 
     73 H          12.7303   -7.1093   -0.5197 H         1 COA701      0.0000 
     74 H          12.2302   -8.2696   -1.5147 H         1 COA701      0.0000 
     75 H          10.6078   -5.6498   -1.1935 H         1 COA701      0.0000 
     76 H          10.3641   -5.3076   -2.7458 H         1 COA701      0.0000 
     77 H          10.1228   -6.8026   -2.2044 H         1 COA701      0.0000 
     78 H          14.1598   -1.4149   -7.2204 H         1 COA701      0.0000 
     79 H          12.8986   -4.1476   -4.0140 H         1 COA701      0.0000 
@<TRIPOS>BOND
     1    2    1 ar   
     2    6    1 ar   
     3    3    2 ar   
     4   49    2 1    
     5    4    3 ar   
     6    5    4 ar   
     7   10    4 1    
     8    6    5 ar   
     9    8    5 1    
    10    7    6 1    
    11   50    7 1    
    12   51    7 1    
    13    9    8 2    
    14   10    9 1    
    15   52    9 1    
    16   11   10 1    
    17   12   11 1    
    18   21   11 1    
    19   53   11 1    
    20   13   12 1    
    21   14   12 1    
    22   54   12 1    
    23   78   13 1    
    24   15   14 1    
    25   20   14 1    
    26   55   14 1    
    27   16   15 1    
    28   17   16 ar   
    29   18   16 ar   
    30   19   16 ar   
    31   21   20 1    
    32   22   20 1    
    33   56   20 1    
    34   23   22 1    
    35   57   22 1    
    36   58   22 1    
    37   24   23 1    
    38   25   24 ar   
    39   26   24 ar   
    40   27   24 1    
    41   28   27 1    
    42   29   28 ar   
    43   30   28 ar   
    44   31   28 1    
    45   33   31 1    
    46   33   32 1    
    47   34   32 1    
    48   35   32 1    
    49   36   32 1    
    50   59   33 1    
    51   60   33 1    
    52   72   34 1    
    53   73   34 1    
    54   74   34 1    
    55   75   35 1    
    56   76   35 1    
    57   77   35 1    
    58   37   36 1    
    59   38   36 1    
    60   61   36 1    
    61   79   37 1    
    62   39   38 2    
    63   40   38 am   
    64   41   40 1    
    65   62   40 1    
    66   42   41 1    
    67   63   41 1    
    68   64   41 1    
    69   43   42 1    
    70   65   42 1    
    71   66   42 1    
    72   44   43 2    
    73   45   43 am   
    74   46   45 1    
    75   67   45 1    
    76   47   46 1    
    77   68   46 1    
    78   69   46 1    
    79   48   47 1    
    80   70   47 1    
    81   71   47 1    
@<TRIPOS>SUBSTRUCTURE
     1 COA701      1 GROUP   
@<TRIPOS>SET

