#    Name: 2WWJ_2_CAVITY_N1_6.mol2
#    Modification time : Mon Mar 10 21:19:17 2014

@<TRIPOS>MOLECULE
2WWJ_2_CAVITY_N1_6.mol2
  146     0     7     0     0
SMALL
NO_CHARGES


@<TRIPOS>ATOM
      1 O         -50.8110  -59.5915    8.7713 O.2       2 ALA2        0.0000 
      2 O         -50.4789  -61.0284    9.0453 O.2       2 ALA2        0.0000 
      3 CA        -51.2210  -59.9526    7.3744 C.3       6 GLY6        0.0000 
      4 N         -44.6264  -58.8811   13.2150 N.2       2 ALA2        0.0000 
      5 CA        -44.2943  -60.3180   13.4889 C.3       6 GLY6        0.0000 
      6 N         -45.3685  -57.8053   11.5441 N.2       2 ALA2        0.0000 
      7 N         -45.0364  -59.2422   11.8180 N.2       2 ALA2        0.0000 
      8 DU        -44.7044  -60.6791   12.0919 H         7 CUB7        0.0000 
      9 DU        -44.3723  -62.1160   12.3659 H         7 CUB7        0.0000 
     10 CA        -45.7785  -58.1663   10.1471 C.3       6 GLY6        0.0000 
     11 CA        -45.4465  -59.6032   10.4211 C.3       6 GLY6        0.0000 
     12 DU        -45.1144  -61.0401   10.6950 H         7 CUB7        0.0000 
     13 N         -47.1847  -54.2166    7.9284 N.2       2 ALA2        0.0000 
     14 CA        -46.8526  -55.6535    8.2024 C.3       6 GLY6        0.0000 
     15 CA        -46.5206  -57.0905    8.4763 C.3       6 GLY6        0.0000 
     16 CA        -46.1885  -58.5274    8.7502 C.3       6 GLY6        0.0000 
     17 DU        -45.8565  -59.9643    9.0241 H         7 CUB7        0.0000 
     18 NZ        -45.5244  -61.4012    9.2980 N.2       4 LYS4        0.0000 
     19 N         -47.5947  -54.5777    6.5315 N.2       2 ALA2        0.0000 
     20 DU        -47.2627  -56.0146    6.8054 H         7 CUB7        0.0000 
     21 DU        -46.9306  -57.4515    7.0793 H         7 CUB7        0.0000 
     22 NZ        -46.5986  -58.8884    7.3532 N.2       4 LYS4        0.0000 
     23 NZ        -46.2665  -60.3253    7.6271 N.2       4 LYS4        0.0000 
     24 N         -48.0047  -54.9387    5.1345 N.2       2 ALA2        0.0000 
     25 DU        -47.6727  -56.3756    5.4084 H         7 CUB7        0.0000 
     26 NZ        -47.3406  -57.8126    5.6823 N.2       4 LYS4        0.0000 
     27 NZ        -47.0086  -59.2495    5.9562 N.2       4 LYS4        0.0000 
     28 CZ        -48.0827  -56.7367    4.0115 C.ar      5 PHE5        0.0000 
     29 CA        -47.7507  -58.1736    4.2854 C.3       6 GLY6        0.0000 
     30 O         -46.4406  -59.4765   12.2907 O.2       2 ALA2        0.0000 
     31 O         -46.1085  -60.9135   12.5647 O.2       2 ALA2        0.0000 
     32 DU        -45.7765  -62.3504   12.8386 H         7 CUB7        0.0000 
     33 N         -47.5147  -56.9638   10.3459 N.2       2 ALA2        0.0000 
     34 N         -47.1826  -58.4007   10.6199 N.2       2 ALA2        0.0000 
     35 DU        -46.8506  -59.8376   10.8938 H         7 CUB7        0.0000 
     36 DU        -46.5185  -61.2745   11.1677 H         7 CUB7        0.0000 
     37 O         -48.5888  -54.4510    8.4011 O.2       2 ALA2        0.0000 
     38 N         -48.2568  -55.8879    8.6751 N.2       2 ALA2        0.0000 
     39 O         -47.9247  -57.3248    8.9490 O.2       2 ALA2        0.0000 
     40 O         -47.5927  -58.7617    9.2229 O.2       2 ALA2        0.0000 
     41 DU        -47.2606  -60.1986    9.4968 H         7 CUB7        0.0000 
     42 O         -48.9988  -54.8120    7.0042 O.2       2 ALA2        0.0000 
     43 O         -48.6668  -56.2490    7.2781 O.2       2 ALA2        0.0000 
     44 O         -48.3348  -57.6859    7.5520 O.2       2 ALA2        0.0000 
     45 NZ        -48.0027  -59.1228    7.8259 N.2       4 LYS4        0.0000 
     46 NZ        -47.6707  -60.5597    8.0998 N.2       4 LYS4        0.0000 
     47 O         -49.4089  -55.1731    5.6072 O.2       2 ALA2        0.0000 
     48 CA        -49.0768  -56.6100    5.8811 C.3       6 GLY6        0.0000 
     49 CA        -48.7448  -58.0469    6.1550 C.3       6 GLY6        0.0000 
     50 NZ        -48.4127  -59.4838    6.4290 N.2       4 LYS4        0.0000 
     51 CZ        -49.4869  -56.9711    4.4842 C.ar      5 PHE5        0.0000 
     52 O         -47.8447  -59.7109   12.7635 O.2       2 ALA2        0.0000 
     53 O         -48.5868  -58.6350   11.0926 O.2       2 ALA2        0.0000 
     54 O         -48.9968  -58.9961    9.6956 O.2       2 ALA2        0.0000 
     55 DU        -48.6648  -60.4330    9.9695 H         7 CUB7        0.0000 
     56 O         -50.0709  -56.4833    7.7508 O.2       2 ALA2        0.0000 
     57 O         -49.4068  -59.3571    8.2986 O.2       2 ALA2        0.0000 
     58 NZ        -49.0748  -60.7941    8.5726 N.2       4 LYS4        0.0000 
     59 CA        -50.1489  -58.2813    6.6278 C.3       6 GLY6        0.0000 
     60 CA        -49.8169  -59.7182    6.9017 C.3       6 GLY6        0.0000 
     61 NZ        -49.4848  -61.1551    7.1756 N.2       4 LYS4        0.0000 
     62 CA        -50.5590  -58.6423    5.2308 C.3       6 GLY6        0.0000 
     63 CA        -50.2269  -60.0792    5.5047 C.3       6 GLY6        0.0000 
     64 OD1       -42.3061  -60.5714    9.7496 O.3       3 ASP3        0.0000 
     65 CA        -44.0443  -55.1848    7.2569 C.3       6 GLY6        0.0000 
     66 OD1       -42.7161  -60.9325    8.3526 O.3       3 ASP3        0.0000 
     67 CA        -44.4544  -55.5459    5.8600 C.3       6 GLY6        0.0000 
     68 OD1       -44.1223  -56.9828    6.1339 O.3       3 ASP3        0.0000 
     69 OD1       -43.7903  -58.4197    6.4078 O.3       3 ASP3        0.0000 
     70 OD1       -43.4582  -59.8566    6.6817 O.3       3 ASP3        0.0000 
     71 OD1       -43.1262  -61.2935    6.9556 O.3       3 ASP3        0.0000 
     72 CA        -44.8644  -55.9069    4.4630 C.3       6 GLY6        0.0000 
     73 OG        -44.5324  -57.3438    4.7369 O.2       1 SER1        0.0000 
     74 CA        -45.6065  -54.8311    2.7921 C.3       6 GLY6        0.0000 
     75 CZ        -45.2744  -56.2680    3.0660 C.ar      5 PHE5        0.0000 
     76 CA        -43.6323  -59.0078   11.3453 C.3       6 GLY6        0.0000 
     77 N         -43.3002  -60.4447   11.6192 N.2       2 ALA2        0.0000 
     78 CA        -44.0423  -59.3689    9.9484 C.3       6 GLY6        0.0000 
     79 OD1       -43.7103  -60.8058   10.2223 O.3       3 ASP3        0.0000 
     80 DU        -43.3782  -62.2427   10.4962 H         7 CUB7        0.0000 
     81 O         -45.7805  -53.9823    7.4557 O.2       2 ALA2        0.0000 
     82 CA        -45.4485  -55.4192    7.7296 C.3       6 GLY6        0.0000 
     83 OD1       -44.4523  -59.7299    8.5514 O.3       3 ASP3        0.0000 
     84 OD1       -44.1203  -61.1668    8.8253 O.3       3 ASP3        0.0000 
     85 DU        -43.7882  -62.6037    9.0992 H         7 CUB7        0.0000 
     86 CA        -46.1906  -54.3433    6.0588 C.3       6 GLY6        0.0000 
     87 DU        -45.8585  -55.7802    6.3327 H         7 CUB7        0.0000 
     88 CA        -45.5265  -57.2171    6.6066 C.3       6 GLY6        0.0000 
     89 OD1       -45.1944  -58.6541    6.8805 O.3       3 ASP3        0.0000 
     90 NZ        -44.8624  -60.0910    7.1544 N.2       4 LYS4        0.0000 
     91 NZ        -44.5303  -61.5279    7.4283 N.2       4 LYS4        0.0000 
     92 NZ        -44.1983  -62.9648    7.7022 N.2       4 LYS4        0.0000 
     93 CA        -46.6006  -54.7044    4.6618 C.3       6 GLY6        0.0000 
     94 DU        -46.2685  -56.1413    4.9357 H         7 CUB7        0.0000 
     95 CZ        -45.9365  -57.5782    5.2096 C.ar      5 PHE5        0.0000 
     96 NZ        -45.6044  -59.0151    5.4835 N.2       4 LYS4        0.0000 
     97 CZ        -47.0106  -55.0654    3.2648 C.ar      5 PHE5        0.0000 
     98 CZ        -46.6786  -56.5023    3.5387 C.ar      5 PHE5        0.0000 
     99 N         -43.0502  -55.3115    5.3873 N.2       2 ALA2        0.0000 
    100 OD1       -42.7182  -56.7484    5.6612 O.3       3 ASP3        0.0000 
    101 CA        -43.4603  -55.6726    3.9903 C.3       6 GLY6        0.0000 
    102 OG        -43.1282  -57.1095    4.2642 O.2       1 SER1        0.0000 
    103 OG        -42.7962  -58.5464    4.5381 O.2       1 SER1        0.0000 
    104 OG        -42.1321  -61.4202    5.0859 O.2       1 SER1        0.0000 
    105 CA        -44.2023  -54.5967    2.3194 C.3       6 GLY6        0.0000 
    106 CZ        -43.8703  -56.0336    2.5933 C.ar      5 PHE5        0.0000 
    107 CZ        -43.5382  -57.4705    2.8672 C.ar      5 PHE5        0.0000 
    108 OG        -44.6124  -54.9577    0.9224 O.2       1 SER1        0.0000 
    109 CZ        -44.2803  -56.3947    1.1964 C.ar      5 PHE5        0.0000 
    110 OD1       -45.0224  -55.3188   -0.4745 O.3       3 ASP3        0.0000 
    111 CZ        -44.6904  -56.7557   -0.2006 C.ar      5 PHE5        0.0000 
    112 OD1       -40.9820  -57.9510    5.4624 O.3       3 ASP3        0.0000 
    113 OD1       -40.6499  -59.3879    5.7363 O.3       3 ASP3        0.0000 
    114 CZ        -42.3882  -54.0013    3.2437 C.ar      5 PHE5        0.0000 
    115 N         -42.0561  -55.4382    3.5176 N.2       2 ALA2        0.0000 
    116 N         -41.7241  -56.8751    3.7915 N.2       2 ALA2        0.0000 
    117 OG        -41.3920  -58.3120    4.0654 O.2       1 SER1        0.0000 
    118 OG        -41.0600  -59.7489    4.3393 O.2       1 SER1        0.0000 
    119 CZ        -42.7982  -54.3623    1.8467 C.ar      5 PHE5        0.0000 
    120 DU        -42.4661  -55.7992    2.1206 H         7 CUB7        0.0000 
    121 OG        -42.1341  -57.2362    2.3945 O.2       1 SER1        0.0000 
    122 OG        -41.8021  -58.6731    2.6684 O.2       1 SER1        0.0000 
    123 OG        -41.4700  -60.1100    2.9424 O.2       1 SER1        0.0000 
    124 N         -41.1380  -61.5469    3.2163 N.2       2 ALA2        0.0000 
    125 CZ        -43.5403  -53.2865    0.1758 C.ar      5 PHE5        0.0000 
    126 O         -43.2082  -54.7234    0.4497 O.2       2 ALA2        0.0000 
    127 O         -42.8762  -56.1603    0.7236 O.2       2 ALA2        0.0000 
    128 CZ        -42.5441  -57.5972    0.9976 C.ar      5 PHE5        0.0000 
    129 O         -43.6183  -55.0844   -0.9472 O.2       2 ALA2        0.0000 
    130 O         -43.2862  -56.5213   -0.6733 O.2       2 ALA2        0.0000 
    131 CA        -40.9840  -53.7669    2.7710 C.3       6 GLY6        0.0000 
    132 N         -40.6520  -55.2038    3.0449 N.2       2 ALA2        0.0000 
    133 NZ        -40.3199  -56.6407    3.3188 N.2       4 LYS4        0.0000 
    134 NZ        -39.9879  -58.0777    3.5927 N.2       4 LYS4        0.0000 
    135 NZ        -39.6558  -59.5146    3.8666 N.2       4 LYS4        0.0000 
    136 CZ        -41.3940  -54.1280    1.3740 C.ar      5 PHE5        0.0000 
    137 O         -41.0620  -55.5649    1.6479 O.2       2 ALA2        0.0000 
    138 OG        -40.7300  -57.0018    1.9218 O.2       1 SER1        0.0000 
    139 OG        -40.3979  -58.4387    2.1957 O.2       1 SER1        0.0000 
    140 OG        -40.0659  -59.8756    2.4696 O.2       1 SER1        0.0000 
    141 N         -39.7338  -61.3125    2.7436 N.2       2 ALA2        0.0000 
    142 O         -41.8041  -54.4890   -0.0230 O.2       2 ALA2        0.0000 
    143 N         -39.2478  -54.9695    2.5722 N.2       2 ALA2        0.0000 
    144 NZ        -38.9158  -56.4064    2.8461 N.2       4 LYS4        0.0000 
    145 CZ        -39.6579  -55.3305    1.1752 C.ar      5 PHE5        0.0000 
    146 OG        -39.3258  -56.7674    1.4491 O.2       1 SER1        0.0000 
@<TRIPOS>BOND
@<TRIPOS>SUBSTRUCTURE
     1 SER1       73 GROUP   
     2 ALA2        1 GROUP   
     3 ASP3       64 GROUP   
     4 LYS4       18 GROUP   
     5 PHE5       28 GROUP   
     6 GLY6        3 GROUP   
     7 CUB7        8 GROUP   
@<TRIPOS>SET

