#    Name: 2wwj_Y28_2_INTS_M
#    Modification time : Tue Mar 25 04:46:49 2014

@<TRIPOS>MOLECULE
2wwj_Y28_2_INTS_M
   40     0     9     0     0
SMALL
NO_CHARGES


@<TRIPOS>ATOM
      1 CA        -46.2540  -56.0330    9.7540 C.3       3 GLC5        0.0000 
      2 CA        -47.7060  -57.0240    8.9800 C.3       9 GLL5        0.0000 
      3 CA        -44.8020  -55.0420   10.5280 C.3       6 GLP5        0.0000 
      4 CA        -44.9050  -57.6685    2.4740 C.3       3 GLC5        0.0000 
      5 CA        -43.7840  -56.2750    2.8450 C.3       9 GLL5        0.0000 
      6 CA        -46.0260  -59.0620    2.1030 C.3       6 GLP5        0.0000 
      7 CA        -43.9305  -53.3510    2.3650 C.3       3 GLC5        0.0000 
      8 CA        -43.4230  -55.0980    1.8720 C.3       9 GLL5        0.0000 
      9 CA        -44.4380  -51.6040    2.8580 C.3       6 GLP5        0.0000 
     10 NZ        -45.5715  -54.1395   -0.6030 N.4       2 LYC4        0.0000 
     11 NZ        -45.6330  -54.5750    1.1490 N.4       8 LYL4        0.0000 
     12 NZ        -45.5100  -53.7040   -2.3550 N.4       5 LYP4        0.0000 
     13 NZ        -44.8255  -54.3235   -1.3725 N.4       2 LYC4        0.0000 
     14 NZ        -44.1410  -54.9430   -0.3900 N.4       8 LYL4        0.0000 
     15 N         -42.7630  -55.3620   -1.2565 N.am      1 SEC2        0.0000 
     16 N         -44.1410  -54.9430   -0.3900 N.am      7 SEL2        0.0000 
     17 N         -41.3850  -55.7810   -2.1230 N.am      4 SEP2        0.0000 
     18 N         -44.8255  -54.3235   -1.3725 N.am      1 SEC2        0.0000 
     19 N         -45.5100  -53.7040   -2.3550 N.am      4 SEP2        0.0000 
     20 N         -39.7425  -53.9450    3.7330 N.am      1 SEC2        0.0000 
     21 N         -41.1540  -54.7640    3.1890 N.am      7 SEL2        0.0000 
     22 N         -38.3310  -53.1260    4.2770 N.am      4 SEP2        0.0000 
     23 N         -40.4365  -55.8675   -0.9245 N.am      1 SEC2        0.0000 
     24 N         -39.4880  -55.9540    0.2740 N.am      7 SEL2        0.0000 
     25 N         -37.2205  -55.7515    2.0185 N.am      1 SEC2        0.0000 
     26 N         -38.6400  -55.2800    2.2430 N.am      7 SEL2        0.0000 
     27 N         -35.8010  -56.2230    1.7940 N.am      4 SEP2        0.0000 
     28 N         -38.4855  -54.2030    3.2600 N.am      1 SEC2        0.0000 
     29 CA        -50.7907  -57.7360    6.7630 C.3       3 GLC5        0.0000 
     30 CA        -48.9980  -57.5620    7.0240 C.3       9 GLL5        0.0000 
     31 CA        -52.5830  -57.2360    6.3140 C.3       6 GLP5        0.0000 
     32 CA        -45.8748  -53.7703    4.7740 C.3       3 GLC5        0.0000 
     33 CA        -46.8210  -55.3610    5.0450 C.3       9 GLL5        0.0000 
     34 CA        -45.2100  -52.3860    3.8980 C.3       6 GLP5        0.0000 
     35 CA        -44.8217  -53.7848    4.8565 C.3       3 GLC5        0.0000 
     36 CA        -44.0210  -55.3910    5.2800 C.3       9 GLL5        0.0000 
     37 CA        -43.8752  -55.9507    7.5935 C.3       3 GLC5        0.0000 
     38 CA        -43.3170  -56.7180    9.3720 C.3       6 GLP5        0.0000 
     39 CA        -44.8777  -54.2076    3.6666 C.3       3 GLC5        0.0000 
     40 CA        -46.0050  -55.7720    3.9800 C.3       9 GLL5        0.0000 
@<TRIPOS>BOND
@<TRIPOS>SUBSTRUCTURE
     1 SEC2       15 GROUP        1 X    SEC  0     ROOT SEC X 2
     2 LYC4       10 GROUP        1 X    LYC  0     **** LYC X 4
     3 GLC5        1 GROUP        1 X    GLC  0     **** GLC X 6
     4 SEP2       17 GROUP        1 Y    SEP  0     ROOT SEP Y 9
     5 LYP4       12 GROUP        1 Y    LYP  0     **** LYP Y 11
     6 GLP5        3 GROUP        1 Y    GLP  0     **** GLP Y 13
     7 SEL2       16 GROUP        1 Z    SEL  0     ROOT SEL Z 16
     8 LYL4       11 GROUP        1 Z    LYL  0     **** LYL Z 18
     9 GLL5        2 GROUP        1 Z    GLL  0     **** GLL Z 20
@<TRIPOS>SET

