#    Name: 2wwj_Y28_2_ligand
#    Modification time : Tue Mar 25 04:46:49 2014

@<TRIPOS>MOLECULE
2wwj_Y28_2_ligand
   40    41     1     0     0
SMALL
NO_CHARGES


@<TRIPOS>ATOM
      1 CAD       -48.9980  -57.5620    7.0240 C.ar      1 Y281354     0.0000 
      2 CAF       -48.9990  -58.9100    7.4000 C.ar      1 Y281354     0.0000 
      3 CAH       -48.3570  -59.3260    8.5710 C.ar      1 Y281354     0.0000 
      4 CAG       -47.7070  -58.3760    9.3600 C.ar      1 Y281354     0.0000 
      5 CAE       -47.7060  -57.0240    8.9800 C.ar      1 Y281354     0.0000 
      6 CAB       -48.3470  -56.6110    7.8080 C.ar      1 Y281354     0.0000 
      7 CAC       -48.3470  -55.2580    7.4110 C.3       1 Y281354     0.0000 
      8 OH        -47.0860  -54.5150    7.2960 O.3       1 Y281354     0.0000 
      9 CZ        -46.2580  -54.9480    6.2550 C.ar      1 Y281354     0.0000 
     10 CE2       -46.8210  -55.3610    5.0450 C.ar      1 Y281354     0.0000 
     11 CD2       -46.0050  -55.7720    3.9800 C.ar      1 Y281354     0.0000 
     12 CE1       -44.8460  -54.9760    6.3500 C.ar      1 Y281354     0.0000 
     13 CD1       -44.0210  -55.3910    5.2800 C.ar      1 Y281354     0.0000 
     14 CG        -44.6090  -55.7950    4.0710 C.ar      1 Y281354     0.0000 
     15 CB        -43.7840  -56.2750    2.8450 C.3       1 Y281354     0.0000 
     16 CA        -43.4230  -55.0980    1.8720 C.3       1 Y281354     0.0000 
     17 C         -44.4840  -54.8630    0.7860 C.2       1 Y281354     0.0000 
     18 OXT       -45.6330  -54.5750    1.1490 O.co2     1 Y281354     0.0000 
     19 O         -44.1410  -54.9430   -0.3900 O.co2     1 Y281354     0.0000 
     20 N         -42.1090  -55.3720    1.2700 N.am      1 Y281354     0.0000 
     21 CAR       -41.0390  -55.2110    2.0390 C.2       1 Y281354     0.0000 
     22 OAW       -41.1540  -54.7640    3.1890 O.2       1 Y281354     0.0000 
     23 CAS       -39.6080  -55.5130    1.4670 C.2       1 Y281354     0.0000 
     24 OAY       -39.4880  -55.9540    0.2740 O.co2     1 Y281354     0.0000 
     25 OAX       -38.6400  -55.2800    2.2430 O.co2     1 Y281354     0.0000 
     26 H         -49.4818  -57.2734    6.1626 H         1 Y281354     0.0000 
     27 H         -49.4782  -59.6037    6.8073 H         1 Y281354     0.0000 
     28 H         -48.3646  -60.3081    8.8426 H         1 Y281354     0.0000 
     29 H         -47.2272  -58.6622   10.2211 H         1 Y281354     0.0000 
     30 H         -47.2272  -56.3313    9.5728 H         1 Y281354     0.0000 
     31 H         -49.0403  -54.6529    8.1030 H         1 Y281354     0.0000 
     32 H         -48.9018  -55.1502    6.4079 H         1 Y281354     0.0000 
     33 H         -47.8443  -55.3648    4.9308 H         1 Y281354     0.0000 
     34 H         -46.4566  -56.0705    3.0900 H         1 Y281354     0.0000 
     35 H         -44.4002  -54.6803    7.2398 H         1 Y281354     0.0000 
     36 H         -43.0084  -55.3954    5.3895 H         1 Y281354     0.0000 
     37 H         -44.3607  -57.0148    2.2941 H         1 Y281354     0.0000 
     38 H         -42.8601  -56.7319    3.1931 H         1 Y281354     0.0000 
     39 H         -43.3527  -54.1948    2.4840 H         1 Y281354     0.0000 
     40 H         -42.0935  -55.6674    0.3050 H         1 Y281354     0.0000 
@<TRIPOS>BOND
     1    2    1 ar   
     2    6    1 ar   
     3   26    1 1    
     4    3    2 ar   
     5   27    2 1    
     6    4    3 ar   
     7   28    3 1    
     8    5    4 ar   
     9   29    4 1    
    10    6    5 ar   
    11   30    5 1    
    12    7    6 1    
    13    8    7 1    
    14   31    7 1    
    15   32    7 1    
    16    9    8 1    
    17   10    9 ar   
    18   12    9 ar   
    19   11   10 ar   
    20   33   10 1    
    21   14   11 ar   
    22   34   11 1    
    23   13   12 ar   
    24   35   12 1    
    25   14   13 ar   
    26   36   13 1    
    27   15   14 1    
    28   16   15 1    
    29   37   15 1    
    30   38   15 1    
    31   17   16 1    
    32   20   16 1    
    33   39   16 1    
    34   18   17 ar   
    35   19   17 ar   
    36   21   20 am   
    37   40   20 1    
    38   22   21 2    
    39   23   21 1    
    40   24   23 ar   
    41   25   23 ar   
@<TRIPOS>SUBSTRUCTURE
     1 Y281354     1 GROUP   
@<TRIPOS>SET

