#    Name: 3ZJ6_1_CAVITY_N1_6.mol2
#    Modification time : Tue Mar 11 14:48:29 2014

@<TRIPOS>MOLECULE
3ZJ6_1_CAVITY_N1_6.mol2
   97     0     6     0     0
SMALL
NO_CHARGES


@<TRIPOS>ATOM
      1 CZ         20.5452   22.0017   44.8876 C.ar      4 PHE5        0.0000 
      2 N          22.2313   24.1537   41.0113 N.2       2 ALA2        0.0000 
      3 N          21.3508   23.3555   41.9265 N.2       2 ALA2        0.0000 
      4 N          20.4703   22.5574   42.8417 N.2       2 ALA2        0.0000 
      5 CA         21.2759   23.9113   39.8806 C.3       5 GLY6        0.0000 
      6 DU         20.3953   23.1131   40.7958 H         6 CUB7        0.0000 
      7 CZ         19.5148   22.3150   41.7111 C.ar      4 PHE5        0.0000 
      8 CZ         18.6343   21.5169   42.6263 C.ar      4 PHE5        0.0000 
      9 CZ         20.3204   23.6689   38.7500 C.ar      4 PHE5        0.0000 
     10 CZ         19.4399   22.8707   39.6652 C.ar      4 PHE5        0.0000 
     11 DU         18.5593   22.0726   40.5804 H         6 CUB7        0.0000 
     12 N          17.6788   21.2745   41.4957 N.2       2 ALA2        0.0000 
     13 CZ         18.4844   22.6283   38.5346 C.ar      4 PHE5        0.0000 
     14 DU         17.6039   21.8302   39.4498 H         6 CUB7        0.0000 
     15 N          16.7233   21.0321   40.3650 N.2       2 ALA2        0.0000 
     16 N          22.8498   20.8622   41.1943 N.2       2 ALA2        0.0000 
     17 CA         21.9693   20.0640   42.1095 C.3       5 GLY6        0.0000 
     18 N          21.8943   20.6198   40.0637 N.2       2 ALA2        0.0000 
     19 CZ         21.0138   19.8216   40.9789 C.ar      4 PHE5        0.0000 
     20 CZ         21.8194   21.1755   38.0178 C.ar      4 PHE5        0.0000 
     21 DU         20.9389   20.3774   38.9330 H         6 CUB7        0.0000 
     22 OG         20.0583   19.5792   39.8482 O.2       1 SER1        0.0000 
     23 CZ         20.8640   20.9331   36.8872 C.ar      4 PHE5        0.0000 
     24 NZ         19.9834   20.1350   37.8024 N.2       3 LYS4        0.0000 
     25 OG         19.1029   19.3368   38.7176 O.2       1 SER1        0.0000 
     26 NZ         19.0280   19.8926   36.6717 N.2       3 LYS4        0.0000 
     27 NZ         18.1474   19.0944   37.5870 N.2       3 LYS4        0.0000 
     28 CZ         18.9530   20.4483   34.6259 C.ar      4 PHE5        0.0000 
     29 NZ         18.0725   19.6502   35.5411 N.2       3 LYS4        0.0000 
     30 NZ         17.1920   18.8520   36.4563 N.2       3 LYS4        0.0000 
     31 OG         17.9976   20.2059   33.4953 O.2       1 SER1        0.0000 
     32 NZ         17.1170   19.4078   34.4105 N.2       3 LYS4        0.0000 
     33 CZ         16.2365   18.6096   35.3257 C.ar      4 PHE5        0.0000 
     34 O          17.0421   19.9635   32.3646 O.2       2 ALA2        0.0000 
     35 NZ         16.1616   19.1654   33.2798 N.2       3 LYS4        0.0000 
     36 CZ         18.2035   21.6950   34.9920 C.ar      4 PHE5        0.0000 
     37 NZ         17.3230   20.8968   35.9072 N.2       3 LYS4        0.0000 
     38 OG         16.4425   20.0987   36.8224 O.2       1 SER1        0.0000 
     39 NZ         17.2481   21.4526   33.8614 N.2       3 LYS4        0.0000 
     40 NZ         16.3675   20.6544   34.7766 N.2       3 LYS4        0.0000 
     41 NZ         15.4870   19.8563   35.6918 N.2       3 LYS4        0.0000 
     42 NZ         18.6160   16.9144   33.6783 N.2       3 LYS4        0.0000 
     43 CA         22.9808   22.9070   40.6452 C.3       5 GLY6        0.0000 
     44 N          22.1003   22.1089   41.5604 N.2       2 ALA2        0.0000 
     45 CZ         21.2198   21.3107   42.4756 C.ar      4 PHE5        0.0000 
     46 N          22.0254   22.6646   39.5145 N.2       2 ALA2        0.0000 
     47 DU         21.1448   21.8665   40.4298 H         6 CUB7        0.0000 
     48 CZ         20.2643   21.0683   41.3450 C.ar      4 PHE5        0.0000 
     49 CZ         21.0699   22.4222   38.3839 C.ar      4 PHE5        0.0000 
     50 DU         20.1894   21.6241   39.2991 H         6 CUB7        0.0000 
     51 CZ         19.3088   20.8259   40.2143 C.ar      4 PHE5        0.0000 
     52 CZ         18.4283   20.0278   41.1296 C.ar      4 PHE5        0.0000 
     53 CZ         20.1144   22.1798   37.2533 C.ar      4 PHE5        0.0000 
     54 DU         19.2339   21.3817   38.1685 H         6 CUB7        0.0000 
     55 DU         18.3534   20.5835   39.0837 H         6 CUB7        0.0000 
     56 CA         17.4729   19.7854   39.9989 C.3       5 GLY6        0.0000 
     57 CZ         19.1590   21.9374   36.1226 C.ar      4 PHE5        0.0000 
     58 DU         18.2785   21.1393   37.0378 H         6 CUB7        0.0000 
     59 CA         17.3979   20.3411   37.9531 C.3       5 GLY6        0.0000 
     60 CA         16.5174   19.5430   38.8683 C.3       5 GLY6        0.0000 
     61 CZ         19.7769   26.4046   40.6128 C.ar      4 PHE5        0.0000 
     62 CZ         18.8963   25.6065   41.5280 C.ar      4 PHE5        0.0000 
     63 DU         18.0158   24.8084   42.4433 H         6 CUB7        0.0000 
     64 CZ         17.0603   24.5660   41.3126 C.ar      4 PHE5        0.0000 
     65 CZ         16.1049   24.3236   40.1820 C.ar      4 PHE5        0.0000 
     66 CZ         15.1494   24.0812   39.0514 C.ar      4 PHE5        0.0000 
     67 NZ         19.7025   19.2016   34.2598 N.2       3 LYS4        0.0000 
     68 NZ         18.8220   18.4035   35.1750 N.2       3 LYS4        0.0000 
     69 NZ         18.7471   18.9592   33.1292 N.2       3 LYS4        0.0000 
     70 NZ         17.8665   18.1611   34.0444 N.2       3 LYS4        0.0000 
     71 CZ         16.9860   17.3629   34.9596 C.ar      4 PHE5        0.0000 
     72 CZ         17.7916   18.7168   31.9985 C.ar      4 PHE5        0.0000 
     73 O          16.9111   17.9187   32.9137 O.2       2 ALA2        0.0000 
     74 CZ         18.6904   24.1174   40.0313 C.ar      4 PHE5        0.0000 
     75 DU         17.8098   23.3193   40.9465 H         6 CUB7        0.0000 
     76 N          16.9293   22.5211   41.8618 N.2       2 ALA2        0.0000 
     77 CZ         17.7349   23.8750   38.9007 C.ar      4 PHE5        0.0000 
     78 DU         16.8544   23.0769   39.8159 H         6 CUB7        0.0000 
     79 N          15.9738   22.2787   40.7311 N.2       2 ALA2        0.0000 
     80 CZ         15.8989   22.8345   38.6853 C.ar      4 PHE5        0.0000 
     81 OG         15.0184   22.0363   39.6005 O.2       1 SER1        0.0000 
     82 OG         14.9435   22.5921   37.5546 O.2       1 SER1        0.0000 
     83 CZ         17.5290   22.3859   37.4039 C.ar      4 PHE5        0.0000 
     84 OG         16.6484   21.5878   38.3192 O.2       1 SER1        0.0000 
     85 OG         15.7679   20.7897   39.2344 O.2       1 SER1        0.0000 
     86 CZ         17.4540   22.9417   35.3581 C.ar      4 PHE5        0.0000 
     87 NZ         16.5735   22.1435   36.2733 N.2       3 LYS4        0.0000 
     88 OG         15.6930   21.3454   37.1885 O.2       1 SER1        0.0000 
     89 N          19.8518   25.8489   42.6587 N.2       2 ALA2        0.0000 
     90 N          18.9713   25.0508   43.5739 N.2       2 ALA2        0.0000 
     91 N          21.4818   25.4004   41.3774 N.2       2 ALA2        0.0000 
     92 N          20.6013   24.6022   42.2926 N.2       2 ALA2        0.0000 
     93 N          19.7208   23.8041   43.2078 N.2       2 ALA2        0.0000 
     94 CA         20.5264   25.1580   40.2467 C.3       5 GLY6        0.0000 
     95 CZ         19.6458   24.3598   41.1619 C.ar      4 PHE5        0.0000 
     96 DU         18.7653   23.5617   42.0772 H         6 CUB7        0.0000 
     97 N          17.8848   22.7635   42.9924 N.2       2 ALA2        0.0000 
@<TRIPOS>BOND
@<TRIPOS>SUBSTRUCTURE
     1 SER1       22 GROUP   
     2 ALA2        2 GROUP   
     3 LYS4       24 GROUP   
     4 PHE5        1 GROUP   
     5 GLY6        5 GROUP   
     6 CUB7        6 GROUP   
@<TRIPOS>SET

