#    Name: 3zj6_VM2_1_INTS_M
#    Modification time : Tue Mar 25 03:27:56 2014

@<TRIPOS>MOLECULE
3zj6_VM2_1_INTS_M
   66     0    12     0     0
SMALL
NO_CHARGES


@<TRIPOS>ATOM
      1 CA         14.9010   18.4100   33.6090 C.3       4 GLC5        0.0000 
      2 CA         16.8100   18.8380   32.9350 C.3      12 GLL5        0.0000 
      3 CA         12.9920   17.9820   34.2830 C.3       8 GLP5        0.0000 
      4 CA         18.0465   19.2205   31.2005 C.3       4 GLC5        0.0000 
      5 CA         18.1090   19.5830   33.2700 C.3      12 GLL5        0.0000 
      6 CA         17.9840   18.8580   29.1310 C.3       8 GLP5        0.0000 
      7 CA         18.4695   20.9510   31.4670 C.3       4 GLC5        0.0000 
      8 CA         17.8980   21.0840   33.6120 C.3      12 GLL5        0.0000 
      9 CA         19.0410   20.8180   29.3220 C.3       8 GLP5        0.0000 
     10 CA         17.7935   22.9890   32.8300 C.3       4 GLC5        0.0000 
     11 CA         17.6890   24.8940   32.0480 C.3       8 GLP5        0.0000 
     12 N          19.3470   14.8235   34.1045 N.am      2 SEC2        0.0000 
     13 N          19.2280   16.3150   33.8550 N.am     10 SEL2        0.0000 
     14 N          19.4660   13.3320   34.3540 N.am      6 SEP2        0.0000 
     15 O          20.1565   17.1450   33.0830 O.2       1 ALC1        0.0000 
     16 O          19.2280   16.3150   33.8550 O.2       9 ALL1        0.0000 
     17 O          21.0850   17.9750   32.3110 O.2       5 ALP1        0.0000 
     18 O          20.0865   16.1040   32.7680 O.2       1 ALC1        0.0000 
     19 O          20.9450   15.8930   31.6810 O.2       5 ALP1        0.0000 
     20 N          16.7180   15.0860   32.6645 N.am      2 SEC2        0.0000 
     21 N          16.2800   16.4700   32.7050 N.am     10 SEL2        0.0000 
     22 N          17.1560   13.7020   32.6240 N.am      6 SEP2        0.0000 
     23 N          14.9705   16.7065   33.1860 N.am      2 SEC2        0.0000 
     24 N          13.6610   16.9430   33.6670 N.am      6 SEP2        0.0000 
     25 O          15.5285   16.1770   31.6140 O.2       1 ALC1        0.0000 
     26 O          16.2800   16.4700   32.7050 O.2       9 ALL1        0.0000 
     27 O          14.7770   15.8840   30.5230 O.2       5 ALP1        0.0000 
     28 N          14.9255   18.6090   31.1970 N.am      2 SEC2        0.0000 
     29 N          16.0930   19.3330   31.7920 N.am     10 SEL2        0.0000 
     30 N          13.7580   17.8850   30.6020 N.am      6 SEP2        0.0000 
     31 O          15.1300   20.2490   31.8130 O.2       1 ALC1        0.0000 
     32 O          16.0930   19.3330   31.7920 O.2       9 ALL1        0.0000 
     33 O          14.1670   21.1650   31.8340 O.2       5 ALP1        0.0000 
     34 O          15.5505   21.5325   34.2660 O.2       1 ALC1        0.0000 
     35 O          16.8230   21.2260   34.5760 O.2       9 ALL1        0.0000 
     36 O          14.2780   21.8390   33.9560 O.2       5 ALP1        0.0000 
     37 CA         20.4205   19.9145   34.1870 C.3       4 GLC5        0.0000 
     38 CA         18.7760   18.6840   34.3470 C.3      12 GLL5        0.0000 
     39 CA         22.0650   21.1450   34.0270 C.3       8 GLP5        0.0000 
     40 OD1        19.0220   17.8925   36.5000 O.co2     3 ASC3        0.0000 
     41 OD1        18.5900   19.0920   35.7650 O.co2    11 ASL3        0.0000 
     42 OD1        19.4540   16.6930   37.2350 O.co2     7 ASP3        0.0000 
     43 OD1        19.9280   18.1480   35.8925 O.co2     3 ASC3        0.0000 
     44 OD1        21.2660   17.2040   36.0200 O.co2     7 ASP3        0.0000 
     45 CA         20.5190   20.7955   35.1290 C.3       4 GLC5        0.0000 
     46 CA         18.9730   20.4460   36.2310 C.3      12 GLL5        0.0000 
     47 CA         20.9352   21.7627   36.3877 C.3       4 GLC5        0.0000 
     48 CA         19.3040   20.6390   37.7200 C.3      12 GLL5        0.0000 
     49 CA         22.4740   22.1280   34.9180 C.3       8 GLP5        0.0000 
     50 CA         17.2950   18.6230   39.6020 C.3       4 GLC5        0.0000 
     51 CA         18.2550   19.9370   38.6140 C.3      12 GLL5        0.0000 
     52 CA         16.5350   16.9900   39.9210 C.3       8 GLP5        0.0000 
     53 CA         18.8860   19.9917   41.6265 C.3       4 GLC5        0.0000 
     54 CA         17.8550   20.5750   39.9520 C.3      12 GLL5        0.0000 
     55 CA         19.5290   18.7720   43.1000 C.3       8 GLP5        0.0000 
     56 CA         19.0733   24.0260   37.9098 C.3       4 GLC5        0.0000 
     57 CA         18.6400   22.7640   39.1400 C.3      12 GLL5        0.0000 
     58 CA         19.0820   25.5920   37.2520 C.3       8 GLP5        0.0000 
     59 CA         16.7327   16.5862   35.0423 C.3       4 GLC5        0.0000 
     60 CA         18.2080   17.2850   34.0690 C.3      12 GLL5        0.0000 
     61 CA         15.6900   15.8160   36.6460 C.3       8 GLP5        0.0000 
     62 CA         17.0667   17.9710   30.9997 C.3       4 GLC5        0.0000 
     63 CA         17.3430   17.4280   32.8080 C.3      12 GLL5        0.0000 
     64 CA         17.0570   17.8090   29.1280 C.3       8 GLP5        0.0000 
     65 CA         19.7707   20.9318   33.1065 C.3       4 GLC5        0.0000 
     66 CA         21.5380   21.5300   32.7720 C.3       8 GLP5        0.0000 
@<TRIPOS>BOND
@<TRIPOS>SUBSTRUCTURE
     1 ALC1       15 GROUP        1 X    ALC  0     ROOT ALC X 1
     2 SEC2       12 GROUP        1 X    SEC  0     **** SEC X 2
     3 ASC3       40 GROUP        1 X    ASC  0     **** ASC X 3
     4 GLC5        1 GROUP        1 X    GLC  0     **** GLC X 6
     5 ALP1       17 GROUP        1 Y    ALP  0     ROOT ALP Y 8
     6 SEP2       14 GROUP        1 Y    SEP  0     **** SEP Y 9
     7 ASP3       42 GROUP        1 Y    ASP  0     **** ASP Y 10
     8 GLP5        3 GROUP        1 Y    GLP  0     **** GLP Y 13
     9 ALL1       16 GROUP        1 Z    ALL  0     ROOT ALL Z 15
    10 SEL2       13 GROUP        1 Z    SEL  0     **** SEL Z 16
    11 ASL3       41 GROUP        1 Z    ASL  0     **** ASL Z 17
    12 GLL5        2 GROUP        1 Z    GLL  0     **** GLL Z 20
@<TRIPOS>SET

