#    Name: 3zj6_VM2_1_ligand
#    Modification time : Tue Mar 25 03:27:57 2014

@<TRIPOS>MOLECULE
3zj6_VM2_1_ligand
   42    43     1     0     0
SMALL
NO_CHARGES


@<TRIPOS>ATOM
      1 C1         19.3040   20.6390   37.7200 C.3       1 VM21516     0.0000 
      2 C2         18.2550   19.9370   38.6140 C.3       1 VM21516     0.0000 
      3 C3         17.8550   20.5750   39.9520 C.3       1 VM21516     0.0000 
      4 C4         18.6310   21.8480   40.3540 C.3       1 VM21516     0.0000 
      5 C5         18.6400   22.7640   39.1400 C.3       1 VM21516     0.0000 
      6 C6         19.4890   22.1560   37.9950 C.3       1 VM21516     0.0000 
      7 C2B        18.2080   17.2850   34.0690 C.3       1 VM21516     0.0000 
      8 C3B        17.3430   17.4280   32.8080 C.3       1 VM21516     0.0000 
      9 C4B        16.8100   18.8380   32.9350 C.3       1 VM21516     0.0000 
     10 C5B        18.1090   19.5830   33.2700 C.3       1 VM21516     0.0000 
     11 C6B        17.8980   21.0840   33.6120 C.3       1 VM21516     0.0000 
     12 O2B        19.2280   16.3150   33.8550 O.3       1 VM21516     0.0000 
     13 O3B        16.2800   16.4700   32.7050 O.3       1 VM21516     0.0000 
     14 O4B        16.0930   19.3330   31.7920 O.3       1 VM21516     0.0000 
     15 O6B        16.8230   21.2260   34.5760 O.3       1 VM21516     0.0000 
     16 CAR        18.7760   18.6840   34.3470 C.3       1 VM21516     0.0000 
     17 N2B        18.5900   19.0920   35.7650 N.4       1 VM21516     0.0000 
     18 C7B        18.9730   20.4460   36.2310 C.3       1 VM21516     0.0000 
     19 H          20.2778   20.1547   37.8914 H         1 VM21516     0.0000 
     20 H          18.6173   18.8913   38.8154 H         1 VM21516     0.0000 
     21 H          17.3236   19.7876   38.0012 H         1 VM21516     0.0000 
     22 H          17.9768   19.8217   40.7568 H         1 VM21516     0.0000 
     23 H          16.7736   20.8190   39.9215 H         1 VM21516     0.0000 
     24 H          19.6341   21.5783   40.6178 H         1 VM21516     0.0000 
     25 H          18.1245   22.3244   41.1696 H         1 VM21516     0.0000 
     26 H          19.0621   23.7291   39.4104 H         1 VM21516     0.0000 
     27 H          17.6239   22.9078   38.7801 H         1 VM21516     0.0000 
     28 H          19.2669   22.7104   37.0598 H         1 VM21516     0.0000 
     29 H          20.5606   22.3435   38.2139 H         1 VM21516     0.0000 
     30 H          17.5510   17.0283   34.8790 H         1 VM21516     0.0000 
     31 H          18.0091   17.4150   31.9616 H         1 VM21516     0.0000 
     32 H          16.2164   18.8573   33.8533 H         1 VM21516     0.0000 
     33 H          18.7413   19.5037   32.3665 H         1 VM21516     0.0000 
     34 H          17.6729   21.6043   32.6792 H         1 VM21516     0.0000 
     35 H          18.8423   21.4670   34.0034 H         1 VM21516     0.0000 
     36 H          19.8413   18.6311   34.0923 H         1 VM21516     0.0000 
     37 H          19.8594   20.8105   35.6394 H         1 VM21516     0.0000 
     38 H          18.1578   21.1781   35.9701 H         1 VM21516     0.0000 
     39 H          19.6610   16.5807   32.9937 H         1 VM21516     0.0000 
     40 H          15.9702   16.5284   31.7560 H         1 VM21516     0.0000 
     41 H          15.4355   19.9887   32.1631 H         1 VM21516     0.0000 
     42 H          16.0140   21.4458   34.0308 H         1 VM21516     0.0000 
@<TRIPOS>BOND
     1    2    1 1    
     2    6    1 1    
     3   18    1 1    
     4   19    1 1    
     5    3    2 1    
     6   20    2 1    
     7   21    2 1    
     8    4    3 1    
     9   22    3 1    
    10   23    3 1    
    11    5    4 1    
    12   24    4 1    
    13   25    4 1    
    14    6    5 1    
    15   26    5 1    
    16   27    5 1    
    17   28    6 1    
    18   29    6 1    
    19    8    7 1    
    20   12    7 1    
    21   16    7 1    
    22   30    7 1    
    23    9    8 1    
    24   13    8 1    
    25   31    8 1    
    26   10    9 1    
    27   14    9 1    
    28   32    9 1    
    29   11   10 1    
    30   16   10 1    
    31   33   10 1    
    32   15   11 1    
    33   34   11 1    
    34   35   11 1    
    35   39   12 1    
    36   40   13 1    
    37   41   14 1    
    38   42   15 1    
    39   17   16 1    
    40   36   16 1    
    41   18   17 1    
    42   37   18 1    
    43   38   18 1    
@<TRIPOS>SUBSTRUCTURE
     1 VM21516     1 GROUP   
@<TRIPOS>SET

