#    Name: 4imp_NDP_2_INTS_M
#    Modification time : Tue Mar 25 04:10:53 2014

@<TRIPOS>MOLECULE
4imp_NDP_2_INTS_M
  106     0    12     0     0
SMALL
NO_CHARGES


@<TRIPOS>ATOM
      1 N         -41.5900  -64.6890   59.8515 N.am      2 SEC2        0.0000 
      2 N         -41.3600  -65.1770   61.1700 N.am     10 SEL2        0.0000 
      3 N         -41.8200  -64.2010   58.5330 N.am      6 SEP2        0.0000 
      4 CA        -39.3375  -68.7625   62.7960 C.3       4 GLC5        0.0000 
      5 CA        -41.2180  -68.8440   61.6590 C.3      12 GLL5        0.0000 
      6 CA        -37.4570  -68.6810   63.9330 C.3       8 GLP5        0.0000 
      7 CA        -42.9115  -70.5350   59.7075 C.3       4 GLC5        0.0000 
      8 CA        -42.4990  -69.5590   61.2990 C.3      12 GLL5        0.0000 
      9 CA        -43.3240  -71.5110   58.1160 C.3       8 GLP5        0.0000 
     10 CA        -42.9405  -67.7785   60.0925 C.3       4 GLC5        0.0000 
     11 CA        -43.3820  -65.9980   58.8860 C.3       8 GLP5        0.0000 
     12 CA        -43.4880  -71.4895   59.9795 C.3       4 GLC5        0.0000 
     13 CA        -43.6520  -71.4680   61.8430 C.3      12 GLL5        0.0000 
     14 CA        -42.4795  -72.9840   61.0410 C.3       4 GLC5        0.0000 
     15 CA        -41.3070  -74.5000   60.2390 C.3       8 GLP5        0.0000 
     16 CA        -43.4565  -77.1050   62.1920 C.3       4 GLC5        0.0000 
     17 CA        -44.3030  -76.0180   63.4710 C.3      12 GLL5        0.0000 
     18 CA        -42.6100  -78.1920   60.9130 C.3       8 GLP5        0.0000 
     19 O         -44.9585  -78.2670   64.1405 O.2       1 ALC1        0.0000 
     20 O         -44.1360  -76.8820   64.4700 O.2       9 ALL1        0.0000 
     21 O         -45.7810  -79.6520   63.8110 O.2       5 ALP1        0.0000 
     22 N         -45.0840  -77.7800   61.5565 N.am      2 SEC2        0.0000 
     23 N         -44.8780  -76.4030   62.3420 N.am     10 SEL2        0.0000 
     24 N         -45.2900  -79.1570   60.7710 N.am      6 SEP2        0.0000 
     25 CA        -46.4685  -74.3540   60.5195 C.3       4 GLC5        0.0000 
     26 CA        -45.0390  -75.5690   61.3270 C.3      12 GLL5        0.0000 
     27 CA        -47.8980  -73.1390   59.7120 C.3       8 GLP5        0.0000 
     28 CA        -46.4665  -75.4745   62.8395 C.3       4 GLC5        0.0000 
     29 CA        -47.8940  -75.3800   64.3520 C.3       8 GLP5        0.0000 
     30 CA        -46.2850  -77.2305   61.5490 C.3       4 GLC5        0.0000 
     31 CA        -47.5310  -78.8920   61.7710 C.3       8 GLP5        0.0000 
     32 CA        -43.8245  -76.8805   61.1200 C.3       4 GLC5        0.0000 
     33 CA        -43.1730  -75.0345   60.7830 C.3       4 GLC5        0.0000 
     34 N         -37.5060  -64.0590   61.8460 N.am      2 SEC2        0.0000 
     35 N         -37.7010  -64.9670   60.5470 N.am     10 SEL2        0.0000 
     36 N         -37.3110  -63.1510   63.1450 N.am      6 SEP2        0.0000 
     37 N         -39.5900  -65.2950   57.9830 N.am      2 SEC2        0.0000 
     38 N         -39.5340  -66.0610   59.2280 N.am     10 SEL2        0.0000 
     39 N         -39.6460  -64.5290   56.7380 N.am      6 SEP2        0.0000 
     40 CA        -37.4190  -66.7830   58.5905 C.3       4 GLC5        0.0000 
     41 CA        -37.9250  -68.5590   59.8140 C.3      12 GLL5        0.0000 
     42 CA        -36.9130  -65.0070   57.3670 C.3       8 GLP5        0.0000 
     43 CA        -38.3320  -69.7160   58.0850 C.3       4 GLC5        0.0000 
     44 CA        -38.7390  -70.8730   56.3560 C.3       8 GLP5        0.0000 
     45 CA        -37.5455  -70.7845   58.3405 C.3       4 GLC5        0.0000 
     46 CA        -36.7040  -69.4210   59.5640 C.3      12 GLL5        0.0000 
     47 CA        -38.3870  -72.1480   57.1170 C.3       8 GLP5        0.0000 
     48 CA        -35.5825  -70.3895   57.9095 C.3       4 GLC5        0.0000 
     49 CA        -34.4610  -71.3580   56.2550 C.3       8 GLP5        0.0000 
     50 CA        -37.2950  -71.3875   62.0595 C.3       4 GLC5        0.0000 
     51 CA        -36.2710  -70.0200   60.8640 C.3      12 GLL5        0.0000 
     52 CA        -38.3190  -72.7550   63.2550 C.3       8 GLP5        0.0000 
     53 N         -34.8895  -72.1170   60.8420 N.am      2 SEC2        0.0000 
     54 N         -35.8050  -71.3230   60.6240 N.am     10 SEL2        0.0000 
     55 N         -33.9740  -72.9110   61.0600 N.am      6 SEP2        0.0000 
     56 CA        -33.6325  -69.3550   62.9170 C.3       4 GLC5        0.0000 
     57 CA        -35.0480  -69.2830   61.2150 C.3      12 GLL5        0.0000 
     58 CA        -32.2170  -69.4270   64.6190 C.3       8 GLP5        0.0000 
     59 N         -34.1185  -71.5515   61.5080 N.am      2 SEC2        0.0000 
     60 N         -34.2630  -70.1920   61.9560 N.am     10 SEL2        0.0000 
     61 N         -33.4395  -69.5580   62.6730 N.am      2 SEC2        0.0000 
     62 N         -32.6160  -68.9240   63.3900 N.am      6 SEP2        0.0000 
     63 CA        -34.4760  -70.1640   58.0530 C.3       4 GLC5        0.0000 
     64 CA        -34.4910  -68.9700   59.8510 C.3      12 GLL5        0.0000 
     65 CA        -35.5145  -65.8105   58.7240 C.3       4 GLC5        0.0000 
     66 CA        -34.1160  -66.6140   60.0810 C.3      12 GLL5        0.0000 
     67 N         -32.4225  -62.1150   59.4380 N.am      2 SEC2        0.0000 
     68 N         -33.0730  -63.2470   60.0450 N.am     10 SEL2        0.0000 
     69 N         -31.7720  -60.9830   58.8310 N.am      6 SEP2        0.0000 
     70 CA        -30.8200  -63.6490   60.1220 C.3       4 GLC5        0.0000 
     71 CA        -31.7910  -65.6770   60.1000 C.3      12 GLL5        0.0000 
     72 CA        -29.8490  -61.6210   60.1440 C.3       8 GLP5        0.0000 
     73 N         -47.6815  -70.6595   61.8990 N.am      2 SEC2        0.0000 
     74 N         -47.9480  -70.2680   62.9890 N.am     10 SEL2        0.0000 
     75 N         -47.4150  -71.0510   60.8090 N.am      6 SEP2        0.0000 
     76 N         -49.2835  -71.1425   62.8790 N.am      2 SEC2        0.0000 
     77 N         -50.6190  -72.0170   62.7690 N.am      6 SEP2        0.0000 
     78 NZ        -46.5615  -73.0925   64.7080 N.4       3 LYC4        0.0000 
     79 NZ        -46.7400  -72.2670   63.7420 N.4      11 LYL4        0.0000 
     80 NZ        -45.9060  -73.4040   66.7990 N.4       7 LYP4        0.0000 
     81 N         -47.6855  -73.0445   62.8185 N.am      2 SEC2        0.0000 
     82 N         -46.7400  -72.2670   63.7420 N.am     10 SEL2        0.0000 
     83 N         -48.6310  -73.8220   61.8950 N.am      6 SEP2        0.0000 
     84 N         -46.5615  -73.0925   64.7080 N.am      2 SEC2        0.0000 
     85 N         -46.3830  -73.9180   65.6740 N.am      6 SEP2        0.0000 
     86 N         -46.0315  -72.2400   65.2710 N.am      2 SEC2        0.0000 
     87 N         -45.3230  -72.2130   66.8000 N.am      6 SEP2        0.0000 
     88 NZ        -45.7485  -71.1590   65.7230 N.4       3 LYC4        0.0000 
     89 NZ        -46.1740  -70.1050   64.6460 N.4      11 LYL4        0.0000 
     90 N         -45.7485  -71.1590   65.7230 N.am      2 SEC2        0.0000 
     91 N         -46.1740  -70.1050   64.6460 N.am     10 SEL2        0.0000 
     92 CA        -45.5530  -75.2735   64.5632 C.3       4 GLC5        0.0000 
     93 CA        -43.8390  -74.6320   63.5880 C.3      12 GLL5        0.0000 
     94 CA        -47.0350  -75.2220   65.5970 C.3       8 GLP5        0.0000 
     95 CA        -42.6280  -74.3580   61.6260 C.3       4 GLC5        0.0000 
     96 CA        -42.4160  -75.8805   63.8637 C.3       4 GLC5        0.0000 
     97 CA        -40.7610  -76.4360   64.1980 C.3       8 GLP5        0.0000 
     98 CA        -37.3858  -68.8355   61.8110 C.3       4 GLC5        0.0000 
     99 CA        -35.0718  -71.5143   61.7108 C.3       4 GLC5        0.0000 
    100 CA        -34.4840  -73.3770   62.3820 C.3       8 GLP5        0.0000 
    101 CA        -36.5583  -69.1662   62.4862 C.3       4 GLC5        0.0000 
    102 CA        -30.5768  -68.4493   60.9725 C.3       4 GLC5        0.0000 
    103 CA        -31.4130  -67.0360   59.9470 C.3      12 GLL5        0.0000 
    104 CA        -29.2770  -69.3680   62.0360 C.3       8 GLP5        0.0000 
    105 CA        -30.7725  -66.8249   58.4371 C.3       4 GLC5        0.0000 
    106 CA        -29.5740  -66.4590   56.9270 C.3       8 GLP5        0.0000 
@<TRIPOS>BOND
@<TRIPOS>SUBSTRUCTURE
     1 ALC1       19 GROUP        1 X    ALC  0     ROOT ALC X 1
     2 SEC2        1 GROUP        1 X    SEC  0     **** SEC X 2
     3 LYC4       78 GROUP        1 X    LYC  0     **** LYC X 4
     4 GLC5        4 GROUP        1 X    GLC  0     **** GLC X 6
     5 ALP1       21 GROUP        1 Y    ALP  0     ROOT ALP Y 8
     6 SEP2        3 GROUP        1 Y    SEP  0     **** SEP Y 9
     7 LYP4       80 GROUP        1 Y    LYP  0     **** LYP Y 11
     8 GLP5        6 GROUP        1 Y    GLP  0     **** GLP Y 13
     9 ALL1       20 GROUP        1 Z    ALL  0     ROOT ALL Z 15
    10 SEL2        2 GROUP        1 Z    SEL  0     **** SEL Z 16
    11 LYL4       79 GROUP        1 Z    LYL  0     **** LYL Z 18
    12 GLL5        5 GROUP        1 Z    GLL  0     **** GLL Z 20
@<TRIPOS>SET

