#    Name: 4imp_NDP_2_ligand
#    Modification time : Tue Mar 25 04:10:53 2014

@<TRIPOS>MOLECULE
4imp_NDP_2_ligand
   74    78     1     0     0
SMALL
NO_CHARGES


@<TRIPOS>ATOM
      1 PA        -40.8400  -66.3150   61.8820 P.3       1 NDP1501     0.0000 
      2 O1A       -41.3600  -65.1770   61.1700 O.co2     1 NDP1501     0.0000 
      3 O2A       -41.1370  -66.5410   63.2800 O.co2     1 NDP1501     0.0000 
      4 O5B       -41.2780  -67.5580   61.0910 O.3       1 NDP1501     0.0000 
      5 C5B       -41.2180  -68.8440   61.6590 C.3       1 NDP1501     0.0000 
      6 C4B       -42.4990  -69.5590   61.2990 C.3       1 NDP1501     0.0000 
      7 O4B       -42.4120  -70.9570   61.4430 O.3       1 NDP1501     0.0000 
      8 C3B       -43.6280  -69.1280   62.1800 C.3       1 NDP1501     0.0000 
      9 O3B       -44.4290  -68.4390   61.2670 O.3       1 NDP1501     0.0000 
     10 C2B       -44.3230  -70.3820   62.6330 C.3       1 NDP1501     0.0000 
     11 O2B       -45.7080  -70.4360   62.3570 O.3       1 NDP1501     0.0000 
     12 C1B       -43.6520  -71.4680   61.8430 C.3       1 NDP1501     0.0000 
     13 N9A       -43.5790  -72.6250   62.7430 N.pl3     1 NDP1501     0.0000 
     14 C8A       -43.0950  -72.6590   63.9740 C.2       1 NDP1501     0.0000 
     15 N7A       -43.2460  -73.8720   64.4950 N.2       1 NDP1501     0.0000 
     16 C5A       -43.8390  -74.6320   63.5880 C.ar      1 NDP1501     0.0000 
     17 C6A       -44.3030  -76.0180   63.4710 C.ar      1 NDP1501     0.0000 
     18 N6A       -44.1360  -76.8820   64.4700 N.pl3     1 NDP1501     0.0000 
     19 N1A       -44.8780  -76.4030   62.3420 N.ar      1 NDP1501     0.0000 
     20 C2A       -45.0390  -75.5690   61.3270 C.ar      1 NDP1501     0.0000 
     21 N3A       -44.6510  -74.3140   61.3580 N.ar      1 NDP1501     0.0000 
     22 C4A       -44.0590  -73.8000   62.4380 C.ar      1 NDP1501     0.0000 
     23 O3        -39.3000  -66.3410   61.6840 O.3       1 NDP1501     0.0000 
     24 PN        -38.5860  -66.0750   60.3200 P.3       1 NDP1501     0.0000 
     25 O1N       -37.7010  -64.9670   60.5470 O.co2     1 NDP1501     0.0000 
     26 O2N       -39.5340  -66.0610   59.2280 O.co2     1 NDP1501     0.0000 
     27 O5D       -37.5680  -67.2380   60.1360 O.3       1 NDP1501     0.0000 
     28 C5D       -37.9250  -68.5590   59.8140 C.3       1 NDP1501     0.0000 
     29 C4D       -36.7040  -69.4210   59.5640 C.3       1 NDP1501     0.0000 
     30 O4D       -35.6130  -68.6790   59.0610 O.3       1 NDP1501     0.0000 
     31 C3D       -36.2710  -70.0200   60.8640 C.3       1 NDP1501     0.0000 
     32 O3D       -35.8050  -71.3230   60.6240 O.3       1 NDP1501     0.0000 
     33 C2D       -35.0480  -69.2830   61.2150 C.3       1 NDP1501     0.0000 
     34 O2D       -34.2630  -70.1920   61.9560 O.3       1 NDP1501     0.0000 
     35 C1D       -34.4910  -68.9700   59.8510 C.3       1 NDP1501     0.0000 
     36 N1N       -33.6300  -67.8190   59.9310 N.pl3     1 NDP1501     0.0000 
     37 C2N       -34.1160  -66.6140   60.0810 C.2       1 NDP1501     0.0000 
     38 C3N       -33.2760  -65.5280   60.1650 C.2       1 NDP1501     0.0000 
     39 C7N       -33.8010  -64.1420   60.3330 C.2       1 NDP1501     0.0000 
     40 O7N       -33.0730  -63.2470   60.0450 O.2       1 NDP1501     0.0000 
     41 N7N       -35.0110  -63.9090   60.7900 N.am      1 NDP1501     0.0000 
     42 C4N       -31.7910  -65.6770   60.1000 C.3       1 NDP1501     0.0000 
     43 C5N       -31.4130  -67.0360   59.9470 C.2       1 NDP1501     0.0000 
     44 C6N       -32.3400  -68.0250   59.8710 C.2       1 NDP1501     0.0000 
     45 P2B       -46.7130  -70.8200   63.5040 P.3       1 NDP1501     0.0000 
     46 O1X       -47.9480  -70.2680   62.9890 O.co2     1 NDP1501     0.0000 
     47 O2X       -46.7400  -72.2670   63.7420 O.co2     1 NDP1501     0.0000 
     48 O3X       -46.1740  -70.1050   64.6460 O.co2     1 NDP1501     0.0000 
     49 H         -41.1427  -68.8124   62.7473 H         1 NDP1501     0.0000 
     50 H         -40.3831  -69.4294   61.2700 H         1 NDP1501     0.0000 
     51 H         -42.7691  -69.2971   60.2750 H         1 NDP1501     0.0000 
     52 H         -43.2788  -68.5673   62.9592 H         1 NDP1501     0.0000 
     53 H         -44.0910  -70.5535   63.6660 H         1 NDP1501     0.0000 
     54 H         -44.2953  -71.6902   61.0098 H         1 NDP1501     0.0000 
     55 H         -42.6808  -71.8950   64.4409 H         1 NDP1501     0.0000 
     56 H         -43.6280  -76.5452   65.2627 H         1 NDP1501     0.0000 
     57 H         -44.5336  -77.7900   64.3376 H         1 NDP1501     0.0000 
     58 H         -45.5102  -75.9400   60.4363 H         1 NDP1501     0.0000 
     59 H         -38.5575  -68.6061   58.9057 H         1 NDP1501     0.0000 
     60 H         -38.5103  -69.0376   60.6237 H         1 NDP1501     0.0000 
     61 H         -36.9792  -70.2260   58.9020 H         1 NDP1501     0.0000 
     62 H         -36.9820  -69.9346   61.5843 H         1 NDP1501     0.0000 
     63 H         -35.3023  -68.4076   61.7135 H         1 NDP1501     0.0000 
     64 H         -33.9721  -69.8289   59.4982 H         1 NDP1501     0.0000 
     65 H         -35.1486  -66.4429   60.1409 H         1 NDP1501     0.0000 
     66 H         -35.2823  -62.9482   60.8471 H         1 NDP1501     0.0000 
     67 H         -35.5499  -64.7138   61.0389 H         1 NDP1501     0.0000 
     68 H         -31.3582  -65.2413   61.0217 H         1 NDP1501     0.0000 
     69 H         -31.4171  -65.0594   59.2601 H         1 NDP1501     0.0000 
     70 H         -30.3974  -67.2520   59.8946 H         1 NDP1501     0.0000 
     71 H         -31.9720  -69.0268   59.7551 H         1 NDP1501     0.0000 
     72 H         -45.3655  -68.7122   61.4868 H         1 NDP1501     0.0000 
     73 H         -36.0541  -71.8415   61.4419 H         1 NDP1501     0.0000 
     74 H         -34.9163  -70.7004   62.5171 H         1 NDP1501     0.0000 
@<TRIPOS>BOND
     1    2    1 ar   
     2    3    1 ar   
     3    4    1 1    
     4   23    1 1    
     5    5    4 1    
     6    6    5 1    
     7   49    5 1    
     8   50    5 1    
     9    7    6 1    
    10    8    6 1    
    11   51    6 1    
    12   12    7 1    
    13    9    8 1    
    14   10    8 1    
    15   52    8 1    
    16   72    9 1    
    17   11   10 1    
    18   12   10 1    
    19   53   10 1    
    20   45   11 1    
    21   13   12 1    
    22   54   12 1    
    23   14   13 1    
    24   22   13 1    
    25   15   14 2    
    26   55   14 1    
    27   16   15 1    
    28   17   16 ar   
    29   22   16 ar   
    30   18   17 1    
    31   19   17 ar   
    32   56   18 1    
    33   57   18 1    
    34   20   19 ar   
    35   21   20 ar   
    36   58   20 1    
    37   22   21 ar   
    38   24   23 1    
    39   25   24 ar   
    40   26   24 ar   
    41   27   24 1    
    42   28   27 1    
    43   29   28 1    
    44   59   28 1    
    45   60   28 1    
    46   30   29 1    
    47   31   29 1    
    48   61   29 1    
    49   35   30 1    
    50   32   31 1    
    51   33   31 1    
    52   62   31 1    
    53   73   32 1    
    54   34   33 1    
    55   35   33 1    
    56   63   33 1    
    57   74   34 1    
    58   36   35 1    
    59   64   35 1    
    60   37   36 1    
    61   44   36 1    
    62   38   37 2    
    63   65   37 1    
    64   39   38 1    
    65   42   38 1    
    66   40   39 2    
    67   41   39 am   
    68   66   41 1    
    69   67   41 1    
    70   43   42 1    
    71   68   42 1    
    72   69   42 1    
    73   44   43 2    
    74   70   43 1    
    75   71   44 1    
    76   46   45 ar   
    77   47   45 ar   
    78   48   45 ar   
@<TRIPOS>SUBSTRUCTURE
     1 NDP1501     1 GROUP   
@<TRIPOS>SET

