#    Name: 2a92_NAI_2_INTS_M
#    Modification time : Mon Mar 24 18:45:10 2014

@<TRIPOS>MOLECULE
2a92_NAI_2_INTS_M
   81     0     9     0     0
SMALL
NO_CHARGES


@<TRIPOS>ATOM
      1 N         -10.6685   23.6555   30.0760 N.am      2 SEC2        0.0000 
      2 N          -9.8040   24.7080   30.6820 N.am      8 SEL2        0.0000 
      3 N         -11.5330   22.6030   29.4700 N.am      5 SEP2        0.0000 
      4 CA        -11.4620   22.1895   36.0110 C.3       3 GLC5        0.0000 
      5 CA        -10.5880   24.0150   35.2060 C.3       9 GLL5        0.0000 
      6 CA        -12.3360   20.3640   36.8160 C.3       6 GLP5        0.0000 
      7 O         -13.3475   24.4350   35.3595 O.2       1 ALC1        0.0000 
      8 O         -12.5410   25.1550   34.4920 O.2       7 ALL1        0.0000 
      9 O         -14.1540   23.7150   36.2270 O.2       4 ALP1        0.0000 
     10 O         -13.5845   26.0170   37.1360 O.2       1 ALC1        0.0000 
     11 O         -12.5390   26.6800   36.6720 O.2       7 ALL1        0.0000 
     12 O         -14.6300   25.3540   37.6000 O.2       4 ALP1        0.0000 
     13 O         -13.3465   25.1975   36.4495 O.2       1 ALC1        0.0000 
     14 CA        -11.7900   22.5340   37.0490 C.3       3 GLC5        0.0000 
     15 CA        -11.2440   24.7040   37.2820 C.3       9 GLL5        0.0000 
     16 CA         -9.9400   23.0365   37.8315 C.3       3 GLC5        0.0000 
     17 CA         -8.6360   21.3690   38.3810 C.3       6 GLP5        0.0000 
     18 CA        -12.3800   24.5655   42.5315 C.3       3 GLC5        0.0000 
     19 CA        -10.8350   23.7360   42.0160 C.3       9 GLL5        0.0000 
     20 CA        -13.9250   25.3950   43.0470 C.3       6 GLP5        0.0000 
     21 CA        -12.1625   20.3850   41.1550 C.3       3 GLC5        0.0000 
     22 CA        -12.5480   22.4860   40.8580 C.3       9 GLL5        0.0000 
     23 CA        -11.7770   18.2840   41.4520 C.3       6 GLP5        0.0000 
     24 CA        -14.2695   22.6825   39.8920 C.3       3 GLC5        0.0000 
     25 CA        -15.9910   22.8790   38.9260 C.3       6 GLP5        0.0000 
     26 CA        -13.2365   23.9405   41.9525 C.3       3 GLC5        0.0000 
     27 CA        -10.9250   21.8230   40.3095 C.3       3 GLC5        0.0000 
     28 CA         -9.3020   21.1600   39.7610 C.3       6 GLP5        0.0000 
     29 N          -9.5385   20.8160   29.8795 N.am      2 SEC2        0.0000 
     30 N          -8.6980   21.6220   30.9170 N.am      8 SEL2        0.0000 
     31 N         -10.3790   20.0100   28.8420 N.am      5 SEP2        0.0000 
     32 CA         -6.3175   19.9965   31.2625 C.3       3 GLC5        0.0000 
     33 CA         -6.2980   21.4010   32.8580 C.3       9 GLL5        0.0000 
     34 CA         -6.3370   18.5920   29.6670 C.3       6 GLP5        0.0000 
     35 CA         -7.4130   19.9880   33.6845 C.3       3 GLC5        0.0000 
     36 CA         -8.5280   18.5750   34.5110 C.3       6 GLP5        0.0000 
     37 CA         -3.9710   20.1230   35.1135 C.3       3 GLC5        0.0000 
     38 CA         -4.9390   21.0850   33.4600 C.3       9 GLL5        0.0000 
     39 CA         -3.0030   19.1610   36.7670 C.3       6 GLP5        0.0000 
     40 N          -2.1095   21.2245   35.3570 N.am      2 SEC2        0.0000 
     41 N          -3.2740   22.2210   34.6780 N.am      8 SEL2        0.0000 
     42 N          -0.9450   20.2280   36.0360 N.am      5 SEP2        0.0000 
     43 N          -0.5450   21.3575   32.4520 N.am      2 SEC2        0.0000 
     44 N          -1.5790   22.2180   32.5800 N.am      8 SEL2        0.0000 
     45 N           0.4890   20.4970   32.3240 N.am      5 SEP2        0.0000 
     46 CA         -3.8455   18.3095   32.7090 C.3       3 GLC5        0.0000 
     47 CA         -2.9990   20.2420   32.5150 C.3       9 GLL5        0.0000 
     48 CA         -4.6920   16.3770   32.9030 C.3       6 GLP5        0.0000 
     49 CA         -3.0010   19.7015   34.6410 C.3       3 GLC5        0.0000 
     50 CA          0.8100   17.0325   30.9330 C.3       3 GLC5        0.0000 
     51 CA         -1.3320   17.4380   30.7720 C.3       9 GLL5        0.0000 
     52 CA          2.9520   16.6270   31.0940 C.3       6 GLP5        0.0000 
     53 O          -1.3920   16.6450   33.6130 O.2       1 ALC1        0.0000 
     54 O          -0.6520   15.8710   32.5350 O.2       7 ALL1        0.0000 
     55 O          -2.1320   17.4190   34.6910 O.2       4 ALP1        0.0000 
     56 O           0.0290   14.4335   32.8435 O.2       1 ALC1        0.0000 
     57 O           0.7100   12.9960   33.1520 O.2       4 ALP1        0.0000 
     58 CA        -11.6229   23.8360   33.2512 C.3       3 GLC5        0.0000 
     59 CA         -9.3030   23.8630   34.3860 C.3       9 GLL5        0.0000 
     60 CA        -12.6460   23.0150   31.5860 C.3       6 GLP5        0.0000 
     61 CA        -12.0505   25.4580   40.6000 C.3       3 GLC5        0.0000 
     62 CA        -11.2450   24.0460   39.6610 C.3       9 GLL5        0.0000 
     63 CA        -13.2190   26.7060   40.9600 C.3       6 GLP5        0.0000 
     64 CA         -8.9040   23.2990   42.1773 C.3       3 GLC5        0.0000 
     65 CA        -10.5190   24.3740   40.8190 C.3       9 GLL5        0.0000 
     66 CA         -7.1310   22.5430   42.9370 C.3       6 GLP5        0.0000 
     67 CA        -10.1315   22.6053   40.1501 C.3       3 GLC5        0.0000 
     68 CA         -1.0513   21.0693   33.5105 C.3       3 GLC5        0.0000 
     69 CA         -2.9040   21.7610   32.3510 C.3       9 GLL5        0.0000 
     70 CA          0.8490   21.1370   34.5880 C.3       6 GLP5        0.0000 
     71 CA         -3.1268   17.1292   32.0787 C.3       3 GLC5        0.0000 
     72 CA         -1.7910   18.3250   31.7370 C.3       9 GLL5        0.0000 
     73 CA         -2.2822   15.6623   30.3163 C.3       3 GLC5        0.0000 
     74 CA         -3.0820   13.7680   30.5360 C.3       6 GLP5        0.0000 
     75 CA         -3.0810   17.4690   27.7045 C.3       3 GLC5        0.0000 
     76 CA         -1.6330   17.6750   29.4210 C.3       9 GLL5        0.0000 
     77 CA         -4.1430   16.7080   26.1690 C.3       6 GLP5        0.0000 
     78 CA         -4.4850   18.9060   29.6133 C.3       3 GLC5        0.0000 
     79 CA         -2.4050   18.7850   29.0590 C.3       9 GLL5        0.0000 
     80 CA         -1.4194   16.6214   28.3229 C.3       3 GLC5        0.0000 
     81 CA         -0.8950   15.0720   27.0680 C.3       6 GLP5        0.0000 
@<TRIPOS>BOND
@<TRIPOS>SUBSTRUCTURE
     1 ALC1        7 GROUP        1 X    ALC  0     ROOT ALC X 1
     2 SEC2        1 GROUP        1 X    SEC  0     **** SEC X 2
     3 GLC5        4 GROUP        1 X    GLC  0     **** GLC X 6
     4 ALP1        9 GROUP        1 Y    ALP  0     ROOT ALP Y 8
     5 SEP2        3 GROUP        1 Y    SEP  0     **** SEP Y 9
     6 GLP5        6 GROUP        1 Y    GLP  0     **** GLP Y 13
     7 ALL1        8 GROUP        1 Z    ALL  0     ROOT ALL Z 15
     8 SEL2        2 GROUP        1 Z    SEL  0     **** SEL Z 16
     9 GLL5        5 GROUP        1 Z    GLL  0     **** GLL Z 20
@<TRIPOS>SET

