#    Name: 2a92_NAI_2_ligand
#    Modification time : Mon Mar 24 18:45:10 2014

@<TRIPOS>MOLECULE
2a92_NAI_2_ligand
   71    75     1     0     0
SMALL
NO_CHARGES


@<TRIPOS>ATOM
      1 PA         -8.9380   24.6000   31.8840 P.3       1 NAI701      0.0000 
      2 O1A        -9.8040   24.7080   30.6820 O.co2     1 NAI701      0.0000 
      3 O2A        -8.5150   25.9230   32.4010 O.co2     1 NAI701      0.0000 
      4 O5B        -9.7080   23.7880   33.0330 O.3       1 NAI701      0.0000 
      5 C5B        -9.3030   23.8630   34.3860 C.3       1 NAI701      0.0000 
      6 C4B       -10.5880   24.0150   35.2060 C.3       1 NAI701      0.0000 
      7 O4B       -10.3530   23.8430   36.5880 O.3       1 NAI701      0.0000 
      8 C3B       -11.2540   25.3750   35.0370 C.3       1 NAI701      0.0000 
      9 O3B       -12.5410   25.1550   34.4920 O.3       1 NAI701      0.0000 
     10 C2B       -11.3330   25.9740   36.4500 C.3       1 NAI701      0.0000 
     11 O2B       -12.5390   26.6800   36.6720 O.3       1 NAI701      0.0000 
     12 C1B       -11.2440   24.7040   37.2820 C.3       1 NAI701      0.0000 
     13 N9A       -10.7420   24.8150   38.6560 N.pl3     1 NAI701      0.0000 
     14 C8A        -9.7240   25.5880   39.1650 C.2       1 NAI701      0.0000 
     15 N7A        -9.6060   25.3150   40.4900 N.2       1 NAI701      0.0000 
     16 C5A       -10.5190   24.3740   40.8190 C.ar      1 NAI701      0.0000 
     17 C6A       -10.8350   23.7360   42.0160 C.ar      1 NAI701      0.0000 
     18 N6A       -10.4190   24.2710   43.1640 N.pl3     1 NAI701      0.0000 
     19 N1A       -11.8520   22.7820   42.0240 N.ar      1 NAI701      0.0000 
     20 C2A       -12.5480   22.4860   40.8580 C.ar      1 NAI701      0.0000 
     21 N3A       -12.2510   23.1200   39.6700 N.ar      1 NAI701      0.0000 
     22 C4A       -11.2450   24.0460   39.6610 C.ar      1 NAI701      0.0000 
     23 O3         -7.5550   23.7730   31.6380 O.3       1 NAI701      0.0000 
     24 PN         -7.4330   22.4070   30.7560 P.3       1 NAI701      0.0000 
     25 O1N        -8.6980   21.6220   30.9170 O.co2     1 NAI701      0.0000 
     26 O2N        -6.9850   22.7290   29.3720 O.co2     1 NAI701      0.0000 
     27 O5D        -6.2190   21.6600   31.4790 O.3       1 NAI701      0.0000 
     28 C5D        -6.2980   21.4010   32.8580 C.3       1 NAI701      0.0000 
     29 C4D        -4.9390   21.0850   33.4600 C.3       1 NAI701      0.0000 
     30 O4D        -4.3660   19.9670   32.8040 O.3       1 NAI701      0.0000 
     31 C3D        -3.9060   22.2140   33.4130 C.3       1 NAI701      0.0000 
     32 O3D        -3.2740   22.2210   34.6780 O.3       1 NAI701      0.0000 
     33 C2D        -2.9040   21.7610   32.3510 C.3       1 NAI701      0.0000 
     34 O2D        -1.5790   22.2180   32.5800 O.3       1 NAI701      0.0000 
     35 C1D        -2.9990   20.2420   32.5150 C.3       1 NAI701      0.0000 
     36 N1N        -2.5440   19.4090   31.3810 N.pl3     1 NAI701      0.0000 
     37 C2N        -1.7910   18.3250   31.7370 C.2       1 NAI701      0.0000 
     38 C3N        -1.3320   17.4380   30.7720 C.2       1 NAI701      0.0000 
     39 C7N        -0.6490   16.1990   31.2400 C.2       1 NAI701      0.0000 
     40 O7N         0.0060   15.4000   30.3090 O.2       1 NAI701      0.0000 
     41 N7N        -0.6520   15.8710   32.5350 N.am      1 NAI701      0.0000 
     42 C4N        -1.6330   17.6750   29.4210 C.3       1 NAI701      0.0000 
     43 C5N        -2.4050   18.7850   29.0590 C.2       1 NAI701      0.0000 
     44 C6N        -2.8610   19.6550   30.0600 C.2       1 NAI701      0.0000 
     45 H          -8.6796   24.7256   34.5860 H         1 NAI701      0.0000 
     46 H          -8.8023   22.9629   34.7204 H         1 NAI701      0.0000 
     47 H         -11.3048   23.2627   34.8529 H         1 NAI701      0.0000 
     48 H         -10.6325   25.9800   34.4391 H         1 NAI701      0.0000 
     49 H         -10.4464   26.5299   36.6090 H         1 NAI701      0.0000 
     50 H         -12.2341   24.2356   37.2860 H         1 NAI701      0.0000 
     51 H          -9.1956   26.2087   38.6627 H         1 NAI701      0.0000 
     52 H         -10.7153   23.8068   43.9987 H         1 NAI701      0.0000 
     53 H          -9.8481   25.0884   43.0871 H         1 NAI701      0.0000 
     54 H         -13.3037   21.7746   40.8868 H         1 NAI701      0.0000 
     55 H          -6.9655   20.5426   33.0802 H         1 NAI701      0.0000 
     56 H          -6.7148   22.2639   33.4178 H         1 NAI701      0.0000 
     57 H          -5.0889   20.8319   34.5248 H         1 NAI701      0.0000 
     58 H          -4.3592   23.0903   33.1367 H         1 NAI701      0.0000 
     59 H          -3.3039   22.0005   31.3995 H         1 NAI701      0.0000 
     60 H          -2.4055   19.9859   33.4147 H         1 NAI701      0.0000 
     61 H          -1.5558   18.1555   32.7316 H         1 NAI701      0.0000 
     62 H          -1.1662   16.4775   33.1413 H         1 NAI701      0.0000 
     63 H          -0.1397   15.0484   32.7817 H         1 NAI701      0.0000 
     64 H          -2.1174   16.7226   28.9773 H         1 NAI701      0.0000 
     65 H          -0.6447   17.6955   28.8198 H         1 NAI701      0.0000 
     66 H          -2.6333   18.9597   28.0818 H         1 NAI701      0.0000 
     67 H          -3.4288   20.4705   29.8009 H         1 NAI701      0.0000 
     68 H         -13.0218   24.6075   35.1769 H         1 NAI701      0.0000 
     69 H         -13.1800   25.9948   37.0179 H         1 NAI701      0.0000 
     70 H          -3.3745   23.1581   35.0122 H         1 NAI701      0.0000 
     71 H          -1.5857   22.5729   33.5149 H         1 NAI701      0.0000 
@<TRIPOS>BOND
     1    2    1 ar   
     2    3    1 ar   
     3    4    1 1    
     4   23    1 1    
     5    5    4 1    
     6    6    5 1    
     7   45    5 1    
     8   46    5 1    
     9    7    6 1    
    10    8    6 1    
    11   47    6 1    
    12   12    7 1    
    13    9    8 1    
    14   10    8 1    
    15   48    8 1    
    16   68    9 1    
    17   11   10 1    
    18   12   10 1    
    19   49   10 1    
    20   69   11 1    
    21   13   12 1    
    22   50   12 1    
    23   14   13 1    
    24   22   13 1    
    25   15   14 2    
    26   51   14 1    
    27   16   15 1    
    28   17   16 ar   
    29   22   16 ar   
    30   18   17 1    
    31   19   17 ar   
    32   52   18 1    
    33   53   18 1    
    34   20   19 ar   
    35   21   20 ar   
    36   54   20 1    
    37   22   21 ar   
    38   24   23 1    
    39   25   24 ar   
    40   26   24 ar   
    41   27   24 1    
    42   28   27 1    
    43   29   28 1    
    44   55   28 1    
    45   56   28 1    
    46   30   29 1    
    47   31   29 1    
    48   57   29 1    
    49   35   30 1    
    50   32   31 1    
    51   33   31 1    
    52   58   31 1    
    53   70   32 1    
    54   34   33 1    
    55   35   33 1    
    56   59   33 1    
    57   71   34 1    
    58   36   35 1    
    59   60   35 1    
    60   37   36 1    
    61   44   36 1    
    62   38   37 2    
    63   61   37 1    
    64   39   38 1    
    65   42   38 1    
    66   40   39 2    
    67   41   39 am   
    68   62   41 1    
    69   63   41 1    
    70   43   42 1    
    71   64   42 1    
    72   65   42 1    
    73   44   43 2    
    74   66   43 1    
    75   67   44 1    
@<TRIPOS>SUBSTRUCTURE
     1 NAI701      1 GROUP   
@<TRIPOS>SET

