#    Name: 1i5r_HYC_1_INTS_M
#    Modification time : Tue Mar 25 06:42:25 2014

@<TRIPOS>MOLECULE
1i5r_HYC_1_INTS_M
  153     0     9     0     0
SMALL
NO_CHARGES


@<TRIPOS>ATOM
      1 CA          7.8745   14.1720  -11.7580 C.3       3 GLC5        0.0000 
      2 CA          8.8490   12.2670  -12.2430 C.3       9 GLL5        0.0000 
      3 CA          6.9000   16.0770  -11.2730 C.3       6 GLP5        0.0000 
      4 CA          6.4575   12.2225  -13.5910 C.3       3 GLC5        0.0000 
      5 CA          8.4840   11.7920  -13.5070 C.3       9 GLL5        0.0000 
      6 CA          4.4310   12.6530  -13.6750 C.3       6 GLP5        0.0000 
      7 O           8.1095   12.2475  -15.5025 O.2       1 ALC1        0.0000 
      8 O           7.8080   12.5360  -14.3070 O.2       7 ALL1        0.0000 
      9 O           8.4110   11.9590  -16.6980 O.2       4 ALP1        0.0000 
     10 CA          8.8415    6.8950  -14.4415 C.3       3 GLC5        0.0000 
     11 CA          9.9900    8.2060  -13.5490 C.3       9 GLL5        0.0000 
     12 CA          7.6930    5.5840  -15.3340 C.3       6 GLP5        0.0000 
     13 CA         12.0715    9.4195  -13.1090 C.3       3 GLC5        0.0000 
     14 CA         11.1000    7.5010  -12.6550 C.3       9 GLL5        0.0000 
     15 CA         13.0430   11.3380  -13.5630 C.3       6 GLP5        0.0000 
     16 CA         12.7655    6.7375  -12.7960 C.3       3 GLC5        0.0000 
     17 CA         14.4310    5.9740  -12.9370 C.3       6 GLP5        0.0000 
     18 CA         12.6035    9.3335   -7.3905 C.3       3 GLC5        0.0000 
     19 CA         11.0970    8.5550   -8.2760 C.3       9 GLL5        0.0000 
     20 CA         14.1100   10.1120   -6.5050 C.3       6 GLP5        0.0000 
     21 CA         12.8530    9.4180   -8.8085 C.3       3 GLC5        0.0000 
     22 CA         14.6090   10.2810   -9.3410 C.3       6 GLP5        0.0000 
     23 CA         13.5760    7.4805   -9.7400 C.3       3 GLC5        0.0000 
     24 CA         11.4950    6.8710  -10.1750 C.3       9 GLL5        0.0000 
     25 CA         15.6570    8.0900   -9.3050 C.3       6 GLP5        0.0000 
     26 CA         13.8250    5.1335  -10.5485 C.3       3 GLC5        0.0000 
     27 CA         12.4530    4.9260   -9.1210 C.3       9 GLL5        0.0000 
     28 CA         15.1970    5.3410  -11.9760 C.3       6 GLP5        0.0000 
     29 CA         13.9200    7.0790   -8.6695 C.3       3 GLC5        0.0000 
     30 CA         12.1830    6.0680   -8.0340 C.3       9 GLL5        0.0000 
     31 N          10.7225    6.0005   -6.0855 N.am      2 SEC2        0.0000 
     32 N          11.6130    5.6280   -6.8430 N.am      8 SEL2        0.0000 
     33 N           9.8320    6.3730   -5.3280 N.am      5 SEP2        0.0000 
     34 N          11.0145    4.4165   -6.2600 N.am      2 SEC2        0.0000 
     35 N          10.4160    3.2050   -5.6770 N.am      5 SEP2        0.0000 
     36 CA          8.1780    6.9390   -7.3625 C.3       3 GLC5        0.0000 
     37 CA          9.6360    6.4090   -8.4670 C.3       9 GLL5        0.0000 
     38 CA          6.7200    7.4690   -6.2580 C.3       6 GLP5        0.0000 
     39 CA          9.0595    4.8240   -7.7310 C.3       3 GLC5        0.0000 
     40 CA          8.4830    3.2390   -6.9950 C.3       6 GLP5        0.0000 
     41 CA         10.8710   -0.6970   -8.8000 C.3       3 GLC5        0.0000 
     42 CA         11.8820    1.1960   -9.2410 C.3       9 GLL5        0.0000 
     43 CA          9.8600   -2.5900   -8.3590 C.3       6 GLP5        0.0000 
     44 CA         13.1415   -3.1815   -3.8630 C.3       3 GLC5        0.0000 
     45 CA         14.2990   -2.8430   -5.7240 C.3       9 GLL5        0.0000 
     46 CA         11.9840   -3.5200   -2.0020 C.3       6 GLP5        0.0000 
     47 CA         16.1145   -2.1330   -5.9595 C.3       3 GLC5        0.0000 
     48 CA         17.9300   -1.4230   -6.1950 C.3       6 GLP5        0.0000 
     49 CA         15.1915   -5.2220   -0.4835 C.3       3 GLC5        0.0000 
     50 CA         16.2250   -6.2660   -1.9410 C.3       9 GLL5        0.0000 
     51 CA         14.1580   -4.1780    0.9740 C.3       6 GLP5        0.0000 
     52 CA         17.1240   -7.1365   -4.9790 C.3       3 GLC5        0.0000 
     53 CA         16.8810   -6.2360   -3.2820 C.3       9 GLL5        0.0000 
     54 CA         17.3670   -8.0370   -6.6760 C.3       6 GLP5        0.0000 
     55 O          19.0095   -7.2695   -3.6375 O.2       1 ALC1        0.0000 
     56 O          17.5030   -7.3610   -3.6240 O.2       7 ALL1        0.0000 
     57 O          20.5160   -7.1780   -3.6510 O.2       4 ALP1        0.0000 
     58 N          20.2565   -5.7170   -1.9025 N.am      2 SEC2        0.0000 
     59 N          18.8010   -5.2660   -2.6840 N.am      8 SEL2        0.0000 
     60 N          21.7120   -6.1680   -1.1210 N.am      5 SEP2        0.0000 
     61 N          19.6585   -6.2220   -3.1675 N.am      2 SEC2        0.0000 
     62 N          20.5160   -7.1780   -3.6510 N.am      5 SEP2        0.0000 
     63 N          19.6720   -4.7270   -4.0335 N.am      2 SEC2        0.0000 
     64 N          20.5430   -4.1880   -5.3830 N.am      5 SEP2        0.0000 
     65 O          19.6720   -4.7270   -4.0335 O.2       1 ALC1        0.0000 
     66 O          18.8010   -5.2660   -2.6840 O.2       7 ALL1        0.0000 
     67 O          20.5430   -4.1880   -5.3830 O.2       4 ALP1        0.0000 
     68 N          14.4025   -4.4525   -1.5430 N.am      2 SEC2        0.0000 
     69 N          15.6900   -4.9350   -1.9090 N.am      8 SEL2        0.0000 
     70 N          13.1150   -3.9700   -1.1770 N.am      5 SEP2        0.0000 
     71 CA         14.1160   -3.1520   -2.3770 C.3       3 GLC5        0.0000 
     72 CA         16.2480   -2.7840   -2.7520 C.3       9 GLL5        0.0000 
     73 CA         17.0890   -2.1035   -4.4735 C.3       3 GLC5        0.0000 
     74 N          13.3030   -9.9235    2.4585 N.am      2 SEC2        0.0000 
     75 N          14.0330   -9.5360    1.2550 N.am      8 SEL2        0.0000 
     76 N          12.5730  -10.3110    3.6620 N.am      5 SEP2        0.0000 
     77 CA         16.5115   -7.0200    1.1765 C.3       3 GLC5        0.0000 
     78 CA         15.0830   -8.7200    1.4210 C.3       9 GLL5        0.0000 
     79 CA         17.9400   -5.3200    0.9320 C.3       6 GLP5        0.0000 
     80 CA         15.7460  -10.0350    0.4690 C.3       3 GLC5        0.0000 
     81 CA         16.4090  -11.3500   -0.4830 C.3       6 GLP5        0.0000 
     82 CA         14.5980  -10.4445    2.3575 C.3       3 GLC5        0.0000 
     83 CA         14.1130  -12.1690    3.2940 C.3       6 GLP5        0.0000 
     84 CA         13.9115   -8.1215    2.9620 C.3       3 GLC5        0.0000 
     85 CA         12.7400   -7.5230    4.5030 C.3       6 GLP5        0.0000 
     86 CA         14.4020   -7.0700    1.5740 C.3       3 GLC5        0.0000 
     87 CA         13.7210   -5.4200    1.7270 C.3       6 GLP5        0.0000 
     88 CA         16.4500   -6.5900    0.0875 C.3       3 GLC5        0.0000 
     89 CA         14.9600   -7.8600   -0.7570 C.3       9 GLL5        0.0000 
     90 CA         15.6845   -9.6050   -0.6200 C.3       3 GLC5        0.0000 
     91 CA         14.1055  -10.4185   -1.3945 C.3       3 GLC5        0.0000 
     92 CA         13.7930   -8.7260   -1.0340 C.3       9 GLL5        0.0000 
     93 CA         14.4180  -12.1110   -1.7550 C.3       6 GLP5        0.0000 
     94 CA         14.2715  -10.8880   -0.1600 C.3       3 GLC5        0.0000 
     95 CA         13.4030   -9.5610    0.1050 C.3       9 GLL5        0.0000 
     96 CA         15.1400  -12.2150   -0.4250 C.3       6 GLP5        0.0000 
     97 CA         13.7580  -10.8650    1.6995 C.3       3 GLC5        0.0000 
     98 CA         12.2645   -8.7395    1.3575 C.3       3 GLC5        0.0000 
     99 CA         11.1260   -7.9180    2.6100 C.3       6 GLP5        0.0000 
    100 O          12.1785  -11.4530    0.6695 O.2       1 ALC1        0.0000 
    101 O          12.2890  -10.3840   -0.1710 O.2       7 ALL1        0.0000 
    102 O          12.0680  -12.5220    1.5100 O.2       4 ALP1        0.0000 
    103 CA          7.9985   12.3040  -10.5398 C.3       3 GLC5        0.0000 
    104 CA          9.5910   11.4690  -11.3480 C.3       9 GLL5        0.0000 
    105 CA          6.7770   12.7400   -9.2840 C.3       6 GLP5        0.0000 
    106 CA          7.4665   10.6725  -11.7698 C.3       3 GLC5        0.0000 
    107 CA          5.7130    9.4770  -11.7440 C.3       6 GLP5        0.0000 
    108 CA         11.1315   11.6030  -12.6792 C.3       3 GLC5        0.0000 
    109 CA          7.1915   10.3072  -12.7282 C.3       3 GLC5        0.0000 
    110 CA          8.4795   10.9357  -15.5072 C.3       3 GLC5        0.0000 
    111 CA          8.8560   10.4830  -13.9180 C.3       9 GLL5        0.0000 
    112 CA          8.2890   10.7340  -17.3020 C.3       6 GLP5        0.0000 
    113 CA         10.2455   11.4922  -14.6953 C.3       3 GLC5        0.0000 
    114 CA         11.8210   11.8470  -15.6780 C.3       6 GLP5        0.0000 
    115 CA         11.4200   10.1305  -13.4315 C.3       3 GLC5        0.0000 
    116 CA          9.6040    9.6400  -13.0510 C.3       9 GLL5        0.0000 
    117 CA         10.8665    7.0467  -14.9665 C.3       3 GLC5        0.0000 
    118 CA         11.1880    6.2400  -16.8310 C.3       6 GLP5        0.0000 
    119 CA         12.5813    9.8120   -9.6895 C.3       3 GLC5        0.0000 
    120 CA         10.7920    9.2360  -10.7870 C.3       9 GLL5        0.0000 
    121 CA         11.7133   10.5132  -12.4158 C.3       3 GLC5        0.0000 
    122 CA         11.5377   11.2665   -9.9380 C.3       3 GLC5        0.0000 
    123 CA         12.5220   13.1900   -9.8380 C.3       6 GLP5        0.0000 
    124 CA          8.5025    8.6525  -11.5395 C.3       3 GLC5        0.0000 
    125 CA          9.9750   10.1410  -11.7500 C.3       9 GLL5        0.0000 
    126 CA          7.1190    7.7730  -10.5540 C.3       6 GLP5        0.0000 
    127 CA         10.1920    9.9853   -7.2677 C.3       3 GLC5        0.0000 
    128 CA         10.3150    9.4500   -9.2890 C.3       9 GLL5        0.0000 
    129 CA          9.6780   10.9680   -5.7530 C.3       6 GLP5        0.0000 
    130 CA          8.8172    8.3694  -10.3444 C.3       3 GLC5        0.0000 
    131 CA         12.9518    6.0183  -11.6185 C.3       3 GLC5        0.0000 
    132 CA          8.7922    7.2294   -9.7491 C.3       3 GLC5        0.0000 
    133 CA         10.7735    2.8125   -7.6967 C.3       3 GLC5        0.0000 
    134 CA         11.9990    3.6130   -8.5850 C.3       9 GLL5        0.0000 
    135 CA          9.4030    2.4980   -6.2880 C.3       6 GLP5        0.0000 
    136 CA         10.8660    1.0300   -7.5005 C.3       3 GLC5        0.0000 
    137 CA          9.2940    1.1350   -6.1750 C.3       6 GLP5        0.0000 
    138 CA         12.9008   -2.0845   -9.6417 C.3       3 GLC5        0.0000 
    139 CA         12.9160   -0.8050   -8.3630 C.3       9 GLL5        0.0000 
    140 CA         12.3430   -3.0710  -11.3280 C.3       6 GLP5        0.0000 
    141 CA         15.4610   -1.1750   -7.0717 C.3       3 GLC5        0.0000 
    142 CA         14.0010   -1.3910   -7.5480 C.3       9 GLL5        0.0000 
    143 CA         17.2980   -0.5560   -7.0610 C.3       6 GLP5        0.0000 
    144 CA         12.2430   -3.5685   -5.7462 C.3       3 GLC5        0.0000 
    145 CA         10.7130   -4.6170   -5.3220 C.3       6 GLP5        0.0000 
    146 CA         11.6064   -2.1187   -7.8226 C.3       3 GLC5        0.0000 
    147 CA         13.2470   -2.1970   -6.6170 C.3       9 GLL5        0.0000 
    148 CA         15.3615   -3.8127   -0.7540 C.3       3 GLC5        0.0000 
    149 CA         16.8820   -4.1110   -2.2120 C.3       9 GLL5        0.0000 
    150 CA         11.9620   -7.9517   -0.6507 C.3       3 GLC5        0.0000 
    151 CA         10.3260   -6.7600   -0.8370 C.3       6 GLP5        0.0000 
    152 CA         13.8054   -7.1735    0.6659 C.3       3 GLC5        0.0000 
    153 CA         17.4255   -5.3639   -0.8558 C.3       3 GLC5        0.0000 
@<TRIPOS>BOND
@<TRIPOS>SUBSTRUCTURE
     1 ALC1        7 GROUP        1 X    ALC  0     ROOT ALC X 1
     2 SEC2       31 GROUP        1 X    SEC  0     **** SEC X 2
     3 GLC5        1 GROUP        1 X    GLC  0     **** GLC X 6
     4 ALP1        9 GROUP        1 Y    ALP  0     ROOT ALP Y 8
     5 SEP2       33 GROUP        1 Y    SEP  0     **** SEP Y 9
     6 GLP5        3 GROUP        1 Y    GLP  0     **** GLP Y 13
     7 ALL1        8 GROUP        1 Z    ALL  0     ROOT ALL Z 15
     8 SEL2       32 GROUP        1 Z    SEL  0     **** SEL Z 16
     9 GLL5        2 GROUP        1 Z    GLL  0     **** GLL Z 20
@<TRIPOS>SET

