#    Name: 1i5r_HYC_1_ligand
#    Modification time : Tue Mar 25 06:42:25 2014

@<TRIPOS>MOLECULE
1i5r_HYC_1_ligand
  100   106     1     0     0
SMALL
NO_CHARGES


@<TRIPOS>ATOM
      1 C1          9.5910   11.4690  -11.3480 C.ar      1 HYC328      0.0000 
      2 C2          8.8490   12.2670  -12.2430 C.ar      1 HYC328      0.0000 
      3 C3          8.4840   11.7920  -13.5070 C.ar      1 HYC328      0.0000 
      4 O3          7.8080   12.5360  -14.3070 O.3       1 HYC328      0.0000 
      5 C4          8.8560   10.4830  -13.9180 C.ar      1 HYC328      0.0000 
      6 C5          9.6040    9.6400  -13.0510 C.ar      1 HYC328      0.0000 
      7 C6          9.9900    8.2060  -13.5490 C.3       1 HYC328      0.0000 
      8 C7         11.1000    7.5010  -12.6550 C.3       1 HYC328      0.0000 
      9 C8         10.6400    7.7270  -11.1740 C.3       1 HYC328      0.0000 
     10 C9         10.7920    9.2360  -10.7870 C.3       1 HYC328      0.0000 
     11 C10         9.9750   10.1410  -11.7500 C.ar      1 HYC328      0.0000 
     12 C11        10.3150    9.4500   -9.2890 C.3       1 HYC328      0.0000 
     13 C12        11.0970    8.5550   -8.2760 C.3       1 HYC328      0.0000 
     14 C13        11.0950    7.0540   -8.6680 C.3       1 HYC328      0.0000 
     15 C14        11.4950    6.8710  -10.1750 C.3       1 HYC328      0.0000 
     16 C15        11.4500    5.2540  -10.4250 C.3       1 HYC328      0.0000 
     17 C16        12.4530    4.9260   -9.1210 C.3       1 HYC328      0.0000 
     18 C17        12.1830    6.0680   -8.0340 C.3       1 HYC328      0.0000 
     19 O17        11.6130    5.6280   -6.8430 O.3       1 HYC328      0.0000 
     20 C18         9.6360    6.4090   -8.4670 C.3       1 HYC328      0.0000 
     21 C21        11.9990    3.6130   -8.5850 C.3       1 HYC328      0.0000 
     22 C22        12.2890    2.6410   -9.6260 C.3       1 HYC328      0.0000 
     23 C23        11.8820    1.1960   -9.2410 C.3       1 HYC328      0.0000 
     24 C24        12.9940    0.6540   -8.4110 C.3       1 HYC328      0.0000 
     25 C25        12.9160   -0.8050   -8.3630 C.3       1 HYC328      0.0000 
     26 C26        14.0010   -1.3910   -7.5480 C.3       1 HYC328      0.0000 
     27 C27        13.2470   -2.1970   -6.6170 C.3       1 HYC328      0.0000 
     28 C28        14.2990   -2.8430   -5.7240 C.3       1 HYC328      0.0000 
     29 C31        16.2250   -6.2660   -1.9410 C.3       1 HYC328      0.0000 
     30 C32        16.8810   -6.2360   -3.2820 C.3       1 HYC328      0.0000 
     31 O32        17.5030   -7.3610   -3.6240 O.3       1 HYC328      0.0000 
     32 C33        17.6560   -5.0180   -3.1390 C.3       1 HYC328      0.0000 
     33 O33        18.8010   -5.2660   -2.6840 O.3       1 HYC328      0.0000 
     34 C34        16.8820   -4.1110   -2.2120 C.3       1 HYC328      0.0000 
     35 O34        15.6900   -4.9350   -1.9090 O.3       1 HYC328      0.0000 
     36 C35        16.2480   -2.7840   -2.7520 C.3       1 HYC328      0.0000 
     37 O35        15.7120   -3.2520   -4.0410 O.3       1 HYC328      0.0000 
     38 C36        14.6950   -2.2150   -4.4750 C.2       1 HYC328      0.0000 
     39 O36        14.2470   -1.2000   -4.0830 O.2       1 HYC328      0.0000 
     40 N41        14.0330   -9.5360    1.2550 N.ar      1 HYC328      0.0000 
     41 C42        15.0830   -8.7200    1.4210 C.ar      1 HYC328      0.0000 
     42 N43        15.5930   -7.8870    0.5150 N.ar      1 HYC328      0.0000 
     43 C44        14.9600   -7.8600   -0.7570 C.ar      1 HYC328      0.0000 
     44 C45        13.7930   -8.7260   -1.0340 C.ar      1 HYC328      0.0000 
     45 C46        13.4030   -9.5610    0.1050 C.ar      1 HYC328      0.0000 
     46 N46        12.2890  -10.3840   -0.1710 N.pl3     1 HYC328      0.0000 
     47 N47        13.3050   -8.5660   -2.3290 N.2       1 HYC328      0.0000 
     48 C48        14.2030   -7.6110   -2.7680 C.2       1 HYC328      0.0000 
     49 N49        15.1900   -7.1520   -1.9150 N.pl3     1 HYC328      0.0000 
     50 H           9.8557   11.8117  -10.4356 H         1 HYC328      0.0000 
     51 H           8.5722   13.2192  -11.9553 H         1 HYC328      0.0000 
     52 H           8.5841   10.1454  -14.8428 H         1 HYC328      0.0000 
     53 H          10.3680    8.2730  -14.5688 H         1 HYC328      0.0000 
     54 H           9.1008    7.5762  -13.5448 H         1 HYC328      0.0000 
     55 H          12.0235    7.9835  -12.8178 H         1 HYC328      0.0000 
     56 H          11.1051    6.4690  -12.8719 H         1 HYC328      0.0000 
     57 H           9.6171    7.4517  -11.0749 H         1 HYC328      0.0000 
     58 H          11.8273    9.5022  -10.8436 H         1 HYC328      0.0000 
     59 H           9.2562    9.2131   -9.2323 H         1 HYC328      0.0000 
     60 H          10.4629   10.4951   -9.0312 H         1 HYC328      0.0000 
     61 H          10.6424    8.6659   -7.2897 H         1 HYC328      0.0000 
     62 H          12.1288    8.9078   -8.2234 H         1 HYC328      0.0000 
     63 H          12.5471    7.1440  -10.2567 H         1 HYC328      0.0000 
     64 H          11.9591    5.0395  -11.2527 H         1 HYC328      0.0000 
     65 H          10.5431    4.9153  -10.1947 H         1 HYC328      0.0000 
     66 H          13.4076    4.9487   -9.4532 H         1 HYC328      0.0000 
     67 H          13.0649    6.6428   -7.9257 H         1 HYC328      0.0000 
     68 H          10.9387    3.6545   -8.3795 H         1 HYC328      0.0000 
     69 H          12.5445    3.3847   -7.6803 H         1 HYC328      0.0000 
     70 H          13.3676    2.6253   -9.8666 H         1 HYC328      0.0000 
     71 H          11.7605    2.8923  -10.5636 H         1 HYC328      0.0000 
     72 H          11.7619    0.6251  -10.1409 H         1 HYC328      0.0000 
     73 H          10.9695    1.2378   -8.6791 H         1 HYC328      0.0000 
     74 H          12.9264    1.0726   -7.3995 H         1 HYC328      0.0000 
     75 H          13.9523    0.9704   -8.8407 H         1 HYC328      0.0000 
     76 H          12.9656   -1.2187   -9.3881 H         1 HYC328      0.0000 
     77 H          11.9388   -1.1165   -7.9476 H         1 HYC328      0.0000 
     78 H          14.5376   -0.6182   -7.0470 H         1 HYC328      0.0000 
     79 H          14.6318   -1.9931   -8.1609 H         1 HYC328      0.0000 
     80 H          12.6978   -2.9744   -7.1155 H         1 HYC328      0.0000 
     81 H          12.5993   -1.5980   -6.0037 H         1 HYC328      0.0000 
     82 H          15.2217   -3.0179   -6.3729 H         1 HYC328      0.0000 
     83 H          13.9502   -3.9107   -5.5208 H         1 HYC328      0.0000 
     84 H          16.9568   -6.3809   -1.2057 H         1 HYC328      0.0000 
     85 H          16.0338   -5.9676   -3.9774 H         1 HYC328      0.0000 
     86 H          17.6474   -4.5112   -4.1198 H         1 HYC328      0.0000 
     87 H          17.3923   -3.9337   -1.3128 H         1 HYC328      0.0000 
     88 H          17.0185   -2.0817   -2.8780 H         1 HYC328      0.0000 
     89 H          15.4854   -2.4939   -2.0909 H         1 HYC328      0.0000 
     90 H          15.5676   -8.7424    2.3990 H         1 HYC328      0.0000 
     91 H          12.2336  -11.2377    0.3468 H         1 HYC328      0.0000 
     92 H          11.6502  -10.0431   -0.8608 H         1 HYC328      0.0000 
     93 H          14.1374   -7.2425   -3.7271 H         1 HYC328      0.0000 
     94 H           9.6208    5.4403   -8.7149 H         1 HYC328      0.0000 
     95 H           9.3291    6.4734   -7.5174 H         1 HYC328      0.0000 
     96 H           8.9471    6.8663   -9.0294 H         1 HYC328      0.0000 
     97 H           7.7924   12.0369  -15.1733 H         1 HYC328      0.0000 
     98 H          12.3879    5.4356   -6.2409 H         1 HYC328      0.0000 
     99 H          18.4368   -7.2544   -3.2825 H         1 HYC328      0.0000 
    100 H          19.4172   -4.6641   -3.1919 H         1 HYC328      0.0000 
@<TRIPOS>BOND
     1    2    1 ar   
     2   11    1 ar   
     3   50    1 1    
     4    3    2 ar   
     5   51    2 1    
     6    4    3 1    
     7    5    3 ar   
     8   97    4 1    
     9    6    5 ar   
    10   52    5 1    
    11    7    6 1    
    12   11    6 ar   
    13    8    7 1    
    14   53    7 1    
    15   54    7 1    
    16    9    8 1    
    17   55    8 1    
    18   56    8 1    
    19   10    9 1    
    20   15    9 1    
    21   57    9 1    
    22   11   10 1    
    23   12   10 1    
    24   58   10 1    
    25   13   12 1    
    26   59   12 1    
    27   60   12 1    
    28   14   13 1    
    29   61   13 1    
    30   62   13 1    
    31   15   14 1    
    32   18   14 1    
    33   20   14 1    
    34   16   15 1    
    35   63   15 1    
    36   17   16 1    
    37   64   16 1    
    38   65   16 1    
    39   18   17 1    
    40   21   17 1    
    41   66   17 1    
    42   19   18 1    
    43   67   18 1    
    44   98   19 1    
    45   94   20 1    
    46   95   20 1    
    47   96   20 1    
    48   22   21 1    
    49   68   21 1    
    50   69   21 1    
    51   23   22 1    
    52   70   22 1    
    53   71   22 1    
    54   24   23 1    
    55   72   23 1    
    56   73   23 1    
    57   25   24 1    
    58   74   24 1    
    59   75   24 1    
    60   26   25 1    
    61   76   25 1    
    62   77   25 1    
    63   27   26 1    
    64   78   26 1    
    65   79   26 1    
    66   28   27 1    
    67   80   27 1    
    68   81   27 1    
    69   38   28 1    
    70   82   28 1    
    71   83   28 1    
    72   30   29 1    
    73   35   29 1    
    74   49   29 1    
    75   84   29 1    
    76   31   30 1    
    77   32   30 1    
    78   85   30 1    
    79   99   31 1    
    80   33   32 1    
    81   34   32 1    
    82   86   32 1    
    83  100   33 1    
    84   35   34 1    
    85   36   34 1    
    86   87   34 1    
    87   37   36 1    
    88   88   36 1    
    89   89   36 1    
    90   38   37 1    
    91   39   38 2    
    92   41   40 ar   
    93   45   40 ar   
    94   42   41 ar   
    95   90   41 1    
    96   43   42 ar   
    97   44   43 ar   
    98   49   43 1    
    99   45   44 ar   
   100   47   44 1    
   101   46   45 1    
   102   91   46 1    
   103   92   46 1    
   104   48   47 2    
   105   49   48 1    
   106   93   48 1    
@<TRIPOS>SUBSTRUCTURE
     1 HYC328      1 GROUP   
@<TRIPOS>SET

