#    Name: 2r87_ADP_2_INTS_M
#    Modification time : Mon Mar 24 23:20:48 2014

@<TRIPOS>MOLECULE
2r87_ADP_2_INTS_M
   55     0    12     0     0
SMALL
NO_CHARGES


@<TRIPOS>ATOM
      1 N         -26.6165  -16.6395  -15.2365 N.am      2 SEC2        0.0000 
      2 N         -27.4010  -16.3810  -14.1100 N.am     10 SEL2        0.0000 
      3 N         -25.8320  -16.8980  -16.3630 N.am      6 SEP2        0.0000 
      4 NZ        -31.4270  -12.9165  -15.1900 N.4       3 LYC4        0.0000 
      5 NZ        -29.9680  -13.5270  -14.7150 N.4      11 LYL4        0.0000 
      6 NZ        -32.8860  -12.3060  -15.6650 N.4       7 LYP4        0.0000 
      7 N         -31.4270  -12.9165  -15.1900 N.am      2 SEC2        0.0000 
      8 N         -29.9680  -13.5270  -14.7150 N.am     10 SEL2        0.0000 
      9 N         -32.8860  -12.3060  -15.6650 N.am      6 SEP2        0.0000 
     10 N         -30.1075  -14.6125  -15.4045 N.am      2 SEC2        0.0000 
     11 N         -30.2470  -15.6980  -16.0940 N.am      6 SEP2        0.0000 
     12 CA        -28.2210  -13.1950  -16.7320 C.3       4 GLC5        0.0000 
     13 CA        -26.9470  -12.1020  -15.5980 C.3      12 GLL5        0.0000 
     14 CA        -29.4950  -14.2880  -17.8660 C.3       8 GLP5        0.0000 
     15 N         -24.8615   -7.9455  -17.1700 N.am      2 SEC2        0.0000 
     16 N         -25.2060   -8.9710  -16.3410 N.am     10 SEL2        0.0000 
     17 N         -24.5170   -6.9200  -17.9990 N.am      6 SEP2        0.0000 
     18 O         -23.9185   -9.1800  -16.5180 O.2       1 ALC1        0.0000 
     19 O         -25.2060   -8.9710  -16.3410 O.2       9 ALL1        0.0000 
     20 O         -22.6310   -9.3890  -16.6950 O.2       5 ALP1        0.0000 
     21 O         -24.0270   -9.7155  -15.5715 O.2       1 ALC1        0.0000 
     22 O         -22.8480  -10.4600  -14.8020 O.2       5 ALP1        0.0000 
     23 CA        -26.8100   -9.5175  -18.8205 C.3       4 GLC5        0.0000 
     24 CA        -28.1300   -9.2640  -17.1330 C.3      12 GLL5        0.0000 
     25 CA        -25.4900   -9.7710  -20.5080 C.3       8 GLP5        0.0000 
     26 N         -32.2980  -11.0965  -16.1700 N.am      2 SEC2        0.0000 
     27 N         -31.7100   -9.8870  -16.6750 N.am     10 SEL2        0.0000 
     28 CA        -32.3480  -10.7945  -17.2080 C.3       4 GLC5        0.0000 
     29 CA        -31.7730   -8.7350  -17.3660 C.3      12 GLL5        0.0000 
     30 CA        -32.9230  -12.8540  -17.0500 C.3       8 GLP5        0.0000 
     31 CA        -33.6405   -6.9370  -19.5535 C.3       4 GLC5        0.0000 
     32 CA        -32.8480   -7.8540  -17.8720 C.3      12 GLL5        0.0000 
     33 CA        -34.4330   -6.0200  -21.2350 C.3       8 GLP5        0.0000 
     34 O         -34.6575   -9.2915  -16.9740 O.2       1 ALC1        0.0000 
     35 O         -34.1520   -8.1560  -17.6610 O.2       9 ALL1        0.0000 
     36 O         -35.1630  -10.4270  -16.2870 O.2       5 ALP1        0.0000 
     37 O         -35.1355   -7.5460  -18.4450 O.2       1 ALC1        0.0000 
     38 O         -36.1190   -6.9360  -19.2290 O.2       5 ALP1        0.0000 
     39 N         -33.1970   -5.5875  -19.0125 N.am      2 SEC2        0.0000 
     40 N         -32.4810   -6.7390  -18.5400 N.am     10 SEL2        0.0000 
     41 N         -33.9130   -4.4360  -19.4850 N.am      6 SEP2        0.0000 
     42 CA        -32.8115   -6.2210  -19.9970 C.3       4 GLC5        0.0000 
     43 CA        -31.1900   -6.4220  -18.7590 C.3      12 GLL5        0.0000 
     44 CA        -32.5450   -4.7805  -18.7875 C.3       4 GLC5        0.0000 
     45 CA        -33.9000   -3.1390  -18.8160 C.3       8 GLP5        0.0000 
     46 CA        -30.3435   -9.6655  -19.3245 C.3       4 GLC5        0.0000 
     47 CA        -30.3880   -8.3250  -17.6430 C.3      12 GLL5        0.0000 
     48 CA        -30.2990  -11.0060  -21.0060 C.3       8 GLP5        0.0000 
     49 CA        -25.5912  -10.4430  -17.8743 C.3       4 GLC5        0.0000 
     50 CA        -26.5850  -10.9210  -16.4950 C.3      12 GLL5        0.0000 
     51 CA        -24.7510  -10.5940  -19.6520 C.3       8 GLP5        0.0000 
     52 CA        -29.0275   -7.9165  -15.4853 C.3       4 GLC5        0.0000 
     53 CA        -30.2230   -6.7870  -14.5040 C.3       8 GLP5        0.0000 
     54 CA        -32.8573   -9.3163  -19.0085 C.3       4 GLC5        0.0000 
     55 CA        -33.4040  -10.3380  -20.3980 C.3       8 GLP5        0.0000 
@<TRIPOS>BOND
@<TRIPOS>SUBSTRUCTURE
     1 ALC1       18 GROUP        1 X    ALC  0     ROOT ALC X 1
     2 SEC2        1 GROUP        1 X    SEC  0     **** SEC X 2
     3 LYC4        4 GROUP        1 X    LYC  0     **** LYC X 4
     4 GLC5       12 GROUP        1 X    GLC  0     **** GLC X 6
     5 ALP1       20 GROUP        1 Y    ALP  0     ROOT ALP Y 8
     6 SEP2        3 GROUP        1 Y    SEP  0     **** SEP Y 9
     7 LYP4        6 GROUP        1 Y    LYP  0     **** LYP Y 11
     8 GLP5       14 GROUP        1 Y    GLP  0     **** GLP Y 13
     9 ALL1       19 GROUP        1 Z    ALL  0     ROOT ALL Z 15
    10 SEL2        2 GROUP        1 Z    SEL  0     **** SEL Z 16
    11 LYL4        5 GROUP        1 Z    LYL  0     **** LYL Z 18
    12 GLL5       13 GROUP        1 Z    GLL  0     **** GLL Z 20
@<TRIPOS>SET

