#    Name: 2r87_ADP_2_ligand
#    Modification time : Mon Mar 24 23:20:48 2014

@<TRIPOS>MOLECULE
2r87_ADP_2_ligand
   39    41     1     0     0
SMALL
NO_CHARGES


@<TRIPOS>ATOM
      1 PB        -27.8250  -15.4170  -13.0210 P.3       1 ADP400      0.0000 
      2 O1B       -26.8770  -15.3430  -11.8380 O.co2     1 ADP400      0.0000 
      3 O2B       -27.4010  -16.3810  -14.1100 O.co2     1 ADP400      0.0000 
      4 O3B       -29.2840  -15.5490  -12.6430 O.co2     1 ADP400      0.0000 
      5 PA        -28.8530  -12.8930  -13.9120 P.3       1 ADP400      0.0000 
      6 O1A       -29.1600  -12.2180  -12.5930 O.co2     1 ADP400      0.0000 
      7 O2A       -29.9680  -13.5270  -14.7150 O.co2     1 ADP400      0.0000 
      8 O3A       -27.6610  -13.9600  -13.7030 O.3       1 ADP400      0.0000 
      9 O5'       -28.1350  -11.8060  -14.8590 O.3       1 ADP400      0.0000 
     10 C5'       -26.9470  -12.1020  -15.5980 C.3       1 ADP400      0.0000 
     11 C4'       -26.5850  -10.9210  -16.4950 C.3       1 ADP400      0.0000 
     12 O4'       -27.6730  -10.5980  -17.3690 O.3       1 ADP400      0.0000 
     13 C3'       -26.2780   -9.6630  -15.6980 C.3       1 ADP400      0.0000 
     14 O3'       -25.2060   -8.9710  -16.3410 O.3       1 ADP400      0.0000 
     15 C2'       -27.5340   -8.8280  -15.8000 C.3       1 ADP400      0.0000 
     16 O2'       -27.2330   -7.4260  -15.7540 O.3       1 ADP400      0.0000 
     17 C1'       -28.1300   -9.2640  -17.1330 C.3       1 ADP400      0.0000 
     18 N9        -29.6120   -9.2620  -17.0980 N.pl3     1 ADP400      0.0000 
     19 C8        -30.3980  -10.1960  -16.5250 C.2       1 ADP400      0.0000 
     20 N7        -31.7100   -9.8870  -16.6750 N.2       1 ADP400      0.0000 
     21 C5        -31.7730   -8.7350  -17.3660 C.ar      1 ADP400      0.0000 
     22 C6        -32.8480   -7.8540  -17.8720 C.ar      1 ADP400      0.0000 
     23 N6        -34.1520   -8.1560  -17.6610 N.pl3     1 ADP400      0.0000 
     24 N1        -32.4810   -6.7390  -18.5400 N.ar      1 ADP400      0.0000 
     25 C2        -31.1900   -6.4220  -18.7590 C.ar      1 ADP400      0.0000 
     26 N3        -30.1640   -7.1790  -18.3320 N.ar      1 ADP400      0.0000 
     27 C4        -30.3880   -8.3250  -17.6430 C.ar      1 ADP400      0.0000 
     28 H         -27.0771  -12.9823  -16.2389 H         1 ADP400      0.0000 
     29 H         -26.0945  -12.2933  -14.9352 H         1 ADP400      0.0000 
     30 H         -25.7051  -11.1754  -17.0695 H         1 ADP400      0.0000 
     31 H         -26.0924   -9.9122  -14.7063 H         1 ADP400      0.0000 
     32 H         -28.2003   -9.1427  -15.0241 H         1 ADP400      0.0000 
     33 H         -27.7741   -8.6018  -17.8951 H         1 ADP400      0.0000 
     34 H         -30.0684  -10.9950  -16.0600 H         1 ADP400      0.0000 
     35 H         -34.3319   -8.9971  -17.1509 H         1 ADP400      0.0000 
     36 H         -34.8190   -7.5111  -18.0341 H         1 ADP400      0.0000 
     37 H         -30.9728   -5.5287  -19.2962 H         1 ADP400      0.0000 
     38 H         -24.4076   -9.5607  -16.2194 H         1 ADP400      0.0000 
     39 H         -26.2343   -7.3758  -15.7524 H         1 ADP400      0.0000 
@<TRIPOS>BOND
     1    2    1 ar   
     2    3    1 ar   
     3    4    1 ar   
     4    8    1 1    
     5    6    5 ar   
     6    7    5 ar   
     7    8    5 1    
     8    9    5 1    
     9   10    9 1    
    10   11   10 1    
    11   28   10 1    
    12   29   10 1    
    13   12   11 1    
    14   13   11 1    
    15   30   11 1    
    16   17   12 1    
    17   14   13 1    
    18   15   13 1    
    19   31   13 1    
    20   38   14 1    
    21   16   15 1    
    22   17   15 1    
    23   32   15 1    
    24   39   16 1    
    25   18   17 1    
    26   33   17 1    
    27   19   18 1    
    28   27   18 1    
    29   20   19 2    
    30   34   19 1    
    31   21   20 1    
    32   22   21 ar   
    33   27   21 ar   
    34   23   22 1    
    35   24   22 ar   
    36   35   23 1    
    37   36   23 1    
    38   25   24 ar   
    39   26   25 ar   
    40   37   25 1    
    41   27   26 ar   
@<TRIPOS>SUBSTRUCTURE
     1 ADP400      1 GROUP   
@<TRIPOS>SET

