#    Name: 3d2i_AK3_1_INTS_M
#    Modification time : Mon Mar 24 22:35:39 2014

@<TRIPOS>MOLECULE
3d2i_AK3_1_INTS_M
   93     0     9     0     0
SMALL
NO_CHARGES


@<TRIPOS>ATOM
      1 CA         14.3525   21.3040    9.6985 C.3       3 GLC5        0.0000 
      2 CA         12.7030   20.3960    8.9210 C.3       9 GLL5        0.0000 
      3 CA         16.0020   22.2120   10.4760 C.3       6 GLP5        0.0000 
      4 CA         11.5215   17.0690    7.2150 C.3       3 GLC5        0.0000 
      5 CA         12.2510   19.0120    6.9890 C.3       9 GLL5        0.0000 
      6 CA         10.7920   15.1260    7.4410 C.3       6 GLP5        0.0000 
      7 CA          2.8595   29.9675    9.8030 C.3       3 GLC5        0.0000 
      8 CA          4.3060   31.0700    9.4380 C.3       9 GLL5        0.0000 
      9 CA          1.4130   28.8650   10.1680 C.3       6 GLP5        0.0000 
     10 CA          5.6750   30.8120   10.5955 C.3       3 GLC5        0.0000 
     11 CA          7.0440   30.5540   11.7530 C.3       6 GLP5        0.0000 
     12 CA          3.0630   31.9170   10.6565 C.3       3 GLC5        0.0000 
     13 CA          1.8200   32.7640   11.8750 C.3       6 GLP5        0.0000 
     14 CA          4.7140   33.1545    9.4805 C.3       3 GLC5        0.0000 
     15 CA          5.1220   35.2390    9.5230 C.3       6 GLP5        0.0000 
     16 CA          6.3265   31.6410    8.8275 C.3       3 GLC5        0.0000 
     17 CA          8.3470   32.2120    8.2170 C.3       6 GLP5        0.0000 
     18 CA          9.3015   21.8635    6.6135 C.3       3 GLC5        0.0000 
     19 CA         10.9120   20.9660    7.4290 C.3       9 GLL5        0.0000 
     20 CA          7.6910   22.7610    5.7980 C.3       6 GLP5        0.0000 
     21 CA          2.0510   31.2080    7.0315 C.3       3 GLC5        0.0000 
     22 CA          3.9140   32.0660    7.1840 C.3       9 GLL5        0.0000 
     23 CA          0.1880   30.3500    6.8790 C.3       6 GLP5        0.0000 
     24 CA          4.5180   33.6525    8.3535 C.3       3 GLC5        0.0000 
     25 CA          6.8060   31.0930    7.8405 C.3       3 GLC5        0.0000 
     26 CA          5.2650   29.9740    7.4640 C.3       9 GLL5        0.0000 
     27 CA          2.7560   30.5335    5.5550 C.3       3 GLC5        0.0000 
     28 CA          4.6370   31.0290    6.6160 C.3       9 GLL5        0.0000 
     29 CA          0.8750   30.0380    4.4940 C.3       6 GLP5        0.0000 
     30 CA          8.0915   29.0570   10.9795 C.3       3 GLC5        0.0000 
     31 CA          9.1390   27.5600   10.2060 C.3       9 GLL5        0.0000 
     32 CA          8.0240   27.1045   11.5660 C.3       3 GLC5        0.0000 
     33 CA          6.9090   26.6490   12.9260 C.3       6 GLP5        0.0000 
     34 CA         11.2475   27.2325   10.0320 C.3       3 GLC5        0.0000 
     35 CA         13.3560   26.9050    9.8580 C.3       6 GLP5        0.0000 
     36 CA          7.4935   29.4850    9.9555 C.3       3 GLC5        0.0000 
     37 CA          7.9430   28.4160    8.1580 C.3       9 GLL5        0.0000 
     38 CA          8.1450   30.3140    8.1875 C.3       3 GLC5        0.0000 
     39 CA          4.8015   27.4135    7.1560 C.3       3 GLC5        0.0000 
     40 CA          6.6250   27.8700    7.6190 C.3       9 GLL5        0.0000 
     41 CA          2.9780   26.9570    6.6930 C.3       6 GLP5        0.0000 
     42 CA         12.2100   16.2080    8.2655 C.3       3 GLC5        0.0000 
     43 CA         13.6280   17.2900    9.0900 C.3       9 GLL5        0.0000 
     44 CA         12.8270   16.9910   10.6060 C.3       3 GLC5        0.0000 
     45 CA         12.0260   16.6920   12.1220 C.3       6 GLP5        0.0000 
     46 N          11.2520   27.3200   10.4240 N.am      2 SEC2        0.0000 
     47 N           9.7550   26.5100   10.4590 N.am      8 SEL2        0.0000 
     48 N          12.7490   28.1300   10.3890 N.am      5 SEP2        0.0000 
     49 CA          8.0605   24.3175    7.6995 C.3       3 GLC5        0.0000 
     50 CA          9.1820   25.9620    8.2800 C.3       9 GLL5        0.0000 
     51 CA          6.9390   22.6730    7.1190 C.3       6 GLP5        0.0000 
     52 CA          7.4330   26.0415    9.5355 C.3       3 GLC5        0.0000 
     53 CA          5.6840   26.1210   10.7910 C.3       6 GLP5        0.0000 
     54 CA         11.3215   26.4565    8.3055 C.3       3 GLC5        0.0000 
     55 CA         13.4610   26.9510    8.3310 C.3       6 GLP5        0.0000 
     56 CA          3.0260   30.2955    4.3020 C.3       3 GLC5        0.0000 
     57 CA          5.1770   30.5530    4.1100 C.3       9 GLL5        0.0000 
     58 CA          6.5255   31.9065    3.5180 C.3       3 GLC5        0.0000 
     59 CA          7.8740   33.2600    2.9260 C.3       6 GLP5        0.0000 
     60 CA          6.1865   32.0000    5.2575 C.3       3 GLC5        0.0000 
     61 CA          7.1960   33.4470    6.4050 C.3       6 GLP5        0.0000 
     62 N           3.4280   33.1605    9.4815 N.am      2 SEC2        0.0000 
     63 N           3.7720   32.0780    8.5320 N.am      8 SEL2        0.0000 
     64 N           3.0840   34.2430   10.4310 N.am      5 SEP2        0.0000 
     65 CA         14.0780   18.1890   11.0610 C.3       3 GLC5        0.0000 
     66 CA         14.9910   18.9590    9.2850 C.3       9 GLL5        0.0000 
     67 CA         13.1650   17.4190   12.8370 C.3       6 GLP5        0.0000 
     68 CA         15.4965   20.5855    9.8805 C.3       3 GLC5        0.0000 
     69 O          11.9960   22.1285   10.5515 O.2       1 ALC1        0.0000 
     70 O          11.3910   22.3300    9.3560 O.2       7 ALL1        0.0000 
     71 O          12.6010   21.9270   11.7470 O.2       4 ALP1        0.0000 
     72 O          11.5895   23.0890   10.8880 O.2       1 ALC1        0.0000 
     73 O          11.7880   23.8480   12.4200 O.2       4 ALP1        0.0000 
     74 O          11.1695   24.1240   11.1200 O.2       1 ALC1        0.0000 
     75 O          10.5510   24.4000    9.8200 O.2       7 ALL1        0.0000 
     76 CA         10.8153   19.0297    5.1133 C.3       3 GLC5        0.0000 
     77 CA          9.9010   18.6240    3.4140 C.3       6 GLP5        0.0000 
     78 CA          9.6254   19.5769    6.8844 C.3       3 GLC5        0.0000 
     79 CA         11.2080   19.8590    6.6360 C.3       9 GLL5        0.0000 
     80 CA          7.9300   18.9530    6.6480 C.3       6 GLP5        0.0000 
     81 CA          5.7357   32.4973    6.6525 C.3       3 GLC5        0.0000 
     82 CA          3.9645   28.7293    6.8665 C.3       3 GLC5        0.0000 
     83 CA          9.7286   29.2485    9.4971 C.3       3 GLC5        0.0000 
     84 CA          8.7360   27.3640    8.9110 C.3       9 GLL5        0.0000 
     85 CA         11.0170   30.5580   10.1360 C.3       6 GLP5        0.0000 
     86 CA          6.5831   27.0005    9.4339 C.3       3 GLC5        0.0000 
     87 CA         15.0540   16.2866    7.8502 C.3       3 GLC5        0.0000 
     88 CA         14.1220   18.3550    8.4880 C.3       9 GLL5        0.0000 
     89 CA         15.8070   14.6720    7.6180 C.3       6 GLP5        0.0000 
     90 CA         15.8495   17.6334   10.0510 C.3       3 GLC5        0.0000 
     91 CA         17.2660   16.8760   11.0650 C.3       6 GLP5        0.0000 
     92 CA         11.4114   19.5799    9.9999 C.3       3 GLC5        0.0000 
     93 CA         10.5710   18.6180   11.4470 C.3       6 GLP5        0.0000 
@<TRIPOS>BOND
@<TRIPOS>SUBSTRUCTURE
     1 ALC1       69 GROUP        1 X    ALC  0     ROOT ALC X 1
     2 SEC2       46 GROUP        1 X    SEC  0     **** SEC X 2
     3 GLC5        1 GROUP        1 X    GLC  0     **** GLC X 6
     4 ALP1       71 GROUP        1 Y    ALP  0     ROOT ALP Y 8
     5 SEP2       48 GROUP        1 Y    SEP  0     **** SEP Y 9
     6 GLP5        3 GROUP        1 Y    GLP  0     **** GLP Y 13
     7 ALL1       70 GROUP        1 Z    ALL  0     ROOT ALL Z 15
     8 SEL2       47 GROUP        1 Z    SEL  0     **** SEL Z 16
     9 GLL5        2 GROUP        1 Z    GLL  0     **** GLL Z 20
@<TRIPOS>SET

