#    Name: 3d2i_AK3_1_ligand
#    Modification time : Mon Mar 24 22:35:39 2014

@<TRIPOS>MOLECULE
3d2i_AK3_1_ligand
   49    52     1     0     0
SMALL
NO_CHARGES


@<TRIPOS>ATOM
      1 C31         3.4400   32.9050    6.1900 C.2       1 AK31        0.0000 
      2 N29         4.6100   31.2430    5.2990 N.pl3     1 AK31        0.0000 
      3 C24        12.7030   20.3960    8.9210 C.ar      1 AK31        0.0000 
      4 C23        13.0000   19.2830    8.1300 C.ar      1 AK31        0.0000 
      5 C22        12.2510   19.0120    6.9890 C.ar      1 AK31        0.0000 
      6 C17         4.3060   31.0700    9.4380 C.ar      1 AK31        0.0000 
      7 C20        10.9120   20.9660    7.4290 C.ar      1 AK31        0.0000 
      8 C15         3.9140   32.0660    7.1840 C.ar      1 AK31        0.0000 
      9 C13         5.2650   29.9740    7.4640 C.ar      1 AK31        0.0000 
     10 C14         4.6370   31.0290    6.6160 C.ar      1 AK31        0.0000 
     11 C10        10.7070   23.4060    8.9400 C.2       1 AK31        0.0000 
     12 C8          9.8950   25.5410    9.5740 C.2       1 AK31        0.0000 
     13 C4          8.7360   27.3640    8.9110 C.2       1 AK31        0.0000 
     14 C6          9.1390   27.5600   10.2060 C.2       1 AK31        0.0000 
     15 C3          7.9430   28.4160    8.1580 C.3       1 AK31        0.0000 
     16 C2          6.6250   27.8700    7.6190 C.3       1 AK31        0.0000 
     17 F28        13.6280   17.2900    9.0900 F         1 AK31        0.0000 
     18 N7          9.7550   26.5100   10.4590 N.2       1 AK31        0.0000 
     19 S5          9.1820   25.9620    8.2800 S.3       1 AK31        0.0000 
     20 C32         5.1770   30.5530    4.1100 C.3       1 AK31        0.0000 
     21 N30         3.8720   32.3960    5.0090 N.2       1 AK31        0.0000 
     22 N16         3.7720   32.0780    8.5320 N.ar      1 AK31        0.0000 
     23 N18         5.0920   30.0380    8.7860 N.ar      1 AK31        0.0000 
     24 N1          5.9690   28.9750    6.9260 N.pl3     1 AK31        0.0000 
     25 C25        14.1220   18.3550    8.4880 C.3       1 AK31        0.0000 
     26 F26        14.7270   17.9800    7.3760 F         1 AK31        0.0000 
     27 F27        14.9910   18.9590    9.2850 F         1 AK31        0.0000 
     28 C21        11.2080   19.8590    6.6360 C.ar      1 AK31        0.0000 
     29 C19        11.6520   21.2440    8.5800 C.ar      1 AK31        0.0000 
     30 N11        11.3910   22.3300    9.3560 N.am      1 AK31        0.0000 
     31 O12        10.2370   23.4810    7.8110 O.2       1 AK31        0.0000 
     32 N9         10.5510   24.4000    9.8200 N.am      1 AK31        0.0000 
     33 H           2.9156   33.6818    6.3256 H         1 AK31        0.0000 
     34 H          13.2662   20.5889    9.7614 H         1 AK31        0.0000 
     35 H          12.4684   18.1919    6.4130 H         1 AK31        0.0000 
     36 H           4.1492   31.0887   10.3907 H         1 AK31        0.0000 
     37 H          10.1333   21.5913    7.1623 H         1 AK31        0.0000 
     38 H           8.9507   28.3388   10.7143 H         1 AK31        0.0000 
     39 H           8.5428   28.7920    7.3208 H         1 AK31        0.0000 
     40 H           7.7335   29.2595    8.8263 H         1 AK31        0.0000 
     41 H           6.0309   27.5208    8.4499 H         1 AK31        0.0000 
     42 H           6.8396   27.0560    6.9432 H         1 AK31        0.0000 
     43 H           6.0948   28.9392    5.8513 H         1 AK31        0.0000 
     44 H          10.6540   19.6710    5.7911 H         1 AK31        0.0000 
     45 H          11.7580   22.3177   10.3613 H         1 AK31        0.0000 
     46 H          10.9845   24.2748   10.7992 H         1 AK31        0.0000 
     47 H           6.1749   30.5024    4.1507 H         1 AK31        0.0000 
     48 H           4.8391   29.6154    4.0285 H         1 AK31        0.0000 
     49 H           4.9419   31.0242    3.2599 H         1 AK31        0.0000 
@<TRIPOS>BOND
     1    8    1 1    
     2   21    1 2    
     3   33    1 1    
     4   10    2 1    
     5   20    2 1    
     6   21    2 1    
     7    4    3 ar   
     8   29    3 ar   
     9   34    3 1    
    10    5    4 ar   
    11   25    4 1    
    12   28    5 ar   
    13   35    5 1    
    14   22    6 ar   
    15   23    6 ar   
    16   36    6 1    
    17   28    7 ar   
    18   29    7 ar   
    19   37    7 1    
    20   10    8 ar   
    21   22    8 ar   
    22   10    9 ar   
    23   23    9 ar   
    24   24    9 1    
    25   30   11 am   
    26   31   11 2    
    27   32   11 am   
    28   18   12 2    
    29   19   12 1    
    30   32   12 1    
    31   14   13 2    
    32   15   13 1    
    33   19   13 1    
    34   18   14 1    
    35   38   14 1    
    36   16   15 1    
    37   39   15 1    
    38   40   15 1    
    39   24   16 1    
    40   41   16 1    
    41   42   16 1    
    42   25   17 1    
    43   47   20 1    
    44   48   20 1    
    45   49   20 1    
    46   43   24 1    
    47   26   25 1    
    48   27   25 1    
    49   44   28 1    
    50   30   29 1    
    51   45   30 1    
    52   46   32 1    
@<TRIPOS>SUBSTRUCTURE
     1 AK31        1 GROUP   
@<TRIPOS>SET

