#    Name: 1v35_NAI_2_INTS_M
#    Modification time : Tue Mar 25 07:28:26 2014

@<TRIPOS>MOLECULE
1v35_NAI_2_INTS_M
   90     0     9     0     0
SMALL
NO_CHARGES


@<TRIPOS>ATOM
      1 N           7.0560  100.4240   29.8040 N.am      2 SEC2        0.0000 
      2 N           7.6550  101.0380   31.0410 N.am      8 SEL2        0.0000 
      3 N           6.4570   99.8100   28.5670 N.am      5 SEP2        0.0000 
      4 N           7.1520   98.5895   32.9065 N.am      2 SEC2        0.0000 
      5 N           8.4660   99.3500   32.9850 N.am      8 SEL2        0.0000 
      6 N           5.8380   97.8290   32.8280 N.am      5 SEP2        0.0000 
      7 CA          9.4365  104.9745   34.8190 C.3       3 GLC5        0.0000 
      8 CA          8.6290  104.1310   33.2120 C.3       9 GLL5        0.0000 
      9 CA         10.2440  105.8180   36.4260 C.3       6 GLP5        0.0000 
     10 CA          5.1320  106.8950   32.2705 C.3       3 GLC5        0.0000 
     11 CA          6.5160  105.3590   32.8420 C.3       9 GLL5        0.0000 
     12 CA          3.7480  108.4310   31.6990 C.3       6 GLP5        0.0000 
     13 CA          8.9970  106.0300   34.7460 C.3       3 GLC5        0.0000 
     14 CA          7.7500  106.2420   33.0660 C.3       9 GLL5        0.0000 
     15 CA          6.2785  107.6325   33.9205 C.3       3 GLC5        0.0000 
     16 CA          4.8070  109.0230   34.7750 C.3       6 GLP5        0.0000 
     17 CA          9.8075  106.7240   32.9955 C.3       3 GLC5        0.0000 
     18 CA         11.8650  107.2060   32.9250 C.3       6 GLP5        0.0000 
     19 CA          9.8940  112.0070   32.6975 C.3       3 GLC5        0.0000 
     20 CA          8.1300  111.0770   32.0170 C.3       9 GLL5        0.0000 
     21 CA         11.6580  112.9370   33.3780 C.3       6 GLP5        0.0000 
     22 O           7.6165  113.4120   31.8405 O.2       1 ALC1        0.0000 
     23 O           8.1050  112.0170   31.0980 O.2       7 ALL1        0.0000 
     24 O           7.1280  114.8070   32.5830 O.2       4 ALP1        0.0000 
     25 O           8.1310  113.6125   30.4955 O.2       1 ALC1        0.0000 
     26 O           8.1570  115.2080   29.8930 O.2       4 ALP1        0.0000 
     27 N           8.9675  112.6175   33.8090 N.am      2 SEC2        0.0000 
     28 N           8.3460  111.3550   33.3630 N.am      8 SEL2        0.0000 
     29 N           9.5890  113.8800   34.2550 N.am      5 SEP2        0.0000 
     30 CA          6.5955  109.7360   34.5670 C.3       3 GLC5        0.0000 
     31 CA          8.3840  110.4490   34.3590 C.3       9 GLL5        0.0000 
     32 CA          7.9120  112.3295   34.8470 C.3       3 GLC5        0.0000 
     33 CA          7.4400  114.2100   35.3350 C.3       6 GLP5        0.0000 
     34 CA         10.0210  111.6930   33.8685 C.3       3 GLC5        0.0000 
     35 CA         10.5415  109.8180   34.2855 C.3       3 GLC5        0.0000 
     36 CA         12.6990  109.1870   34.2120 C.3       6 GLP5        0.0000 
     37 CA          9.9205  107.9640   32.8525 C.3       3 GLC5        0.0000 
     38 CA          7.9760  108.7220   32.7800 C.3       9 GLL5        0.0000 
     39 N           9.8000   97.6850   30.1365 N.am      2 SEC2        0.0000 
     40 N          10.7560   98.2920   30.5190 N.am      8 SEL2        0.0000 
     41 N           8.8440   97.0780   29.7540 N.am      5 SEP2        0.0000 
     42 N          11.3440   98.0615   34.1025 N.am      2 SEC2        0.0000 
     43 N          11.0090   98.8430   32.9990 N.am      8 SEL2        0.0000 
     44 N          11.6790   97.2800   35.2060 N.am      5 SEP2        0.0000 
     45 CA         14.1565  102.9510   33.2345 C.3       3 GLC5        0.0000 
     46 CA         13.7820  101.7850   31.5270 C.3       9 GLL5        0.0000 
     47 CA         14.5310  104.1170   34.9420 C.3       6 GLP5        0.0000 
     48 N          15.8645  103.7115   28.9795 N.am      2 SEC2        0.0000 
     49 N          14.9080  103.4960   30.1980 N.am      8 SEL2        0.0000 
     50 N          16.8210  103.9270   27.7610 N.am      5 SEP2        0.0000 
     51 O          14.4565  105.0045   30.3810 O.2       1 ALC1        0.0000 
     52 O          14.9080  103.4960   30.1980 O.2       7 ALL1        0.0000 
     53 O          14.0050  106.5130   30.5640 O.2       4 ALP1        0.0000 
     54 CA         15.5920  102.4280   27.7520 C.3       3 GLC5        0.0000 
     55 CA         14.1570  101.4030   29.1320 C.3       9 GLL5        0.0000 
     56 CA         17.0270  103.4530   26.3720 C.3       6 GLP5        0.0000 
     57 N          15.7330  102.9165   27.8360 N.am      2 SEC2        0.0000 
     58 N          14.6450  101.9060   27.9110 N.am      8 SEL2        0.0000 
     59 CA         16.5165  100.8300   31.1355 C.3       3 GLC5        0.0000 
     60 CA         15.1710  100.5500   29.9760 C.3       9 GLL5        0.0000 
     61 CA         17.8620  101.1100   32.2950 C.3       6 GLP5        0.0000 
     62 N          12.9205   94.1145   27.7445 N.am      2 SEC2        0.0000 
     63 N          13.0960   95.6000   27.1350 N.am      8 SEL2        0.0000 
     64 N          12.7450   92.6290   28.3540 N.am      5 SEP2        0.0000 
     65 O          11.1650   95.2105   28.6335 O.2       1 ALC1        0.0000 
     66 O          11.9870   96.5260   28.8850 O.2       7 ALL1        0.0000 
     67 O          10.3430   93.8950   28.3820 O.2       4 ALP1        0.0000 
     68 CA         17.2265  100.0135   30.5415 C.3       3 GLC5        0.0000 
     69 CA         16.5910   98.9170   28.7880 C.3       9 GLL5        0.0000 
     70 CA         18.3310  100.2310   28.5255 C.3       3 GLC5        0.0000 
     71 CA         20.0710  101.5450   28.2630 C.3       6 GLP5        0.0000 
     72 CA         10.7267  104.7908   32.5422 C.3       3 GLC5        0.0000 
     73 CA          9.2980  103.1500   32.2850 C.3       9 GLL5        0.0000 
     74 CA         12.4900  105.9410   32.3360 C.3       6 GLP5        0.0000 
     75 CA          6.3798  109.1035   33.5093 C.3       3 GLC5        0.0000 
     76 CA         10.0842  109.8672   31.8155 C.3       3 GLC5        0.0000 
     77 CA          7.9290  109.6460   31.7070 C.3       9 GLL5        0.0000 
     78 CA         12.1390  109.3730   31.7690 C.3       6 GLP5        0.0000 
     79 CA         14.6767  101.0850   32.9352 C.3       3 GLC5        0.0000 
     80 CA         12.4210  101.4050   31.9600 C.3       9 GLL5        0.0000 
     81 CA         16.2520  100.5750   34.1270 C.3       6 GLP5        0.0000 
     82 CA         13.1530  104.0493   31.5877 C.3       3 GLC5        0.0000 
     83 CA         13.2957  103.4728   28.7915 C.3       3 GLC5        0.0000 
     84 CA         13.8500  102.5300   30.1520 C.3       9 GLL5        0.0000 
     85 CA         12.5880  104.9790   27.9410 C.3       6 GLP5        0.0000 
     86 CA         17.5347   97.0357   29.5977 C.3       3 GLC5        0.0000 
     87 CA         16.6720   97.9480   27.7510 C.3       9 GLL5        0.0000 
     88 CA         18.4380   95.6390   30.9260 C.3       6 GLP5        0.0000 
     89 CA         17.3001   98.6006   26.5444 C.3       3 GLC5        0.0000 
     90 CA         18.2610   98.9950   24.8960 C.3       6 GLP5        0.0000 
@<TRIPOS>BOND
@<TRIPOS>SUBSTRUCTURE
     1 ALC1       22 GROUP        1 X    ALC  0     ROOT ALC X 1
     2 SEC2        1 GROUP        1 X    SEC  0     **** SEC X 2
     3 GLC5        7 GROUP        1 X    GLC  0     **** GLC X 6
     4 ALP1       24 GROUP        1 Y    ALP  0     ROOT ALP Y 8
     5 SEP2        3 GROUP        1 Y    SEP  0     **** SEP Y 9
     6 GLP5        9 GROUP        1 Y    GLP  0     **** GLP Y 13
     7 ALL1       23 GROUP        1 Z    ALL  0     ROOT ALL Z 15
     8 SEL2        2 GROUP        1 Z    SEL  0     **** SEL Z 16
     9 GLL5        8 GROUP        1 Z    GLL  0     **** GLL Z 20
@<TRIPOS>SET

