#    Name: 1v35_NAI_2_ligand
#    Modification time : Tue Mar 25 07:28:26 2014

@<TRIPOS>MOLECULE
1v35_NAI_2_ligand
   71    75     1     0     0
SMALL
NO_CHARGES


@<TRIPOS>ATOM
      1 PA          8.2140  100.6640   32.3510 P.3       1 NAI601      0.0000 
      2 O1A         7.6550  101.0380   31.0410 O.co2     1 NAI601      0.0000 
      3 O2A         8.4660   99.3500   32.9850 O.co2     1 NAI601      0.0000 
      4 O5B         9.1490  101.8240   32.9040 O.3       1 NAI601      0.0000 
      5 C5B         9.2980  103.1500   32.2850 C.3       1 NAI601      0.0000 
      6 C4B         8.6290  104.1310   33.2120 C.3       1 NAI601      0.0000 
      7 O4B         8.8310  105.4720   32.6320 O.3       1 NAI601      0.0000 
      8 C3B         7.0620  104.0190   33.3410 C.3       1 NAI601      0.0000 
      9 O3B         6.6920  103.6980   34.7080 O.3       1 NAI601      0.0000 
     10 C2B         6.5160  105.3590   32.8420 C.3       1 NAI601      0.0000 
     11 O2B         5.3360  105.8290   33.3970 O.3       1 NAI601      0.0000 
     12 C1B         7.7500  106.2420   33.0660 C.3       1 NAI601      0.0000 
     13 N9A         7.7640  107.4450   32.2520 N.pl3     1 NAI601      0.0000 
     14 C8A         7.6040  107.6900   30.8870 C.2       1 NAI601      0.0000 
     15 N7A         7.6990  108.9710   30.5700 N.2       1 NAI601      0.0000 
     16 C5A         7.9290  109.6460   31.7070 C.ar      1 NAI601      0.0000 
     17 C6A         8.1300  111.0770   32.0170 C.ar      1 NAI601      0.0000 
     18 N6A         8.1050  112.0170   31.0980 N.pl3     1 NAI601      0.0000 
     19 N1A         8.3460  111.3550   33.3630 N.ar      1 NAI601      0.0000 
     20 C2A         8.3840  110.4490   34.3590 C.ar      1 NAI601      0.0000 
     21 N3A         8.2010  109.0820   34.1230 N.ar      1 NAI601      0.0000 
     22 C4A         7.9760  108.7220   32.7800 C.ar      1 NAI601      0.0000 
     23 O3          9.5280  100.2830   31.4720 O.3       1 NAI601      0.0000 
     24 PN         10.8650   99.2910   31.5760 P.3       1 NAI601      0.0000 
     25 O1N        10.7560   98.2920   30.5190 O.co2     1 NAI601      0.0000 
     26 O2N        11.0090   98.8430   32.9990 O.co2     1 NAI601      0.0000 
     27 O5D        12.0130  100.2940   31.1260 O.3       1 NAI601      0.0000 
     28 C5D        12.4210  101.4050   31.9600 C.3       1 NAI601      0.0000 
     29 C4D        13.7820  101.7850   31.5270 C.3       1 NAI601      0.0000 
     30 O4D        14.5810  100.5420   31.3010 O.3       1 NAI601      0.0000 
     31 C3D        13.8500  102.5300   30.1520 C.3       1 NAI601      0.0000 
     32 O3D        14.9080  103.4960   30.1980 O.3       1 NAI601      0.0000 
     33 C2D        14.1570  101.4030   29.1320 C.3       1 NAI601      0.0000 
     34 O2D        14.6450  101.9060   27.9110 O.3       1 NAI601      0.0000 
     35 C1D        15.1710  100.5500   29.9760 C.3       1 NAI601      0.0000 
     36 N1N        15.4160   99.1060   29.6160 N.pl3     1 NAI601      0.0000 
     37 C2N        14.2840   98.2550   29.2870 C.2       1 NAI601      0.0000 
     38 C3N        14.2870   97.3060   28.3280 C.2       1 NAI601      0.0000 
     39 C7N        13.0590   96.4230   28.0800 C.2       1 NAI601      0.0000 
     40 O7N        13.0960   95.6000   27.1350 O.2       1 NAI601      0.0000 
     41 N7N        11.9870   96.5260   28.8850 N.am      1 NAI601      0.0000 
     42 C4N        15.5030   97.0430   27.4440 C.3       1 NAI601      0.0000 
     43 C5N        16.6720   97.9480   27.7510 C.2       1 NAI601      0.0000 
     44 C6N        16.5910   98.9170   28.7880 C.2       1 NAI601      0.0000 
     45 H           8.8099  103.1793   31.3225 H         1 NAI601      0.0000 
     46 H          10.3411  103.4095   32.1840 H         1 NAI601      0.0000 
     47 H           9.0496  104.1066   34.1832 H         1 NAI601      0.0000 
     48 H           6.7625  103.2517   32.6450 H         1 NAI601      0.0000 
     49 H           6.4690  105.2442   31.7335 H         1 NAI601      0.0000 
     50 H           7.8273  106.4650   34.1005 H         1 NAI601      0.0000 
     51 H           7.4364  106.9482   30.2465 H         1 NAI601      0.0000 
     52 H           7.9995  111.7062   30.1534 H         1 NAI601      0.0000 
     53 H           8.1938  112.9570   31.4275 H         1 NAI601      0.0000 
     54 H           8.5541  110.7542   35.3467 H         1 NAI601      0.0000 
     55 H          12.4393  101.1155   33.0072 H         1 NAI601      0.0000 
     56 H          11.7493  102.2498   31.8337 H         1 NAI601      0.0000 
     57 H          14.2843  102.3839   32.2502 H         1 NAI601      0.0000 
     58 H          12.9032  102.9248   29.9514 H         1 NAI601      0.0000 
     59 H          13.2595  100.8171   29.0637 H         1 NAI601      0.0000 
     60 H          16.0999  101.0946   30.0282 H         1 NAI601      0.0000 
     61 H          13.4125   98.4246   29.8659 H         1 NAI601      0.0000 
     62 H          12.0579   97.1899   29.6294 H         1 NAI601      0.0000 
     63 H          11.2144   95.9295   28.6675 H         1 NAI601      0.0000 
     64 H          15.2087   97.1706   26.3901 H         1 NAI601      0.0000 
     65 H          15.8110   95.9927   27.5690 H         1 NAI601      0.0000 
     66 H          17.5051   97.8338   27.1911 H         1 NAI601      0.0000 
     67 H          17.4111   99.5276   28.9712 H         1 NAI601      0.0000 
     68 H           6.7193  102.6995   34.7557 H         1 NAI601      0.0000 
     69 H           5.2425  105.3360   34.2619 H         1 NAI601      0.0000 
     70 H          14.4497  104.3758   30.3245 H         1 NAI601      0.0000 
     71 H          13.8661  101.8663   27.2851 H         1 NAI601      0.0000 
@<TRIPOS>BOND
     1    2    1 ar   
     2    3    1 ar   
     3    4    1 1    
     4   23    1 1    
     5    5    4 1    
     6    6    5 1    
     7   45    5 1    
     8   46    5 1    
     9    7    6 1    
    10    8    6 1    
    11   47    6 1    
    12   12    7 1    
    13    9    8 1    
    14   10    8 1    
    15   48    8 1    
    16   68    9 1    
    17   11   10 1    
    18   12   10 1    
    19   49   10 1    
    20   69   11 1    
    21   13   12 1    
    22   50   12 1    
    23   14   13 1    
    24   22   13 1    
    25   15   14 2    
    26   51   14 1    
    27   16   15 1    
    28   17   16 ar   
    29   22   16 ar   
    30   18   17 1    
    31   19   17 ar   
    32   52   18 1    
    33   53   18 1    
    34   20   19 ar   
    35   21   20 ar   
    36   54   20 1    
    37   22   21 ar   
    38   24   23 1    
    39   25   24 ar   
    40   26   24 ar   
    41   27   24 1    
    42   28   27 1    
    43   29   28 1    
    44   55   28 1    
    45   56   28 1    
    46   30   29 1    
    47   31   29 1    
    48   57   29 1    
    49   35   30 1    
    50   32   31 1    
    51   33   31 1    
    52   58   31 1    
    53   70   32 1    
    54   34   33 1    
    55   35   33 1    
    56   59   33 1    
    57   71   34 1    
    58   36   35 1    
    59   60   35 1    
    60   37   36 1    
    61   44   36 1    
    62   38   37 2    
    63   61   37 1    
    64   39   38 1    
    65   42   38 1    
    66   40   39 2    
    67   41   39 am   
    68   62   41 1    
    69   63   41 1    
    70   43   42 1    
    71   64   42 1    
    72   65   42 1    
    73   44   43 2    
    74   66   43 1    
    75   67   44 1    
@<TRIPOS>SUBSTRUCTURE
     1 NAI601      1 GROUP   
@<TRIPOS>SET

