#    Name: 3b2q_ATP_2_INTS_M
#    Modification time : Mon Mar 24 18:48:48 2014

@<TRIPOS>MOLECULE
3b2q_ATP_2_INTS_M
   31     0     6     0     0
SMALL
NO_CHARGES


@<TRIPOS>ATOM
      1 N         -22.8605  -18.4740   16.6200 N.am      1 SEC2        0.0000 
      2 N         -23.9650  -17.8060   17.6030 N.am      5 SEL2        0.0000 
      3 N         -21.7560  -19.1420   15.6370 N.am      3 SEP2        0.0000 
      4 CA        -24.4415  -13.0825   22.8665 C.3       2 GLC5        0.0000 
      5 CA        -24.8890  -11.5070   21.9370 C.3       6 GLL5        0.0000 
      6 CA        -23.9940  -14.6580   23.7960 C.3       4 GLP5        0.0000 
      7 CA        -22.7175  -11.3960   21.4640 C.3       2 GLC5        0.0000 
      8 CA        -20.5460  -11.2850   20.9910 C.3       4 GLP5        0.0000 
      9 CA        -25.7345   -9.3040   19.7900 C.3       2 GLC5        0.0000 
     10 CA        -25.0810  -10.0150   21.6920 C.3       6 GLL5        0.0000 
     11 CA        -26.3880   -8.5930   17.8880 C.3       4 GLP5        0.0000 
     12 CA        -22.1950  -10.2575   21.5485 C.3       2 GLC5        0.0000 
     13 CA        -23.8440   -9.2300   22.1060 C.3       6 GLL5        0.0000 
     14 CA        -27.7405   -9.1975   22.9195 C.3       2 GLC5        0.0000 
     15 CA        -25.7890   -8.4960   23.3680 C.3       6 GLL5        0.0000 
     16 CA        -29.6920   -9.8990   22.4710 C.3       4 GLP5        0.0000 
     17 CA        -27.0810   -6.9985   24.2615 C.3       2 GLC5        0.0000 
     18 CA        -28.3730   -5.5010   25.1550 C.3       4 GLP5        0.0000 
     19 CA        -28.1235   -9.7265   28.9965 C.3       2 GLC5        0.0000 
     20 CA        -27.7090  -10.9030   27.3060 C.3       6 GLL5        0.0000 
     21 CA        -28.5380   -8.5500   30.6870 C.3       4 GLP5        0.0000 
     22 CA        -26.9720  -11.2050   21.4017 C.3       2 GLC5        0.0000 
     23 CA        -28.9590  -11.6490   20.9890 C.3       4 GLP5        0.0000 
     24 CA        -22.2488   -9.0560   23.6420 C.3       2 GLC5        0.0000 
     25 CA        -20.4270   -9.3680   24.6410 C.3       4 GLP5        0.0000 
     26 CA        -25.8880   -6.7070   22.3175 C.3       2 GLC5        0.0000 
     27 CA        -24.2970   -8.2580   23.1800 C.3       6 GLL5        0.0000 
     28 CA        -26.7330   -5.0370   21.3610 C.3       4 GLP5        0.0000 
     29 CA        -25.6490  -10.0824   27.3276 C.3       2 GLC5        0.0000 
     30 CA        -26.8330   -9.9240   26.6190 C.3       6 GLL5        0.0000 
     31 CA        -24.2030  -10.0300   28.5980 C.3       4 GLP5        0.0000 
@<TRIPOS>BOND
@<TRIPOS>SUBSTRUCTURE
     1 SEC2        1 GROUP        1 X    SEC  0     ROOT SEC X 2
     2 GLC5        4 GROUP        1 X    GLC  0     **** GLC X 6
     3 SEP2        3 GROUP        1 Y    SEP  0     ROOT SEP Y 9
     4 GLP5        6 GROUP        1 Y    GLP  0     **** GLP Y 13
     5 SEL2        2 GROUP        1 Z    SEL  0     ROOT SEL Z 16
     6 GLL5        5 GROUP        1 Z    GLL  0     **** GLL Z 20
@<TRIPOS>SET

