#    Name: 3b2q_ATP_2_ligand
#    Modification time : Mon Mar 24 18:48:49 2014

@<TRIPOS>MOLECULE
3b2q_ATP_2_ligand
   43    45     1     0     0
SMALL
NO_CHARGES


@<TRIPOS>ATOM
      1 PG        -25.3330  -18.1210   18.1580 P.3       1 ATP461      0.0000 
      2 O1G       -23.9650  -17.8060   17.6030 O.co2     1 ATP461      0.0000 
      3 O2G       -26.4230  -18.2120   17.1170 O.co2     1 ATP461      0.0000 
      4 O3G       -25.3510  -19.2350   19.1780 O.co2     1 ATP461      0.0000 
      5 PB        -24.6620  -15.6060   19.1770 P.3       1 ATP461      0.0000 
      6 O1B       -23.6320  -16.0200   20.2010 O.co2     1 ATP461      0.0000 
      7 O2B       -24.2220  -15.1690   17.8010 O.co2     1 ATP461      0.0000 
      8 O3B       -25.7170  -16.8100   19.0100 O.3       1 ATP461      0.0000 
      9 PA        -25.1000  -12.8960   19.7040 P.3       1 ATP461      0.0000 
     10 O1A       -25.7940  -12.2780   18.5140 O.co2     1 ATP461      0.0000 
     11 O2A       -23.5940  -12.8470   19.8070 O.co2     1 ATP461      0.0000 
     12 O3A       -25.5630  -14.4340   19.8140 O.3       1 ATP461      0.0000 
     13 O5'       -25.7180  -12.2460   21.0410 O.3       1 ATP461      0.0000 
     14 C5'       -24.8890  -11.5070   21.9370 C.3       1 ATP461      0.0000 
     15 C4'       -25.0810  -10.0150   21.6920 C.3       1 ATP461      0.0000 
     16 O4'       -26.1820   -9.5410   22.4740 O.3       1 ATP461      0.0000 
     17 C3'       -23.8440   -9.2300   22.1060 C.3       1 ATP461      0.0000 
     18 O3'       -23.3440   -8.5000   20.9800 O.3       1 ATP461      0.0000 
     19 C2'       -24.2970   -8.2580   23.1800 C.3       1 ATP461      0.0000 
     20 O2'       -24.0810   -6.9150   22.7300 O.3       1 ATP461      0.0000 
     21 C1'       -25.7890   -8.4960   23.3680 C.3       1 ATP461      0.0000 
     22 N9        -26.0510   -8.9170   24.7680 N.pl3     1 ATP461      0.0000 
     23 C8        -25.4520   -8.4160   25.8650 C.2       1 ATP461      0.0000 
     24 N7        -25.9140   -9.0150   26.9920 N.2       1 ATP461      0.0000 
     25 C5        -26.8330   -9.9240   26.6190 C.ar      1 ATP461      0.0000 
     26 C6        -27.7090  -10.9030   27.3060 C.ar      1 ATP461      0.0000 
     27 N6        -27.6930  -11.0310   28.6550 N.pl3     1 ATP461      0.0000 
     28 N1        -28.5240  -11.6630   26.5410 N.ar      1 ATP461      0.0000 
     29 C2        -28.5490  -11.5450   25.2010 C.ar      1 ATP461      0.0000 
     30 N3        -27.7830  -10.6800   24.5120 N.ar      1 ATP461      0.0000 
     31 C4        -26.9190   -9.8560   25.1520 C.ar      1 ATP461      0.0000 
     32 H         -23.8279  -11.7373   21.7925 H         1 ATP461      0.0000 
     33 H         -25.1394  -11.7104   22.9838 H         1 ATP461      0.0000 
     34 H         -25.2534   -9.8534   20.6455 H         1 ATP461      0.0000 
     35 H         -23.1347   -9.8957   22.5163 H         1 ATP461      0.0000 
     36 H         -23.7960   -8.4782   24.0822 H         1 ATP461      0.0000 
     37 H         -26.3052   -7.5861   23.1561 H         1 ATP461      0.0000 
     38 H         -24.7695   -7.7096   25.8570 H         1 ATP461      0.0000 
     39 H         -28.3213  -11.7068   29.0404 H         1 ATP461      0.0000 
     40 H         -27.0543  -10.4383   29.1457 H         1 ATP461      0.0000 
     41 H         -29.2161  -12.1750   24.6522 H         1 ATP461      0.0000 
     42 H         -23.4958   -7.5381   21.2072 H         1 ATP461      0.0000 
     43 H         -24.9743   -6.6041   22.4055 H         1 ATP461      0.0000 
@<TRIPOS>BOND
     1    2    1 ar   
     2    3    1 ar   
     3    4    1 ar   
     4    8    1 1    
     5    6    5 ar   
     6    7    5 ar   
     7    8    5 1    
     8   12    5 1    
     9   10    9 ar   
    10   11    9 ar   
    11   12    9 1    
    12   13    9 1    
    13   14   13 1    
    14   15   14 1    
    15   32   14 1    
    16   33   14 1    
    17   16   15 1    
    18   17   15 1    
    19   34   15 1    
    20   21   16 1    
    21   18   17 1    
    22   19   17 1    
    23   35   17 1    
    24   42   18 1    
    25   20   19 1    
    26   21   19 1    
    27   36   19 1    
    28   43   20 1    
    29   22   21 1    
    30   37   21 1    
    31   23   22 1    
    32   31   22 1    
    33   24   23 2    
    34   38   23 1    
    35   25   24 1    
    36   26   25 ar   
    37   31   25 ar   
    38   27   26 1    
    39   28   26 ar   
    40   39   27 1    
    41   40   27 1    
    42   29   28 ar   
    43   30   29 ar   
    44   41   29 1    
    45   31   30 ar   
@<TRIPOS>SUBSTRUCTURE
     1 ATP461      1 GROUP   
@<TRIPOS>SET

