#    Name: 1LNX_2_CAVITY_N1_ALL.mol2
#    Modification time : Mon Mar 10 14:34:43 2014

@<TRIPOS>MOLECULE
1LNX_2_CAVITY_N1_ALL.mol2
   84     0     5     0     0
SMALL
NO_CHARGES


@<TRIPOS>ATOM
      1 CA         66.5957   26.4629   97.0052 C.3       4 GLY6        0.0000 
      2 O          65.2369   30.1369   99.2199 O.2       1 ALA2        0.0000 
      3 DU         64.0919   31.0779   98.9883 H         5 CUB7        0.0000 
      4 NZ         62.9470   32.0189   98.7567 N.2       2 LYS4        0.0000 
      5 NZ         61.8020   32.9598   98.5250 N.2       2 LYS4        0.0000 
      6 NZ         60.6570   33.9008   98.2934 N.2       2 LYS4        0.0000 
      7 CA         65.4130   28.0774   99.6967 C.3       4 GLY6        0.0000 
      8 CA         64.2680   29.0184   99.4651 C.3       4 GLY6        0.0000 
      9 N          63.1230   29.9593   99.2335 N.2       1 ALA2        0.0000 
     10 N          61.9781   30.9003   99.0019 N.2       1 ALA2        0.0000 
     11 O          60.8331   31.8413   98.7703 O.2       1 ALA2        0.0000 
     12 O          59.6882   32.7823   98.5387 O.2       1 ALA2        0.0000 
     13 CA         58.5432   33.7232   98.3070 C.3       4 GLY6        0.0000 
     14 CA         64.4441   26.9589   99.9420 C.3       4 GLY6        0.0000 
     15 N          63.2991   27.8998   99.7103 N.2       1 ALA2        0.0000 
     16 N          58.7193   31.6637   98.7839 N.2       1 ALA2        0.0000 
     17 DU         57.5743   32.6047   98.5523 H         5 CUB7        0.0000 
     18 N          57.7504   30.5452   99.0291 N.2       1 ALA2        0.0000 
     19 NZ         63.8970   33.4742   99.9730 N.2       2 LYS4        0.0000 
     20 CA         65.2180   30.4737  100.6815 C.3       4 GLY6        0.0000 
     21 CA         64.0730   31.4147  100.4498 C.3       4 GLY6        0.0000 
     22 O          62.9281   32.3557  100.2182 O.2       1 ALA2        0.0000 
     23 CA         64.2491   29.3552  100.9267 C.3       4 GLY6        0.0000 
     24 DU         63.1042   30.2961  100.6951 H         5 CUB7        0.0000 
     25 O          61.9592   31.2371  100.4635 O.2       1 ALA2        0.0000 
     26 O          60.8143   32.1781  100.2319 O.2       1 ALA2        0.0000 
     27 CA         63.2803   28.2366  101.1719 C.3       4 GLY6        0.0000 
     28 CA         62.1353   29.1776  100.9403 C.3       4 GLY6        0.0000 
     29 N          60.9903   30.1186  100.7087 N.2       1 ALA2        0.0000 
     30 N          59.8454   31.0595  100.4771 N.2       1 ALA2        0.0000 
     31 O          58.7004   32.0005  100.2455 O.2       1 ALA2        0.0000 
     32 O          57.5555   32.9415  100.0139 O.2       1 ALA2        0.0000 
     33 CA         56.4105   33.8824   99.7822 C.3       4 GLY6        0.0000 
     34 N          58.8765   29.9410  100.7223 N.2       1 ALA2        0.0000 
     35 N          57.7316   30.8820  100.4907 N.2       1 ALA2        0.0000 
     36 DU         56.5866   31.8229  100.2591 H         5 CUB7        0.0000 
     37 DU         55.4416   32.7639  100.0275 H         5 CUB7        0.0000 
     38 CA         56.7627   29.7634  100.7359 C.3       4 GLY6        0.0000 
     39 DU         55.6177   30.7044  100.5043 H         5 CUB7        0.0000 
     40 CA         55.7938   28.6449  100.9812 C.3       4 GLY6        0.0000 
     41 O          54.6489   29.5858  100.7496 O.2       1 ALA2        0.0000 
     42 CA         65.1991   30.8105  102.1430 C.3       4 GLY6        0.0000 
     43 CA         64.0542   31.7515  101.9114 C.3       4 GLY6        0.0000 
     44 CA         62.9092   32.6924  101.6798 C.3       4 GLY6        0.0000 
     45 CA         64.2303   29.6920  102.3883 C.3       4 GLY6        0.0000 
     46 CA         63.0853   30.6329  102.1567 C.3       4 GLY6        0.0000 
     47 O          61.9403   31.5739  101.9250 O.2       1 ALA2        0.0000 
     48 CA         63.2614   28.5734  102.6335 C.3       4 GLY6        0.0000 
     49 N          59.8265   31.3963  101.9387 N.2       1 ALA2        0.0000 
     50 N          58.6816   32.3373  101.7071 N.2       1 ALA2        0.0000 
     51 O          57.5366   33.2783  101.4754 O.2       1 ALA2        0.0000 
     52 CA         58.8576   30.2778  102.1839 C.3       4 GLY6        0.0000 
     53 O          57.7127   31.2187  101.9523 O.2       1 ALA2        0.0000 
     54 O          56.5677   32.1597  101.7207 O.2       1 ALA2        0.0000 
     55 O          55.4228   33.1007  101.4891 O.2       1 ALA2        0.0000 
     56 O          56.7438   30.1002  102.1975 O.2       1 ALA2        0.0000 
     57 O          55.5988   31.0412  101.9659 O.2       1 ALA2        0.0000 
     58 O          54.4539   31.9821  101.7343 O.2       1 ALA2        0.0000 
     59 O          54.6300   29.9226  102.2111 O.2       1 ALA2        0.0000 
     60 O          53.4850   30.8636  101.9795 O.2       1 ALA2        0.0000 
     61 CA         63.0664   30.9697  103.6182 C.3       4 GLY6        0.0000 
     62 N          61.9215   31.9107  103.3866 N.2       1 ALA2        0.0000 
     63 CA         60.9526   30.7921  103.6319 C.3       4 GLY6        0.0000 
     64 O          56.5488   32.4965  103.1823 O.2       1 ALA2        0.0000 
     65 CA         64.9036   33.9192   96.8046 C.3       4 GLY6        0.0000 
     66 O          66.2246   30.9187   97.5131 O.2       1 ALA2        0.0000 
     67 O          65.0797   31.8597   97.2815 O.2       1 ALA2        0.0000 
     68 NZ         61.6448   34.6826   96.5866 N.2       2 LYS4        0.0000 
     69 CA         65.2558   29.8001   97.7583 C.3       4 GLY6        0.0000 
     70 DU         64.1108   30.7411   97.5267 H         5 CUB7        0.0000 
     71 DU         62.9658   31.6821   97.2951 H         5 CUB7        0.0000 
     72 NZ         61.8209   32.6230   97.0635 N.2       2 LYS4        0.0000 
     73 NZ         60.6759   33.5640   96.8318 N.2       2 LYS4        0.0000 
     74 CA         66.5768   26.7996   98.4668 C.3       4 GLY6        0.0000 
     75 CA         65.4318   27.7406   98.2351 C.3       4 GLY6        0.0000 
     76 CA         64.2869   28.6816   98.0035 C.3       4 GLY6        0.0000 
     77 N          63.1419   29.6226   97.7719 N.2       1 ALA2        0.0000 
     78 N          61.9970   30.5635   97.5403 N.2       1 ALA2        0.0000 
     79 N          60.8520   31.5045   97.3087 N.2       1 ALA2        0.0000 
     80 DU         59.7071   32.4455   97.0771 H         5 CUB7        0.0000 
     81 CZ         64.4630   26.6221   98.4804 C.ar      3 PHE5        0.0000 
     82 CA         63.3180   27.5630   98.2488 C.3       4 GLY6        0.0000 
     83 CA         65.0608   32.1964   98.7430 C.3       4 GLY6        0.0000 
     84 NZ         63.9158   33.1374   98.5114 N.2       2 LYS4        0.0000 
@<TRIPOS>BOND
@<TRIPOS>SUBSTRUCTURE
     1 ALA2        2 GROUP   
     2 LYS4        4 GROUP   
     3 PHE5       81 GROUP   
     4 GLY6        1 GROUP   
     5 CUB7        3 GROUP   
@<TRIPOS>SET

