#    Name: 1lnx_URI_2_INTS_M
#    Modification time : Tue Mar 25 11:10:12 2014

@<TRIPOS>MOLECULE
1lnx_URI_2_INTS_M
   21     0     3     0     0
SMALL
NO_CHARGES


@<TRIPOS>ATOM
      1 CA         65.5415   31.0510  101.2535 C.3       1 GLC5        0.0000 
      2 CA         64.1480   29.4780  100.9950 C.3       3 GLL5        0.0000 
      3 CA         66.9350   32.6240  101.5120 C.3       2 GLP5        0.0000 
      4 CA         62.3510   28.8940  102.0610 C.3       1 GLC5        0.0000 
      5 CA         60.5540   28.3100  103.1270 C.3       2 GLP5        0.0000 
      6 CA         62.6020   27.6795   97.4080 C.3       1 GLC5        0.0000 
      7 CA         64.3890   28.9100   97.1510 C.3       3 GLL5        0.0000 
      8 CA         60.8150   26.4490   97.6650 C.3       2 GLP5        0.0000 
      9 CA         64.9850   24.6965   98.2880 C.3       1 GLC5        0.0000 
     10 CA         64.0570   25.3110   96.8740 C.3       3 GLL5        0.0000 
     11 CA         65.9130   24.0820   99.7020 C.3       2 GLP5        0.0000 
     12 CA         62.7010   24.0475   97.7940 C.3       1 GLC5        0.0000 
     13 CA         61.3450   22.7840   98.7140 C.3       2 GLP5        0.0000 
     14 CA         66.1302   29.1405   99.7422 C.3       1 GLC5        0.0000 
     15 CA         64.4850   28.9760   99.7740 C.3       3 GLL5        0.0000 
     16 CA         67.9440   29.0540   99.1000 C.3       2 GLP5        0.0000 
     17 CA         64.8508   28.0145  101.5813 C.3       1 GLC5        0.0000 
     18 CA         65.3850   26.8020  102.7780 C.3       2 GLP5        0.0000 
     19 CA         66.7181   28.4879   97.8867 C.3       1 GLC5        0.0000 
     20 CA         62.5147   26.2205   97.1125 C.3       1 GLC5        0.0000 
     21 CA         64.3720   26.6730   96.2460 C.3       3 GLL5        0.0000 
@<TRIPOS>BOND
@<TRIPOS>SUBSTRUCTURE
     1 GLC5        1 GROUP        1 X    GLC  0     ROOT GLC X 6
     2 GLP5        3 GROUP        1 Y    GLP  0     ROOT GLP Y 13
     3 GLL5        2 GROUP        1 Z    GLL  0     ROOT GLL Z 20
@<TRIPOS>SET

