#    Name: 1lnx_URI_2_ligand
#    Modification time : Tue Mar 25 11:10:12 2014

@<TRIPOS>MOLECULE
1lnx_URI_2_ligand
   29    30     1     0     0
SMALL
NO_CHARGES


@<TRIPOS>ATOM
      1 N1         63.9770   29.4830   98.5290 N.am      1 URI8004     0.0000 
      2 C2         63.0360   30.6130   98.5550 C.2       1 URI8004     0.0000 
      3 N3         62.7320   31.0790   99.8330 N.am      1 URI8004     0.0000 
      4 C4         63.2210   30.5950  101.0640 C.2       1 URI8004     0.0000 
      5 C5         64.1480   29.4780  100.9950 C.2       1 URI8004     0.0000 
      6 C6         64.4850   28.9760   99.7740 C.2       1 URI8004     0.0000 
      7 O2         62.5280   31.1490   97.5690 O.2       1 URI8004     0.0000 
      8 O4         62.8410   31.1390  102.0920 O.2       1 URI8004     0.0000 
      9 C1'        64.3890   28.9100   97.1510 C.3       1 URI8004     0.0000 
     10 C2'        65.8440   28.5490   96.9010 C.3       1 URI8004     0.0000 
     11 C3'        65.8680   27.1140   96.3210 C.3       1 URI8004     0.0000 
     12 C4'        64.3720   26.6730   96.2460 C.3       1 URI8004     0.0000 
     13 O2'        66.4740   29.5120   96.0330 O.3       1 URI8004     0.0000 
     14 O3'        66.5030   26.9760   95.0450 O.3       1 URI8004     0.0000 
     15 O4'        63.5660   27.7970   96.7970 O.3       1 URI8004     0.0000 
     16 C5'        64.0570   25.3110   96.8740 C.3       1 URI8004     0.0000 
     17 O5'        64.8360   24.2330   96.2810 O.3       1 URI8004     0.0000 
     18 H          62.0425   31.9067   99.8940 H         1 URI8004     0.0000 
     19 H          64.5158   29.1069  101.8660 H         1 URI8004     0.0000 
     20 H          65.1569   28.1667   99.7065 H         1 URI8004     0.0000 
     21 H          64.1429   29.7348   96.3965 H         1 URI8004     0.0000 
     22 H          66.3380   28.5068   97.8703 H         1 URI8004     0.0000 
     23 H          66.3213   26.4723   97.0795 H         1 URI8004     0.0000 
     24 H          64.1393   26.6115   95.1549 H         1 URI8004     0.0000 
     25 H          62.9759   25.1261   96.7547 H         1 URI8004     0.0000 
     26 H          64.2509   25.3858   97.9576 H         1 URI8004     0.0000 
     27 H          66.6281   29.0240   95.1739 H         1 URI8004     0.0000 
     28 H          67.4050   26.5933   95.2450 H         1 URI8004     0.0000 
     29 H          64.2631   23.4186   96.3735 H         1 URI8004     0.0000 
@<TRIPOS>BOND
     1    2    1 1    
     2    6    1 1    
     3    9    1 1    
     4    3    2 1    
     5    7    2 2    
     6    4    3 1    
     7   18    3 1    
     8    5    4 1    
     9    8    4 2    
    10    6    5 2    
    11   19    5 1    
    12   20    6 1    
    13   10    9 1    
    14   15    9 1    
    15   21    9 1    
    16   11   10 1    
    17   13   10 1    
    18   22   10 1    
    19   12   11 1    
    20   14   11 1    
    21   23   11 1    
    22   15   12 1    
    23   16   12 1    
    24   24   12 1    
    25   27   13 1    
    26   28   14 1    
    27   17   16 1    
    28   25   16 1    
    29   26   16 1    
    30   29   17 1    
@<TRIPOS>SUBSTRUCTURE
     1 URI8004     1 GROUP   
@<TRIPOS>SET

