#    Name: 2I8U_1_CAVITY_N1_ALL.mol2
#    Modification time : Mon Mar 10 18:37:23 2014

@<TRIPOS>MOLECULE
2I8U_1_CAVITY_N1_ALL.mol2
  133     0     6     0     0
SMALL
NO_CHARGES


@<TRIPOS>ATOM
      1 CA         49.8375   68.6254   16.9321 C.3       5 GLY6        0.0000 
      2 NZ         49.8945   66.9402   18.2194 N.2       3 LYS4        0.0000 
      3 NZ         48.8314   67.9014   17.7769 N.2       3 LYS4        0.0000 
      4 DU         48.8883   66.2163   19.0641 H         6 CUB7        0.0000 
      5 O          47.8252   67.1775   18.6216 O.2       2 ALA2        0.0000 
      6 CZ         47.8822   65.4923   19.9089 C.ar      4 PHE5        0.0000 
      7 O          46.8191   66.4536   19.4664 O.2       2 ALA2        0.0000 
      8 CZ         47.9391   63.8072   21.1961 C.ar      4 PHE5        0.0000 
      9 DU         46.8760   64.7684   20.7536 H         6 CUB7        0.0000 
     10 DU         45.8129   65.7296   20.3111 H         6 CUB7        0.0000 
     11 N          44.7498   66.6909   19.8686 N.2       2 ALA2        0.0000 
     12 CZ         46.9330   63.0832   22.0408 C.ar      4 PHE5        0.0000 
     13 DU         45.8699   64.0445   21.5983 H         6 CUB7        0.0000 
     14 DU         44.8068   65.0057   21.1558 H         6 CUB7        0.0000 
     15 O          43.7436   65.9669   20.7133 O.2       2 ALA2        0.0000 
     16 O          42.6805   66.9282   20.2708 O.2       2 ALA2        0.0000 
     17 CZ         45.9268   62.3593   22.8856 C.ar      4 PHE5        0.0000 
     18 CZ         44.8637   63.3206   22.4431 C.ar      4 PHE5        0.0000 
     19 DU         43.8006   64.2818   22.0006 H         6 CUB7        0.0000 
     20 O          42.7375   65.2430   21.5581 O.2       2 ALA2        0.0000 
     21 CA         41.6744   66.2043   21.1156 C.3       5 GLY6        0.0000 
     22 CA         43.8576   62.5966   23.2878 C.3       5 GLY6        0.0000 
     23 CA         42.7944   63.5579   22.8453 C.3       5 GLY6        0.0000 
     24 N          41.7313   64.5191   22.4028 N.2       2 ALA2        0.0000 
     25 O          52.2915   67.5984   18.9750 O.2       2 ALA2        0.0000 
     26 CA         51.2284   68.5597   18.5325 C.3       5 GLY6        0.0000 
     27 O          52.3485   65.9133   20.2622 O.2       2 ALA2        0.0000 
     28 O          51.2854   66.8745   19.8197 O.2       2 ALA2        0.0000 
     29 O          50.2223   67.8357   19.3772 O.2       2 ALA2        0.0000 
     30 CA         49.1591   68.7970   18.9347 C.3       5 GLY6        0.0000 
     31 CZ         50.2792   66.1506   20.6645 C.ar      4 PHE5        0.0000 
     32 DU         49.2161   67.1118   20.2220 H         6 CUB7        0.0000 
     33 O          48.1530   68.0730   19.7795 O.2       2 ALA2        0.0000 
     34 CZ         49.2731   65.4266   21.5092 C.ar      4 PHE5        0.0000 
     35 DU         48.2099   66.3879   21.0667 H         6 CUB7        0.0000 
     36 O          47.1468   67.3491   20.6242 O.2       2 ALA2        0.0000 
     37 N          46.0837   68.3103   20.1817 N.2       2 ALA2        0.0000 
     38 CZ         48.2669   64.7027   22.3539 C.ar      4 PHE5        0.0000 
     39 DU         47.2038   65.6639   21.9114 H         6 CUB7        0.0000 
     40 DU         46.1407   66.6252   21.4689 H         6 CUB7        0.0000 
     41 N          45.0776   67.5864   21.0264 N.2       2 ALA2        0.0000 
     42 CZ         47.2608   63.9788   23.1987 C.ar      4 PHE5        0.0000 
     43 DU         46.1976   64.9400   22.7562 H         6 CUB7        0.0000 
     44 DU         45.1345   65.9012   22.3137 H         6 CUB7        0.0000 
     45 N          44.0714   66.8625   21.8712 N.2       2 ALA2        0.0000 
     46 N          43.0083   67.8237   21.4287 N.2       2 ALA2        0.0000 
     47 CZ         45.1915   64.2161   23.6009 C.ar      4 PHE5        0.0000 
     48 DU         44.1284   65.1773   23.1584 H         6 CUB7        0.0000 
     49 DU         43.0652   66.1385   22.7159 H         6 CUB7        0.0000 
     50 O          42.0021   67.0998   22.2734 O.2       2 ALA2        0.0000 
     51 CA         43.1222   64.4534   24.0032 C.3       5 GLY6        0.0000 
     52 N          42.0591   65.4146   23.5607 N.2       2 ALA2        0.0000 
     53 CA         49.4869   69.6925   20.0926 C.3       5 GLY6        0.0000 
     54 O          50.6070   67.0461   21.8223 O.2       2 ALA2        0.0000 
     55 O          49.5439   68.0073   21.3798 O.2       2 ALA2        0.0000 
     56 CA         48.4807   68.9685   20.9373 C.3       5 GLY6        0.0000 
     57 NZ         47.4176   69.9298   20.4948 N.2       3 LYS4        0.0000 
     58 O          49.6008   66.3221   22.6670 O.2       2 ALA2        0.0000 
     59 DU         48.5377   67.2834   22.2246 H         6 CUB7        0.0000 
     60 DU         47.4746   68.2446   21.7821 H         6 CUB7        0.0000 
     61 N          46.4115   69.2058   21.3396 N.2       2 ALA2        0.0000 
     62 N          45.3484   70.1671   20.8971 N.2       2 ALA2        0.0000 
     63 O          49.6578   64.6370   23.9543 O.2       2 ALA2        0.0000 
     64 O          48.5947   65.5982   23.5118 O.2       2 ALA2        0.0000 
     65 CA         47.5316   66.5594   23.0693 C.3       5 GLY6        0.0000 
     66 DU         46.4684   67.5207   22.6268 H         6 CUB7        0.0000 
     67 N          45.4053   68.4819   22.1843 N.2       2 ALA2        0.0000 
     68 N          44.3422   69.4432   21.7418 N.2       2 ALA2        0.0000 
     69 O          47.5885   64.8743   24.3565 O.2       2 ALA2        0.0000 
     70 CZ         46.5254   65.8355   23.9140 C.ar      4 PHE5        0.0000 
     71 DU         45.4623   66.7968   23.4715 H         6 CUB7        0.0000 
     72 DU         44.3992   67.7580   23.0290 H         6 CUB7        0.0000 
     73 N          43.3361   68.7192   22.5865 N.2       2 ALA2        0.0000 
     74 CZ         45.5193   65.1116   24.7588 C.ar      4 PHE5        0.0000 
     75 CZ         44.4561   66.0728   24.3163 C.ar      4 PHE5        0.0000 
     76 OG         43.3930   67.0341   23.8738 O.2       1 SER1        0.0000 
     77 O          42.3299   67.9953   23.4313 O.2       2 ALA2        0.0000 
     78 CZ         43.4500   65.3489   25.1610 C.ar      4 PHE5        0.0000 
     79 OG         42.3869   66.3101   24.7185 O.2       1 SER1        0.0000 
     80 OG         41.3237   67.2714   24.2760 O.2       1 SER1        0.0000 
     81 CA         42.4438   64.6250   26.0057 C.3       5 GLY6        0.0000 
     82 CA         41.3807   65.5862   25.5632 C.3       5 GLY6        0.0000 
     83 O          49.8716   68.9028   22.5377 O.2       2 ALA2        0.0000 
     84 CA         49.9286   67.2177   23.8249 C.3       5 GLY6        0.0000 
     85 O          48.8655   68.1789   23.3824 O.2       2 ALA2        0.0000 
     86 O          47.8024   69.1401   22.9399 O.2       2 ALA2        0.0000 
     87 CA         47.8593   67.4550   24.2271 C.3       5 GLY6        0.0000 
     88 O          46.7962   68.4162   23.7846 O.2       2 ALA2        0.0000 
     89 CA         45.7331   69.3774   23.3421 C.3       5 GLY6        0.0000 
     90 N          44.6700   70.3387   22.8996 N.2       2 ALA2        0.0000 
     91 CA         46.8532   66.7310   25.0719 C.3       5 GLY6        0.0000 
     92 O          45.7901   67.6923   24.6294 O.2       2 ALA2        0.0000 
     93 OG         44.7269   68.6535   24.1869 O.2       1 SER1        0.0000 
     94 OG         43.6638   69.6147   23.7444 O.2       1 SER1        0.0000 
     95 O          42.6007   70.5760   23.3019 O.2       2 ALA2        0.0000 
     96 CZ         45.8470   66.0071   25.9166 C.ar      4 PHE5        0.0000 
     97 OG         44.7839   66.9683   25.4741 O.2       1 SER1        0.0000 
     98 OG         43.7208   67.9296   25.0316 O.2       1 SER1        0.0000 
     99 OG         41.5945   69.8520   24.1466 O.2       1 SER1        0.0000 
    100 OG         43.7778   66.2444   26.3189 O.2       1 SER1        0.0000 
    101 O          39.5253   70.0893   24.5489 O.2       2 ALA2        0.0000 
    102 CA         46.1178   68.5878   25.7872 C.3       5 GLY6        0.0000 
    103 O          45.0547   69.5490   25.3447 O.2       2 ALA2        0.0000 
    104 CZ         43.9916   70.5103   24.9022 C.ar      4 PHE5        0.0000 
    105 N          42.9285   71.4715   24.4597 N.2       2 ALA2        0.0000 
    106 O          41.8653   72.4327   24.0172 O.2       2 ALA2        0.0000 
    107 CZ         45.1117   67.8639   26.6320 C.ar      4 PHE5        0.0000 
    108 OG         41.9223   70.7476   25.3045 O.2       1 SER1        0.0000 
    109 O          40.8592   71.7088   24.8620 O.2       2 ALA2        0.0000 
    110 OG         39.8530   70.9849   25.7067 O.2       1 SER1        0.0000 
    111 CZ         47.3406   60.3310   20.1676 C.ar      4 PHE5        0.0000 
    112 N          41.0758   62.7280   20.0871 N.2       2 ALA2        0.0000 
    113 CZ         42.1959   60.0817   21.8168 C.ar      4 PHE5        0.0000 
    114 N          41.1328   61.0429   21.3743 N.2       2 ALA2        0.0000 
    115 O          45.4282   66.5193   17.8660 O.2       2 ALA2        0.0000 
    116 CZ         47.6114   62.9117   20.0382 C.ar      4 PHE5        0.0000 
    117 DU         46.5483   63.8729   19.5957 H         6 CUB7        0.0000 
    118 DU         45.4851   64.8341   19.1532 H         6 CUB7        0.0000 
    119 O          44.4220   65.7954   18.7107 O.2       2 ALA2        0.0000 
    120 CZ         46.6052   62.1877   20.8830 C.ar      4 PHE5        0.0000 
    121 DU         45.5421   63.1490   20.4405 H         6 CUB7        0.0000 
    122 O          44.4790   64.1102   19.9980 O.2       2 ALA2        0.0000 
    123 DU         45.5991   61.4638   21.7277 H         6 CUB7        0.0000 
    124 DU         44.5360   62.4250   21.2852 H         6 CUB7        0.0000 
    125 O          43.4728   63.3863   20.8427 O.2       2 ALA2        0.0000 
    126 O          42.4097   64.3475   20.4002 O.2       2 ALA2        0.0000 
    127 CA         43.5298   61.7011   22.1300 C.3       5 GLY6        0.0000 
    128 CA         42.4667   62.6623   21.6875 C.3       5 GLY6        0.0000 
    129 CA         41.4036   63.6236   21.2450 C.3       5 GLY6        0.0000 
    130 CZ         43.2562   72.3670   25.6176 C.ar      4 PHE5        0.0000 
    131 NZ         42.1931   73.3282   25.1751 N.2       3 LYS4        0.0000 
    132 CZ         42.2501   71.6431   26.4623 C.ar      4 PHE5        0.0000 
    133 CZ         41.1870   72.6043   26.0198 C.ar      4 PHE5        0.0000 
@<TRIPOS>BOND
@<TRIPOS>SUBSTRUCTURE
     1 SER1       76 GROUP   
     2 ALA2        5 GROUP   
     3 LYS4        2 GROUP   
     4 PHE5        6 GROUP   
     5 GLY6        1 GROUP   
     6 CUB7        4 GROUP   
@<TRIPOS>SET

