#    Name: 2i8u_GDP_1_INTS_M
#    Modification time : Tue Mar 25 17:33:23 2014

@<TRIPOS>MOLECULE
2i8u_GDP_1_INTS_M
   34     0    12     0     0
SMALL
NO_CHARGES


@<TRIPOS>ATOM
      1 N          42.4275   68.8840   25.5675 N.am      2 SEC2        0.0000 
      2 N          43.0800   69.3440   24.5560 N.am     10 SEL2        0.0000 
      3 N          41.7750   68.4240   26.5790 N.am      6 SEP2        0.0000 
      4 N          41.6620   70.3095   21.8205 N.am      2 SEC2        0.0000 
      5 N          43.1530   70.0460   22.1450 N.am     10 SEL2        0.0000 
      6 N          40.1710   70.5730   21.4960 N.am      6 SEP2        0.0000 
      7 NZ         40.8020   68.2325   22.5955 N.4       3 LYC4        0.0000 
      8 NZ         42.1610   67.8430   22.7580 N.4      11 LYL4        0.0000 
      9 NZ         39.1680   69.8020   21.8950 N.4       7 LYP4        0.0000 
     10 N          40.8020   68.2325   22.5955 N.am      2 SEC2        0.0000 
     11 N          42.1610   67.8430   22.7580 N.am     10 SEL2        0.0000 
     12 N          39.4430   68.6220   22.4330 N.am      6 SEP2        0.0000 
     13 N          47.4990   69.4460   24.4675 N.am      2 SEC2        0.0000 
     14 N          46.9760   68.4510   23.6050 N.am     10 SEL2        0.0000 
     15 N          48.0220   70.4410   25.3300 N.am      6 SEP2        0.0000 
     16 N          45.0700   69.3715   20.1695 N.am      2 SEC2        0.0000 
     17 N          46.0870   69.4330   21.4020 N.am     10 SEL2        0.0000 
     18 N          44.0530   69.3100   18.9370 N.am      6 SEP2        0.0000 
     19 N          48.9465   64.7870   25.7300 N.am      2 SEC2        0.0000 
     20 N          48.5500   64.3290   24.3690 N.am     10 SEL2        0.0000 
     21 N          49.3430   65.2450   27.0910 N.am      6 SEP2        0.0000 
     22 N          51.7395   61.3425   25.0340 N.am      2 SEC2        0.0000 
     23 N          50.6390   62.2240   25.2600 N.am     10 SEL2        0.0000 
     24 N          52.8400   60.4610   24.8080 N.am      6 SEP2        0.0000 
     25 N          50.8790   63.0370   26.3665 N.am      2 SEC2        0.0000 
     26 N          51.1190   63.8500   27.4730 N.am      6 SEP2        0.0000 
     27 O          50.2260   59.6040   23.9720 O.2       1 ALC1        0.0000 
     28 O          49.4380   60.7440   24.0460 O.2       9 ALL1        0.0000 
     29 O          51.0140   58.4640   23.8980 O.2       5 ALP1        0.0000 
     30 O          49.6690   58.7960   23.3690 O.2       1 ALC1        0.0000 
     31 O          48.3240   59.1280   22.8400 O.2       9 ALL1        0.0000 
     32 CA         45.2747   63.1535   24.1172 C.3       4 GLC5        0.0000 
     33 CA         45.7170   63.6650   22.1440 C.3      12 GLL5        0.0000 
     34 CA         45.4320   62.2170   25.9030 C.3       8 GLP5        0.0000 
@<TRIPOS>BOND
@<TRIPOS>SUBSTRUCTURE
     1 ALC1       27 GROUP        1 X    ALC  0     ROOT ALC X 1
     2 SEC2        1 GROUP        1 X    SEC  0     **** SEC X 2
     3 LYC4        7 GROUP        1 X    LYC  0     **** LYC X 4
     4 GLC5       32 GROUP        1 X    GLC  0     **** GLC X 6
     5 ALP1       29 GROUP        1 Y    ALP  0     ROOT ALP Y 8
     6 SEP2        3 GROUP        1 Y    SEP  0     **** SEP Y 9
     7 LYP4        9 GROUP        1 Y    LYP  0     **** LYP Y 11
     8 GLP5       34 GROUP        1 Y    GLP  0     **** GLP Y 13
     9 ALL1       28 GROUP        1 Z    ALL  0     ROOT ALL Z 15
    10 SEL2        2 GROUP        1 Z    SEL  0     **** SEL Z 16
    11 LYL4        8 GROUP        1 Z    LYL  0     **** LYL Z 18
    12 GLL5       33 GROUP        1 Z    GLL  0     **** GLL Z 20
@<TRIPOS>SET

