#    Name: 2i8u_GDP_1_ligand
#    Modification time : Tue Mar 25 17:33:23 2014

@<TRIPOS>MOLECULE
2i8u_GDP_1_ligand
   40    42     1     0     0
SMALL
NO_CHARGES


@<TRIPOS>ATOM
      1 PB         43.1780   68.8970   23.1190 P.3       1 GDP820      0.0000 
      2 O1B        43.0800   69.3440   24.5560 O.co2     1 GDP820      0.0000 
      3 O2B        43.1530   70.0460   22.1450 O.co2     1 GDP820      0.0000 
      4 O3B        42.1610   67.8430   22.7580 O.co2     1 GDP820      0.0000 
      5 O3A        44.5270   68.0410   22.9230 O.3       1 GDP820      0.0000 
      6 PA         46.0280   68.3450   22.4410 P.3       1 GDP820      0.0000 
      7 O1A        46.9760   68.4510   23.6050 O.co2     1 GDP820      0.0000 
      8 O2A        46.0870   69.4330   21.4020 O.co2     1 GDP820      0.0000 
      9 O5'        46.3690   66.9330   21.7550 O.3       1 GDP820      0.0000 
     10 C5'        45.9150   66.6140   20.4420 C.3       1 GDP820      0.0000 
     11 C4'        45.3790   65.1870   20.3810 C.3       1 GDP820      0.0000 
     12 O4'        46.2840   64.2490   20.9660 O.3       1 GDP820      0.0000 
     13 C3'        44.0790   65.0150   21.1510 C.3       1 GDP820      0.0000 
     14 O3'        43.3200   64.0100   20.4690 O.3       1 GDP820      0.0000 
     15 C2'        44.5180   64.5150   22.5190 C.3       1 GDP820      0.0000 
     16 O2'        43.5910   63.6490   23.1720 O.3       1 GDP820      0.0000 
     17 C1'        45.7170   63.6650   22.1440 C.3       1 GDP820      0.0000 
     18 N9         46.8890   63.6780   23.0450 N.pl3     1 GDP820      0.0000 
     19 C8         47.4470   64.7120   23.6930 C.2       1 GDP820      0.0000 
     20 N7         48.5500   64.3290   24.3690 N.2       1 GDP820      0.0000 
     21 C5         48.7040   63.0130   24.1330 C.2       1 GDP820      0.0000 
     22 C6         49.6650   61.9670   24.5290 C.2       1 GDP820      0.0000 
     23 O6         50.6390   62.2240   25.2600 O.2       1 GDP820      0.0000 
     24 N1         49.4380   60.7440   24.0460 N.am      1 GDP820      0.0000 
     25 C2         48.4190   60.4160   23.2440 C.2       1 GDP820      0.0000 
     26 N2         48.3240   59.1280   22.8400 N.pl3     1 GDP820      0.0000 
     27 N3         47.4890   61.2970   22.8220 N.2       1 GDP820      0.0000 
     28 C4         47.6080   62.5750   23.2440 C.2       1 GDP820      0.0000 
     29 H          46.7251   66.6983   19.6999 H         1 GDP820      0.0000 
     30 H          45.1069   67.2884   20.1161 H         1 GDP820      0.0000 
     31 H          45.1836   64.9239   19.3488 H         1 GDP820      0.0000 
     32 H          43.6028   65.9311   21.2354 H         1 GDP820      0.0000 
     33 H          44.8609   65.3156   23.0973 H         1 GDP820      0.0000 
     34 H          45.4229   62.6665   21.9281 H         1 GDP820      0.0000 
     35 H          47.0990   65.6341   23.6795 H         1 GDP820      0.0000 
     36 H          50.1271   59.9603   24.3222 H         1 GDP820      0.0000 
     37 H          49.0625   58.5199   23.1312 H         1 GDP820      0.0000 
     38 H          47.5237   58.8985   22.2861 H         1 GDP820      0.0000 
     39 H          43.0582   63.3569   21.1795 H         1 GDP820      0.0000 
     40 H          42.8672   64.2514   23.5086 H         1 GDP820      0.0000 
@<TRIPOS>BOND
     1    2    1 ar   
     2    3    1 ar   
     3    4    1 ar   
     4    5    1 1    
     5    6    5 1    
     6    7    6 ar   
     7    8    6 ar   
     8    9    6 1    
     9   10    9 1    
    10   11   10 1    
    11   29   10 1    
    12   30   10 1    
    13   12   11 1    
    14   13   11 1    
    15   31   11 1    
    16   17   12 1    
    17   14   13 1    
    18   15   13 1    
    19   32   13 1    
    20   39   14 1    
    21   16   15 1    
    22   17   15 1    
    23   33   15 1    
    24   40   16 1    
    25   18   17 1    
    26   34   17 1    
    27   19   18 1    
    28   28   18 1    
    29   20   19 2    
    30   35   19 1    
    31   21   20 1    
    32   22   21 1    
    33   28   21 2    
    34   23   22 2    
    35   24   22 am   
    36   25   24 1    
    37   36   24 1    
    38   26   25 1    
    39   27   25 2    
    40   37   26 1    
    41   38   26 1    
    42   28   27 1    
@<TRIPOS>SUBSTRUCTURE
     1 GDP820      1 GROUP   
@<TRIPOS>SET

