#    Name: 2ad5_ADP_3_INTS_M
#    Modification time : Mon Mar 24 19:02:48 2014

@<TRIPOS>MOLECULE
2ad5_ADP_3_INTS_M
   52     0    15     0     0
SMALL
NO_CHARGES


@<TRIPOS>ATOM
      1 Zn         19.3050   -6.2955  -12.8745 Zn        4 ZIC7        0.0000 
      2 Zn         19.8530   -5.7520  -12.2080 Zn       14 ZIL7        0.0000 
      3 Zn         18.7570   -6.8390  -13.5410 Zn        9 ZIP7        0.0000 
      4 N          20.1405   -7.3955  -11.9075 N.am      2 SEC2        0.0000 
      5 N          19.8530   -5.7520  -12.2080 N.am     12 SEL2        0.0000 
      6 N          20.4280   -9.0390  -11.6070 N.am      7 SEP2        0.0000 
      7 NZ         17.9810   -5.0035   -9.9820 N.4       3 LYC4        0.0000 
      8 NZ         19.7840   -5.2500   -9.7530 N.4      13 LYL4        0.0000 
      9 NZ         16.1780   -4.7570  -10.2110 N.4       8 LYP4        0.0000 
     10 N          20.4790   -4.2980   -8.5850 N.am      2 SEC2        0.0000 
     11 N          19.7840   -5.2500   -9.7530 N.am     12 SEL2        0.0000 
     12 N          21.1740   -3.3460   -7.4170 N.am      7 SEP2        0.0000 
     13 N          20.9870   -5.4770   -8.9810 N.am      2 SEC2        0.0000 
     14 N          22.1900   -5.7040   -8.2090 N.am      7 SEP2        0.0000 
     15 N          20.2115   -6.5160   -9.4590 N.am      2 SEC2        0.0000 
     16 N          20.6390   -7.7820   -9.1650 N.am      7 SEP2        0.0000 
     17 N          19.9620   -2.3805  -10.0675 N.am      2 SEC2        0.0000 
     18 N          19.8750   -3.3830  -11.4350 N.am     12 SEL2        0.0000 
     19 N          20.0490   -1.3780   -8.7000 N.am      7 SEP2        0.0000 
     20 N          22.8680   -8.7675  -11.7460 N.am      2 SEC2        0.0000 
     21 N          22.7420   -7.3200  -11.5130 N.am     12 SEL2        0.0000 
     22 N          22.9940  -10.2150  -11.9790 N.am      7 SEP2        0.0000 
     23 N          22.0130   -5.3150   -9.6125 N.am      2 SEC2        0.0000 
     24 N          21.8360   -4.9260  -11.0160 N.am     12 SEL2        0.0000 
     25 CA         22.8610   -2.8195   -9.6845 C.3       5 GLC5        0.0000 
     26 CA         24.2190   -4.1910  -10.5500 C.3      15 GLL5        0.0000 
     27 CA         21.5030   -1.4480   -8.8190 C.3      10 GLP5        0.0000 
     28 CA         23.5380   -5.5255   -9.6530 C.3       5 GLC5        0.0000 
     29 CA         22.8570   -6.8600   -8.7560 C.3      10 GLP5        0.0000 
     30 CA         26.5915   -6.7175  -11.9450 C.3       5 GLC5        0.0000 
     31 CA         27.3550   -5.1270  -11.2060 C.3      15 GLL5        0.0000 
     32 CA         25.8280   -8.3080  -12.6840 C.3      10 GLP5        0.0000 
     33 CA         29.5730   -7.4085   -4.3120 C.3       5 GLC5        0.0000 
     34 CA         28.6700   -7.8940   -6.0830 C.3      15 GLL5        0.0000 
     35 CA         30.4760   -6.9230   -2.5410 C.3      10 GLP5        0.0000 
     36 CA         30.4255   -9.0015   -6.0760 C.3       5 GLC5        0.0000 
     37 CA         32.1810  -10.1090   -6.0690 C.3      10 GLP5        0.0000 
     38 O          28.6985   -9.0855   -3.8850 O.2       1 ALC1        0.0000 
     39 O          28.2650   -8.9050   -5.3040 O.2      11 ALL1        0.0000 
     40 O          29.1320   -9.2660   -2.4660 O.2       6 ALP1        0.0000 
     41 N          30.9550   -7.7600   -4.9050 N.am      2 SEC2        0.0000 
     42 N          29.8940   -7.3610   -5.8660 N.am     12 SEL2        0.0000 
     43 N          32.0160   -8.1590   -3.9440 N.am      7 SEP2        0.0000 
     44 CA         30.3805   -6.6290   -4.5885 C.3       5 GLC5        0.0000 
     45 CA         30.2850   -6.3350   -6.6360 C.3      15 GLL5        0.0000 
     46 CA         31.2330   -8.2220   -6.3525 C.3       5 GLC5        0.0000 
     47 CA         28.4213   -9.4828   -7.1192 C.3       5 GLC5        0.0000 
     48 CA         27.8790   -7.3390   -7.1200 C.3      15 GLL5        0.0000 
     49 CA         28.5680  -11.3490   -7.6370 C.3      10 GLP5        0.0000 
     50 CA         27.3866   -3.0551   -9.6185 C.3       5 GLC5        0.0000 
     51 CA         27.4630   -4.8060   -9.7180 C.3      15 GLL5        0.0000 
     52 CA         28.0330   -1.7440   -8.4410 C.3      10 GLP5        0.0000 
@<TRIPOS>BOND
@<TRIPOS>SUBSTRUCTURE
     1 ALC1       38 GROUP        1 X    ALC  0     ROOT ALC X 1
     2 SEC2        4 GROUP        1 X    SEC  0     **** SEC X 2
     3 LYC4        7 GROUP        1 X    LYC  0     **** LYC X 4
     4 ZIC7        1 GROUP        1 X    ZIC  0     **** ZIC X 5
     5 GLC5       25 GROUP        1 X    GLC  0     **** GLC X 6
     6 ALP1       40 GROUP        1 Y    ALP  0     ROOT ALP Y 8
     7 SEP2        6 GROUP        1 Y    SEP  0     **** SEP Y 9
     8 LYP4        9 GROUP        1 Y    LYP  0     **** LYP Y 11
     9 ZIP7        3 GROUP        1 Y    ZIP  0     **** ZIP Y 12
    10 GLP5       27 GROUP        1 Y    GLP  0     **** GLP Y 13
    11 ALL1       39 GROUP        1 Z    ALL  0     ROOT ALL Z 15
    12 SEL2        5 GROUP        1 Z    SEL  0     **** SEL Z 16
    13 LYL4        8 GROUP        1 Z    LYL  0     **** LYL Z 18
    14 ZIL7        2 GROUP        1 Z    ZIL  0     **** ZIL Z 19
    15 GLL5       26 GROUP        1 Z    GLL  0     **** GLL Z 20
@<TRIPOS>SET

