#    Name: 2ad5_ADP_3_ligand
#    Modification time : Mon Mar 24 19:02:49 2014

@<TRIPOS>MOLECULE
2ad5_ADP_3_ligand
   39    41     1     0     0
SMALL
NO_CHARGES


@<TRIPOS>ATOM
      1 PB         20.2070   -4.8070  -11.1080 P.3       1 ADP1601     0.0000 
      2 O1B        19.8530   -5.7520  -12.2080 O.co2     1 ADP1601     0.0000 
      3 O2B        19.7840   -5.2500   -9.7530 O.co2     1 ADP1601     0.0000 
      4 O3B        19.8750   -3.3830  -11.4350 O.co2     1 ADP1601     0.0000 
      5 PA         22.8540   -5.8790  -11.8840 P.3       1 ADP1601     0.0000 
      6 O1A        22.7420   -7.3200  -11.5130 O.co2     1 ADP1601     0.0000 
      7 O2A        22.7040   -5.5900  -13.3400 O.co2     1 ADP1601     0.0000 
      8 O3A        21.8360   -4.9260  -11.0160 O.3       1 ADP1601     0.0000 
      9 O5'        24.1590   -5.3530  -11.3830 O.3       1 ADP1601     0.0000 
     10 C5'        24.2190   -4.1910  -10.5500 C.3       1 ADP1601     0.0000 
     11 C4'        25.6160   -3.5880  -10.5430 C.3       1 ADP1601     0.0000 
     12 O4'        26.3270   -4.0320   -9.3680 O.3       1 ADP1601     0.0000 
     13 C3'        26.5270   -3.9440  -11.7170 C.3       1 ADP1601     0.0000 
     14 O3'        27.3510   -2.8280  -12.0480 O.3       1 ADP1601     0.0000 
     15 C2'        27.3550   -5.1270  -11.2060 C.3       1 ADP1601     0.0000 
     16 O2'        28.6460   -5.1490  -11.7930 O.3       1 ADP1601     0.0000 
     17 C1'        27.4630   -4.8060   -9.7180 C.3       1 ADP1601     0.0000 
     18 N9         27.4870   -5.9260   -8.7750 N.pl3     1 ADP1601     0.0000 
     19 C8         26.4210   -6.7550   -8.5580 C.2       1 ADP1601     0.0000 
     20 N7         26.6130   -7.6370   -7.5990 N.2       1 ADP1601     0.0000 
     21 C5         27.8790   -7.3390   -7.1200 C.ar      1 ADP1601     0.0000 
     22 C6         28.6700   -7.8940   -6.0830 C.ar      1 ADP1601     0.0000 
     23 N6         28.2650   -8.9050   -5.3040 N.pl3     1 ADP1601     0.0000 
     24 N1         29.8940   -7.3610   -5.8660 N.ar      1 ADP1601     0.0000 
     25 C2         30.2850   -6.3350   -6.6360 C.ar      1 ADP1601     0.0000 
     26 N3         29.6320   -5.7200   -7.6280 N.ar      1 ADP1601     0.0000 
     27 C4         28.4200   -6.2710   -7.8190 C.ar      1 ADP1601     0.0000 
     28 H          23.9493   -4.4284   -9.5074 H         1 ADP1601     0.0000 
     29 H          23.5177   -3.4124  -10.8936 H         1 ADP1601     0.0000 
     30 H          25.5350   -2.4995  -10.5039 H         1 ADP1601     0.0000 
     31 H          25.9190   -4.2795  -12.5171 H         1 ADP1601     0.0000 
     32 H          26.7956   -6.0035  -11.3185 H         1 ADP1601     0.0000 
     33 H          28.3556   -4.1857   -9.5709 H         1 ADP1601     0.0000 
     34 H          25.5765   -6.6768   -9.0974 H         1 ADP1601     0.0000 
     35 H          27.3536   -9.2697   -5.4947 H         1 ADP1601     0.0000 
     36 H          28.9102   -9.2048   -4.6012 H         1 ADP1601     0.0000 
     37 H          31.2992   -5.9392   -6.4170 H         1 ADP1601     0.0000 
     38 H          26.9480   -2.4467  -12.8799 H         1 ADP1601     0.0000 
     39 H          28.7744   -4.2317  -12.1699 H         1 ADP1601     0.0000 
@<TRIPOS>BOND
     1    2    1 ar   
     2    3    1 ar   
     3    4    1 ar   
     4    8    1 1    
     5    6    5 ar   
     6    7    5 ar   
     7    8    5 1    
     8    9    5 1    
     9   10    9 1    
    10   11   10 1    
    11   28   10 1    
    12   29   10 1    
    13   12   11 1    
    14   13   11 1    
    15   30   11 1    
    16   17   12 1    
    17   14   13 1    
    18   15   13 1    
    19   31   13 1    
    20   38   14 1    
    21   16   15 1    
    22   17   15 1    
    23   32   15 1    
    24   39   16 1    
    25   18   17 1    
    26   33   17 1    
    27   19   18 1    
    28   27   18 1    
    29   20   19 2    
    30   34   19 1    
    31   21   20 1    
    32   22   21 ar   
    33   27   21 ar   
    34   23   22 1    
    35   24   22 ar   
    36   35   23 1    
    37   36   23 1    
    38   25   24 ar   
    39   26   25 ar   
    40   37   25 1    
    41   27   26 ar   
@<TRIPOS>SUBSTRUCTURE
     1 ADP1601     1 GROUP   
@<TRIPOS>SET

