#    Name: 2zsi_GA4_1_INTS_M
#    Modification time : Tue Mar 25 11:02:29 2014

@<TRIPOS>MOLECULE
2zsi_GA4_1_INTS_M
   39     0     9     0     0
SMALL
NO_CHARGES


@<TRIPOS>ATOM
      1 O         -13.3020   17.5115   -8.9210 O.2       1 ALC1        0.0000 
      2 O         -12.0050   17.8480   -8.6160 O.2       7 ALL1        0.0000 
      3 O         -14.5990   17.1750   -9.2260 O.2       4 ALP1        0.0000 
      4 N         -12.5815   21.3600   -3.9050 N.am      2 SEC2        0.0000 
      5 N         -12.4870   20.3200   -4.7660 N.am      8 SEL2        0.0000 
      6 N         -12.6760   22.4000   -3.0440 N.am      5 SEP2        0.0000 
      7 N         -14.2050   19.4175   -3.5810 N.am      2 SEC2        0.0000 
      8 N         -12.7930   19.0630   -2.9600 N.am      8 SEL2        0.0000 
      9 N         -15.6170   19.7720   -4.2020 N.am      5 SEP2        0.0000 
     10 CA         -6.7610   15.9830   -4.4780 C.3       3 GLC5        0.0000 
     11 CA         -7.3750   17.8140   -4.4800 C.3       9 GLL5        0.0000 
     12 CA         -6.1470   14.1520   -4.4760 C.3       6 GLP5        0.0000 
     13 CA         -4.8210   19.0490   -4.0995 C.3       3 GLC5        0.0000 
     14 CA         -6.6830   18.6760   -3.4170 C.3       9 GLL5        0.0000 
     15 CA         -2.9590   19.4220   -4.7820 C.3       6 GLP5        0.0000 
     16 CA         -8.5190   23.3755   -2.5255 C.3       3 GLC5        0.0000 
     17 CA         -7.6940   21.7620   -2.7460 C.3       9 GLL5        0.0000 
     18 CA         -9.3440   24.9890   -2.3050 C.3       6 GLP5        0.0000 
     19 CA        -14.6175   17.6355   -5.3210 C.3       3 GLC5        0.0000 
     20 CA        -13.0510   16.7650   -6.1590 C.3       9 GLL5        0.0000 
     21 CA        -16.1840   18.5060   -4.4830 C.3       6 GLP5        0.0000 
     22 CA         -7.9595   16.8070   -8.7765 C.3       3 GLC5        0.0000 
     23 CA         -9.8840   16.8400   -8.3300 C.3       9 GLL5        0.0000 
     24 CA         -6.4880   16.3440   -9.6330 C.3       6 GLP5        0.0000 
     25 CA        -10.8995   16.6885  -10.0730 C.3       3 GLC5        0.0000 
     26 CA        -11.2200   16.5690  -11.9980 C.3       6 GLP5        0.0000 
     27 CA        -10.6075   14.8330   -8.7375 C.3       3 GLC5        0.0000 
     28 CA        -10.6360   12.8580   -9.3270 C.3       6 GLP5        0.0000 
     29 CA         -6.6963   18.1457   -6.5295 C.3       3 GLC5        0.0000 
     30 CA         -8.6300   18.5230   -5.1500 C.3       9 GLL5        0.0000 
     31 CA         -5.3900   18.1230   -8.2440 C.3       6 GLP5        0.0000 
     32 CA         -8.4224   19.8690   -6.7858 C.3       3 GLC5        0.0000 
     33 CA         -7.9400   21.6080   -7.5860 C.3       6 GLP5        0.0000 
     34 CA         -8.4572   18.1867   -0.9260 C.3       3 GLC5        0.0000 
     35 CA         -7.7380   19.4470   -2.5400 C.3       9 GLL5        0.0000 
     36 CA         -8.5230   17.2970    0.6940 C.3       6 GLP5        0.0000 
     37 CA         -7.6661   21.7233   -4.8829 C.3       3 GLC5        0.0000 
     38 CA         -8.2000   20.6800   -3.0050 C.3       9 GLL5        0.0000 
     39 CA         -7.1030   22.2480   -6.6740 C.3       6 GLP5        0.0000 
@<TRIPOS>BOND
@<TRIPOS>SUBSTRUCTURE
     1 ALC1        1 GROUP        1 X    ALC  0     ROOT ALC X 1
     2 SEC2        4 GROUP        1 X    SEC  0     **** SEC X 2
     3 GLC5       10 GROUP        1 X    GLC  0     **** GLC X 6
     4 ALP1        3 GROUP        1 Y    ALP  0     ROOT ALP Y 8
     5 SEP2        6 GROUP        1 Y    SEP  0     **** SEP Y 9
     6 GLP5       12 GROUP        1 Y    GLP  0     **** GLP Y 13
     7 ALL1        2 GROUP        1 Z    ALL  0     ROOT ALL Z 15
     8 SEL2        5 GROUP        1 Z    SEL  0     **** SEL Z 16
     9 GLL5       11 GROUP        1 Z    GLL  0     **** GLL Z 20
@<TRIPOS>SET

