#    Name: 2zsi_GA4_1_ligand
#    Modification time : Tue Mar 25 11:02:29 2014

@<TRIPOS>MOLECULE
2zsi_GA4_1_ligand
   45    49     1     0     0
SMALL
NO_CHARGES


@<TRIPOS>ATOM
      1 C1         -8.9780   17.7000   -7.5100 C.3       1 GA4345      0.0000 
      2 C2         -9.8840   16.8400   -8.3300 C.3       1 GA4345      0.0000 
      3 C3        -11.2740   16.7760   -7.9660 C.3       1 GA4345      0.0000 
      4 O31       -12.0050   17.8480   -8.6160 O.3       1 GA4345      0.0000 
      5 C4        -11.5760   16.8130   -6.3660 C.3       1 GA4345      0.0000 
      6 C5        -10.8730   18.0130   -5.7750 C.3       1 GA4345      0.0000 
      7 C6        -10.9640   18.5050   -4.2590 C.3       1 GA4345      0.0000 
      8 C7        -12.1600   19.4160   -4.0570 C.2       1 GA4345      0.0000 
      9 O71       -12.4870   20.3200   -4.7660 O.co2     1 GA4345      0.0000 
     10 O72       -12.7930   19.0630   -2.9600 O.co2     1 GA4345      0.0000 
     11 C8         -9.5100   19.0010   -3.8960 C.3       1 GA4345      0.0000 
     12 C9         -8.6300   18.5230   -5.1500 C.3       1 GA4345      0.0000 
     13 C10        -9.3810   17.7740   -6.1320 C.3       1 GA4345      0.0000 
     14 C11        -7.3750   17.8140   -4.4800 C.3       1 GA4345      0.0000 
     15 C12        -6.6830   18.6760   -3.4170 C.3       1 GA4345      0.0000 
     16 C13        -7.7380   19.4470   -2.5400 C.3       1 GA4345      0.0000 
     17 C14        -9.0450   18.7060   -2.5520 C.3       1 GA4345      0.0000 
     18 C15        -9.3290   20.5900   -3.8700 C.3       1 GA4345      0.0000 
     19 C16        -8.2000   20.6800   -3.0050 C.2       1 GA4345      0.0000 
     20 C17        -7.6940   21.7620   -2.7460 C.2       1 GA4345      0.0000 
     21 C18       -13.0510   16.7650   -6.1590 C.3       1 GA4345      0.0000 
     22 C19       -10.7560   15.6910   -5.7530 C.2       1 GA4345      0.0000 
     23 O91       -11.0680   14.6540   -5.4670 O.2       1 GA4345      0.0000 
     24 O92        -9.4080   16.2570   -5.5710 O.3       1 GA4345      0.0000 
     25 H          -8.9502   18.7129   -7.9647 H         1 GA4345      0.0000 
     26 H          -7.9449   17.3013   -7.5949 H         1 GA4345      0.0000 
     27 H          -9.4427   15.7945   -8.3474 H         1 GA4345      0.0000 
     28 H          -9.7847   17.1694   -9.4116 H         1 GA4345      0.0000 
     29 H         -11.7109   15.8117   -8.3029 H         1 GA4345      0.0000 
     30 H         -11.1298   18.9107   -6.4198 H         1 GA4345      0.0000 
     31 H         -11.1169   17.5561   -3.6920 H         1 GA4345      0.0000 
     32 H          -8.2320   19.4736   -5.5631 H         1 GA4345      0.0000 
     33 H          -6.6682   17.5697   -5.2771 H         1 GA4345      0.0000 
     34 H          -7.7229   16.8800   -4.0313 H         1 GA4345      0.0000 
     35 H          -6.0415   19.4068   -3.8965 H         1 GA4345      0.0000 
     36 H          -6.0915   18.0470   -2.7613 H         1 GA4345      0.0000 
     37 H          -7.4093   19.4855   -1.5283 H         1 GA4345      0.0000 
     38 H          -8.8648   17.6692   -2.4209 H         1 GA4345      0.0000 
     39 H          -9.6908   19.1162   -1.8175 H         1 GA4345      0.0000 
     40 H         -10.2104   20.9848   -3.4575 H         1 GA4345      0.0000 
     41 H          -9.1294   20.8846   -4.8580 H         1 GA4345      0.0000 
     42 H         -13.2906   16.7842   -5.1883 H         1 GA4345      0.0000 
     43 H         -13.5120   17.5407   -6.5901 H         1 GA4345      0.0000 
     44 H         -13.4532   15.9342   -6.5438 H         1 GA4345      0.0000 
     45 H         -12.6948   17.3885   -9.1756 H         1 GA4345      0.0000 
@<TRIPOS>BOND
     1    2    1 1    
     2   13    1 1    
     3   25    1 1    
     4   26    1 1    
     5    3    2 1    
     6   27    2 1    
     7   28    2 1    
     8    4    3 1    
     9    5    3 1    
    10   29    3 1    
    11   45    4 1    
    12    6    5 1    
    13   21    5 1    
    14   22    5 1    
    15    7    6 1    
    16   13    6 1    
    17   30    6 1    
    18    8    7 1    
    19   11    7 1    
    20   31    7 1    
    21    9    8 ar   
    22   10    8 ar   
    23   12   11 1    
    24   17   11 1    
    25   18   11 1    
    26   13   12 1    
    27   14   12 1    
    28   32   12 1    
    29   24   13 1    
    30   15   14 1    
    31   33   14 1    
    32   34   14 1    
    33   16   15 1    
    34   35   15 1    
    35   36   15 1    
    36   17   16 1    
    37   19   16 1    
    38   37   16 1    
    39   38   17 1    
    40   39   17 1    
    41   19   18 1    
    42   40   18 1    
    43   41   18 1    
    44   20   19 2    
    45   42   21 1    
    46   43   21 1    
    47   44   21 1    
    48   23   22 2    
    49   24   22 1    
@<TRIPOS>SUBSTRUCTURE
     1 GA4345      1 GROUP   
@<TRIPOS>SET

