#    Name: 3fls_FLS_1_INTS_M
#    Modification time : Tue Mar 25 06:03:24 2014

@<TRIPOS>MOLECULE
3fls_FLS_1_INTS_M
   78     0     9     0     0
SMALL
NO_CHARGES


@<TRIPOS>ATOM
      1 CA         28.2510    6.6915   28.7250 C.3       3 GLC5        0.0000 
      2 CA         26.8090    7.9260   29.4340 C.3       9 GLL5        0.0000 
      3 CA         29.6930    5.4570   28.0160 C.3       6 GLP5        0.0000 
      4 CA         27.9970    9.0695   28.1940 C.3       3 GLC5        0.0000 
      5 CA         29.1850   10.2130   26.9540 C.3       6 GLP5        0.0000 
      6 CA         25.8375    7.7375   27.4830 C.3       3 GLC5        0.0000 
      7 CA         24.8660    7.5490   25.5320 C.3       6 GLP5        0.0000 
      8 CA         28.5710    6.0990   29.7585 C.3       3 GLC5        0.0000 
      9 CA         27.4490    6.7410   31.5010 C.3       9 GLL5        0.0000 
     10 CA         25.7635    5.6295   35.3960 C.3       3 GLC5        0.0000 
     11 CA         26.4580    5.0040   33.3650 C.3       9 GLL5        0.0000 
     12 CA         25.0690    6.2550   37.4270 C.3       6 GLP5        0.0000 
     13 CA         24.6285    4.6500   33.5505 C.3       3 GLC5        0.0000 
     14 CA         22.7990    4.2960   33.7360 C.3       6 GLP5        0.0000 
     15 CA         20.0440   11.1545   32.8215 C.3       3 GLC5        0.0000 
     16 CA         20.0580   10.4850   30.8060 C.3       9 GLL5        0.0000 
     17 CA         20.0300   11.8240   34.8370 C.3       6 GLP5        0.0000 
     18 O          25.4255    5.4405   30.4795 O.2       1 ALC1        0.0000 
     19 O          25.1150    6.7100   30.7140 O.2       7 ALL1        0.0000 
     20 O          25.7360    4.1710   30.2450 O.2       4 ALP1        0.0000 
     21 CA         23.3410    5.7840   32.1995 C.3       3 GLC5        0.0000 
     22 CA         23.8830    7.2720   30.6630 C.3       9 GLL5        0.0000 
     23 CA         23.9350    6.0405   29.1435 C.3       3 GLC5        0.0000 
     24 CA         23.9870    4.8090   27.6240 C.3       6 GLP5        0.0000 
     25 CA         23.1210   11.0865   29.3315 C.3       3 GLC5        0.0000 
     26 CA         23.6630   11.3740   31.4880 C.3       9 GLL5        0.0000 
     27 CA         22.5790   10.7990   27.1750 C.3       6 GLP5        0.0000 
     28 N          22.9110    5.1475   30.0060 N.am      2 SEC2        0.0000 
     29 N          22.7740    6.5380   30.3600 N.am      8 SEL2        0.0000 
     30 N          23.0480    3.7570   29.6520 N.am      5 SEP2        0.0000 
     31 CA         21.4295    5.0725   30.7295 C.3       3 GLC5        0.0000 
     32 CA         21.5580    7.1150   30.3010 C.3       9 GLL5        0.0000 
     33 CA         21.3010    3.0300   31.1580 C.3       6 GLP5        0.0000 
     34 CA         22.1110    6.0060   28.5765 C.3       3 GLC5        0.0000 
     35 CA         22.6640    4.8970   26.8520 C.3       6 GLP5        0.0000 
     36 CA         19.0755    9.0785   28.7875 C.3       3 GLC5        0.0000 
     37 CA         20.1380    9.1480   30.5270 C.3       9 GLL5        0.0000 
     38 CA         18.0130    9.0090   27.0480 C.3       6 GLP5        0.0000 
     39 CA         18.6235    7.9780   29.9920 C.3       3 GLC5        0.0000 
     40 CA         17.1090    6.8080   29.4570 C.3       6 GLP5        0.0000 
     41 CA         19.0835    9.4310   33.9035 C.3       3 GLC5        0.0000 
     42 CA         17.8410    9.4920   32.6910 C.3       9 GLL5        0.0000 
     43 CA         20.3260    9.3700   35.1160 C.3       6 GLP5        0.0000 
     44 CA         16.8560    8.3570   34.2835 C.3       3 GLC5        0.0000 
     45 CA         15.8710    7.2220   35.8760 C.3       6 GLP5        0.0000 
     46 CA         14.4400    7.6780   31.9835 C.3       3 GLC5        0.0000 
     47 CA         15.8230    9.2290   31.4430 C.3       9 GLL5        0.0000 
     48 CA         13.0570    6.1270   32.5240 C.3       6 GLP5        0.0000 
     49 CA         13.2795   10.7950   28.9605 C.3       3 GLC5        0.0000 
     50 CA         13.8720    9.0710   30.0810 C.3       9 GLL5        0.0000 
     51 CA         12.6870   12.5190   27.8400 C.3       6 GLP5        0.0000 
     52 CA         13.4645    7.5990   31.3025 C.3       3 GLC5        0.0000 
     53 CA         14.8760    7.6060   29.4480 C.3       3 GLC5        0.0000 
     54 CA         15.8800    6.1410   28.8150 C.3       6 GLP5        0.0000 
     55 CA         14.1565   11.4760   28.5910 C.3       3 GLC5        0.0000 
     56 CA         15.6260   10.4330   29.3420 C.3       9 GLL5        0.0000 
     57 CA         21.3385   10.3077   28.9207 C.3       3 GLC5        0.0000 
     58 CA         22.2853    9.8205   28.9488 C.3       3 GLC5        0.0000 
     59 CA         21.4210    8.4770   30.5650 C.3       9 GLL5        0.0000 
     60 CA         20.0524    7.3345   31.6385 C.3       3 GLC5        0.0000 
     61 CA         19.2910    6.1970   32.7970 C.3       6 GLP5        0.0000 
     62 CA         16.6947   12.1710   31.4200 C.3       3 GLC5        0.0000 
     63 CA         17.6240   10.6390   30.6500 C.3       9 GLL5        0.0000 
     64 CA         16.1340   13.5320   32.7560 C.3       6 GLP5        0.0000 
     65 CA         17.6343    9.9095   28.5660 C.3       3 GLC5        0.0000 
     66 CA         18.3805    7.9162   32.4740 C.3       3 GLC5        0.0000 
     67 CA         17.0990    9.7790   31.6110 C.3       9 GLL5        0.0000 
     68 CA         17.3551    8.3293   30.6839 C.3       3 GLC5        0.0000 
     69 CA         16.2587   10.5096   33.0410 C.3       3 GLC5        0.0000 
     70 CA         15.8710   11.5870   34.2850 C.3       6 GLP5        0.0000 
     71 CA         16.2833    8.1037   30.1638 C.3       3 GLC5        0.0000 
     72 CA         15.0920    9.5700   30.2980 C.3       9 GLL5        0.0000 
     73 CA         16.6860    9.5053   28.4340 C.3       3 GLC5        0.0000 
     74 CA         12.7170    8.9742   29.5732 C.3       3 GLC5        0.0000 
     75 CA         10.9520    8.6280   28.9570 C.3       6 GLP5        0.0000 
     76 CA         13.3704    9.9496   31.3624 C.3       3 GLC5        0.0000 
     77 CA         12.0760   10.6640   32.2490 C.3       6 GLP5        0.0000 
     78 CA         16.6827    8.7575   29.4435 C.3       3 GLC5        0.0000 
@<TRIPOS>BOND
@<TRIPOS>SUBSTRUCTURE
     1 ALC1       18 GROUP        1 X    ALC  0     ROOT ALC X 1
     2 SEC2       28 GROUP        1 X    SEC  0     **** SEC X 2
     3 GLC5        1 GROUP        1 X    GLC  0     **** GLC X 6
     4 ALP1       20 GROUP        1 Y    ALP  0     ROOT ALP Y 8
     5 SEP2       30 GROUP        1 Y    SEP  0     **** SEP Y 9
     6 GLP5        3 GROUP        1 Y    GLP  0     **** GLP Y 13
     7 ALL1       19 GROUP        1 Z    ALL  0     ROOT ALL Z 15
     8 SEL2       29 GROUP        1 Z    SEL  0     **** SEL Z 16
     9 GLL5        2 GROUP        1 Z    GLL  0     **** GLL Z 20
@<TRIPOS>SET

