#    Name: 3fls_FLS_1_ligand
#    Modification time : Tue Mar 25 06:03:24 2014

@<TRIPOS>MOLECULE
3fls_FLS_1_ligand
   47    49     1     0     0
SMALL
NO_CHARGES


@<TRIPOS>ATOM
      1 C1         26.3250    7.5170   30.8210 C.3       1 FLS361      0.0000 
      2 C2         26.8090    7.9260   29.4340 C.3       1 FLS361      0.0000 
      3 C3         27.4490    6.7410   31.5010 C.3       1 FLS361      0.0000 
      4 C5         26.4580    5.0040   33.3650 C.3       1 FLS361      0.0000 
      5 C7         21.2080   11.2040   31.1200 C.2       1 FLS361      0.0000 
      6 C8         20.0580   10.4850   30.8060 C.2       1 FLS361      0.0000 
      7 O29        26.4660    7.4940   33.7860 O.2       1 FLS361      0.0000 
      8 S4         27.2230    6.4630   33.1270 S.o2      1 FLS361      0.0000 
      9 O28        28.5390    6.4230   33.7090 O.2       1 FLS361      0.0000 
     10 N17        25.1150    6.7100   30.7140 N.pl3     1 FLS361      0.0000 
     11 C14        23.8830    7.2720   30.6630 C.ar      1 FLS361      0.0000 
     12 N15        23.7690    8.5920   30.9240 N.ar      1 FLS361      0.0000 
     13 C10        22.5620    9.2070   30.8800 C.ar      1 FLS361      0.0000 
     14 N6         22.4650   10.5860   31.1580 N.am      1 FLS361      0.0000 
     15 C20        23.6630   11.3740   31.4880 C.3       1 FLS361      0.0000 
     16 N13        22.7740    6.5380   30.3600 N.ar      1 FLS361      0.0000 
     17 C12        21.5580    7.1150   30.3010 C.ar      1 FLS361      0.0000 
     18 C11        21.4210    8.4770   30.5650 C.ar      1 FLS361      0.0000 
     19 C9         20.1380    9.1480   30.5270 C.2       1 FLS361      0.0000 
     20 O16        21.1380   12.4250   31.3650 O.2       1 FLS361      0.0000 
     21 O18        18.8680   11.1830   30.8010 O.3       1 FLS361      0.0000 
     22 C19        17.6240   10.6390   30.6500 C.ar      1 FLS361      0.0000 
     23 C25        17.0990    9.7790   31.6110 C.ar      1 FLS361      0.0000 
     24 F26        17.8410    9.4920   32.6910 F         1 FLS361      0.0000 
     25 C24        15.8230    9.2290   31.4430 C.ar      1 FLS361      0.0000 
     26 C23        15.0920    9.5700   30.2980 C.ar      1 FLS361      0.0000 
     27 F27        13.8720    9.0710   30.0810 F         1 FLS361      0.0000 
     28 C22        15.6260   10.4330   29.3420 C.ar      1 FLS361      0.0000 
     29 C21        16.8870   10.9810   29.5180 C.ar      1 FLS361      0.0000 
     30 H          26.1433    8.4146   31.3884 H         1 FLS361      0.0000 
     31 H          28.3991    7.2766   31.4233 H         1 FLS361      0.0000 
     32 H          27.5745    5.7536   31.0483 H         1 FLS361      0.0000 
     33 H          25.2475    5.6821   30.6790 H         1 FLS361      0.0000 
     34 H          20.7141    6.5663   30.0620 H         1 FLS361      0.0000 
     35 H          19.3139    8.5917   30.2881 H         1 FLS361      0.0000 
     36 H          15.4353    8.5965   32.1358 H         1 FLS361      0.0000 
     37 H          15.0767   10.6628   28.5000 H         1 FLS361      0.0000 
     38 H          17.2744   11.6284   28.8276 H         1 FLS361      0.0000 
     39 H          27.6220    8.5064   29.4805 H         1 FLS361      0.0000 
     40 H          27.0473    7.1320   28.8747 H         1 FLS361      0.0000 
     41 H          26.1113    8.4384   28.9333 H         1 FLS361      0.0000 
     42 H          26.9900    4.2414   32.9971 H         1 FLS361      0.0000 
     43 H          26.3097    4.8164   34.3360 H         1 FLS361      0.0000 
     44 H          25.5622    4.9776   32.9213 H         1 FLS361      0.0000 
     45 H          24.4902   10.8121   31.4829 H         1 FLS361      0.0000 
     46 H          23.8098   12.1175   30.8356 H         1 FLS361      0.0000 
     47 H          23.5962   11.7891   32.3953 H         1 FLS361      0.0000 
@<TRIPOS>BOND
     1    2    1 1    
     2    3    1 1    
     3   10    1 1    
     4   30    1 1    
     5   39    2 1    
     6   40    2 1    
     7   41    2 1    
     8    8    3 1    
     9   31    3 1    
    10   32    3 1    
    11    8    4 1    
    12   42    4 1    
    13   43    4 1    
    14   44    4 1    
    15    6    5 1    
    16   14    5 am   
    17   20    5 2    
    18   19    6 2    
    19   21    6 1    
    20    8    7 2    
    21    9    8 2    
    22   11   10 1    
    23   33   10 1    
    24   12   11 ar   
    25   16   11 ar   
    26   13   12 ar   
    27   14   13 1    
    28   18   13 ar   
    29   15   14 1    
    30   45   15 1    
    31   46   15 1    
    32   47   15 1    
    33   17   16 ar   
    34   18   17 ar   
    35   34   17 1    
    36   19   18 1    
    37   35   19 1    
    38   22   21 1    
    39   23   22 ar   
    40   29   22 ar   
    41   24   23 1    
    42   25   23 ar   
    43   26   25 ar   
    44   36   25 1    
    45   27   26 1    
    46   28   26 ar   
    47   29   28 ar   
    48   37   28 1    
    49   38   29 1    
@<TRIPOS>SUBSTRUCTURE
     1 FLS361      1 GROUP   
@<TRIPOS>SET

