#    Name: 3spl_AMP_2_INTS_M
#    Modification time : Mon Mar 24 18:01:35 2014

@<TRIPOS>MOLECULE
3spl_AMP_2_INTS_M
   51     0     9     0     0
SMALL
NO_CHARGES


@<TRIPOS>ATOM
      1 N          86.5135   39.7475  -40.5395 N.am      2 SEC2        0.0000 
      2 N          87.7870   39.2720  -40.7940 N.am      8 SEL2        0.0000 
      3 N          85.2400   40.2230  -40.2850 N.am      5 SEP2        0.0000 
      4 N          87.5270   40.2290  -39.6995 N.am      2 SEC2        0.0000 
      5 N          87.2670   41.1860  -38.6050 N.am      5 SEP2        0.0000 
      6 N          89.0690   39.5680  -41.4945 N.am      2 SEC2        0.0000 
      7 N          90.3510   39.8640  -42.1950 N.am      5 SEP2        0.0000 
      8 N          86.6910   36.6145  -42.8380 N.am      2 SEC2        0.0000 
      9 N          86.8010   37.0640  -41.5100 N.am      8 SEL2        0.0000 
     10 N          86.5810   36.1650  -44.1660 N.am      5 SEP2        0.0000 
     11 N          87.3500   37.2895  -43.6830 N.am      2 SEC2        0.0000 
     12 N          88.1190   38.4140  -43.2000 N.am      8 SEL2        0.0000 
     13 N          89.2350   39.1390  -42.6975 N.am      2 SEC2        0.0000 
     14 N          89.1600   37.4970  -43.9420 N.am      2 SEC2        0.0000 
     15 N          90.2010   36.5800  -44.6840 N.am      5 SEP2        0.0000 
     16 N          89.8095   38.6300  -41.7680 N.am      2 SEC2        0.0000 
     17 N          89.2680   37.3960  -41.3410 N.am      8 SEL2        0.0000 
     18 CA         89.6860   38.6845  -38.6645 C.3       3 GLC5        0.0000 
     19 CA         89.6690   37.3150  -39.9730 C.3       9 GLL5        0.0000 
     20 CA         89.7030   40.0540  -37.3560 C.3       6 GLP5        0.0000 
     21 CA         92.9985   36.8660  -40.2120 C.3       3 GLC5        0.0000 
     22 CA         90.8490   36.3590  -39.8740 C.3       9 GLL5        0.0000 
     23 CA         95.1480   37.3730  -40.5500 C.3       6 GLP5        0.0000 
     24 O          92.1380   34.0320  -40.6305 O.2       1 ALC1        0.0000 
     25 O          90.8970   34.0970  -40.6330 O.2       7 ALL1        0.0000 
     26 O          93.3790   33.9670  -40.6280 O.2       4 ALP1        0.0000 
     27 O          92.4930   32.9485  -38.5340 O.2       1 ALC1        0.0000 
     28 O          91.2710   33.2000  -38.2020 O.2       7 ALL1        0.0000 
     29 O          93.7150   32.6970  -38.8660 O.2       4 ALP1        0.0000 
     30 O          92.3250   33.5835  -39.4150 O.2       1 ALC1        0.0000 
     31 CA         93.6050   36.4420  -39.3120 C.3       3 GLC5        0.0000 
     32 CA         92.0620   35.5110  -38.0740 C.3       9 GLL5        0.0000 
     33 N          97.1550   37.2115  -34.4335 N.am      2 SEC2        0.0000 
     34 N          95.9330   36.7210  -34.8390 N.am      8 SEL2        0.0000 
     35 N          98.3770   37.7020  -34.0280 N.am      5 SEP2        0.0000 
     36 CA         95.0765   37.9540  -36.5620 C.3       3 GLC5        0.0000 
     37 CA         95.9610   36.3490  -36.1320 C.3       9 GLL5        0.0000 
     38 CA         94.1920   39.5590  -36.9920 C.3       6 GLP5        0.0000 
     39 CA         96.2700   34.8800  -37.7695 C.3       3 GLC5        0.0000 
     40 CA         96.5790   33.4110  -39.4070 C.3       6 GLP5        0.0000 
     41 CA         95.8990   34.8495  -35.3725 C.3       3 GLC5        0.0000 
     42 CA         95.8370   33.3500  -34.6130 C.3       6 GLP5        0.0000 
     43 N          95.4870   34.5680  -36.9375 N.am      2 SEC2        0.0000 
     44 N          94.8530   36.0570  -36.8340 N.am      8 SEL2        0.0000 
     45 N          96.1210   33.0790  -37.0410 N.am      5 SEP2        0.0000 
     46 CA         90.9200   38.2175  -41.3372 C.3       3 GLC5        0.0000 
     47 CA         91.5810   39.5980  -42.7510 C.3       6 GLP5        0.0000 
     48 CA         94.0384   37.9829  -36.1861 C.3       3 GLC5        0.0000 
     49 CA         93.5120   36.5330  -34.8550 C.3       9 GLL5        0.0000 
     50 CA         94.8609   34.8784  -34.9966 C.3       3 GLC5        0.0000 
     51 CA         93.6260   36.1300  -36.2600 C.3       9 GLL5        0.0000 
@<TRIPOS>BOND
@<TRIPOS>SUBSTRUCTURE
     1 ALC1       24 GROUP        1 X    ALC  0     ROOT ALC X 1
     2 SEC2        1 GROUP        1 X    SEC  0     **** SEC X 2
     3 GLC5       18 GROUP        1 X    GLC  0     **** GLC X 6
     4 ALP1       26 GROUP        1 Y    ALP  0     ROOT ALP Y 8
     5 SEP2        3 GROUP        1 Y    SEP  0     **** SEP Y 9
     6 GLP5       20 GROUP        1 Y    GLP  0     **** GLP Y 13
     7 ALL1       25 GROUP        1 Z    ALL  0     ROOT ALL Z 15
     8 SEL2        2 GROUP        1 Z    SEL  0     **** SEL Z 16
     9 GLL5       19 GROUP        1 Z    GLL  0     **** GLL Z 20
@<TRIPOS>SET

