#    Name: 3spl_AMP_2_ligand
#    Modification time : Mon Mar 24 18:01:35 2014

@<TRIPOS>MOLECULE
3spl_AMP_2_ligand
   35    37     1     0     0
SMALL
NO_CHARGES


@<TRIPOS>ATOM
      1 P          87.8760   38.0980  -41.7440 P.3       1 AMP800      0.0000 
      2 O1P        87.7870   39.2720  -40.7940 O.co2     1 AMP800      0.0000 
      3 O2P        86.8010   37.0640  -41.5100 O.co2     1 AMP800      0.0000 
      4 O3P        88.1190   38.4140  -43.2000 O.co2     1 AMP800      0.0000 
      5 O5'        89.2680   37.3960  -41.3410 O.3       1 AMP800      0.0000 
      6 C5'        89.6690   37.3150  -39.9730 C.3       1 AMP800      0.0000 
      7 C4'        90.8490   36.3590  -39.8740 C.3       1 AMP800      0.0000 
      8 O4'        91.7070   36.7010  -38.7810 O.3       1 AMP800      0.0000 
      9 C3'        90.3500   34.9460  -39.6220 C.3       1 AMP800      0.0000 
     10 O3'        90.8970   34.0970  -40.6330 O.3       1 AMP800      0.0000 
     11 C2'        90.8770   34.5720  -38.2450 C.3       1 AMP800      0.0000 
     12 O2'        91.2710   33.2000  -38.2020 O.3       1 AMP800      0.0000 
     13 C1'        92.0620   35.5110  -38.0740 C.3       1 AMP800      0.0000 
     14 N9         92.3820   35.9150  -36.6870 N.pl3     1 AMP800      0.0000 
     15 C8         91.5250   36.1460  -35.6750 C.2       1 AMP800      0.0000 
     16 N7         92.1960   36.5220  -34.5550 N.2       1 AMP800      0.0000 
     17 C5         93.5120   36.5330  -34.8550 C.ar      1 AMP800      0.0000 
     18 C6         94.7750   36.8340  -34.1460 C.ar      1 AMP800      0.0000 
     19 N6         94.7690   37.2140  -32.8460 N.pl3     1 AMP800      0.0000 
     20 N1         95.9330   36.7210  -34.8390 N.ar      1 AMP800      0.0000 
     21 C2         95.9610   36.3490  -36.1320 C.ar      1 AMP800      0.0000 
     22 N3         94.8530   36.0570  -36.8340 N.ar      1 AMP800      0.0000 
     23 C4         93.6260   36.1300  -36.2600 C.ar      1 AMP800      0.0000 
     24 H          88.8692   36.9312  -39.3376 H         1 AMP800      0.0000 
     25 H          89.9862   38.2843  -39.5849 H         1 AMP800      0.0000 
     26 H          91.3832   36.3620  -40.8052 H         1 AMP800      0.0000 
     27 H          89.2974   34.9567  -39.6054 H         1 AMP800      0.0000 
     28 H          90.1393   34.8320  -37.5282 H         1 AMP800      0.0000 
     29 H          92.9248   35.0659  -38.5448 H         1 AMP800      0.0000 
     30 H          90.5517   36.0573  -35.7311 H         1 AMP800      0.0000 
     31 H          93.8697   37.3039  -32.4180 H         1 AMP800      0.0000 
     32 H          95.6644   37.3710  -32.4293 H         1 AMP800      0.0000 
     33 H          96.9042   36.2833  -36.6202 H         1 AMP800      0.0000 
     34 H          91.7555   33.7573  -40.2488 H         1 AMP800      0.0000 
     35 H          91.9930   33.1165  -38.8889 H         1 AMP800      0.0000 
@<TRIPOS>BOND
     1    2    1 ar   
     2    3    1 ar   
     3    4    1 ar   
     4    5    1 1    
     5    6    5 1    
     6    7    6 1    
     7   24    6 1    
     8   25    6 1    
     9    8    7 1    
    10    9    7 1    
    11   26    7 1    
    12   13    8 1    
    13   10    9 1    
    14   11    9 1    
    15   27    9 1    
    16   34   10 1    
    17   12   11 1    
    18   13   11 1    
    19   28   11 1    
    20   35   12 1    
    21   14   13 1    
    22   29   13 1    
    23   15   14 1    
    24   23   14 1    
    25   16   15 2    
    26   30   15 1    
    27   17   16 1    
    28   18   17 ar   
    29   23   17 ar   
    30   19   18 1    
    31   20   18 ar   
    32   31   19 1    
    33   32   19 1    
    34   21   20 ar   
    35   22   21 ar   
    36   33   21 1    
    37   23   22 ar   
@<TRIPOS>SUBSTRUCTURE
     1 AMP800      1 GROUP   
@<TRIPOS>SET

