#    Name: 1tqm_ANP_1_INTS_M
#    Modification time : Tue Mar 25 05:35:08 2014

@<TRIPOS>MOLECULE
1tqm_ANP_1_INTS_M
   61     0    15     0     0
SMALL
NO_CHARGES


@<TRIPOS>ATOM
      1 N          46.4570   19.4150   22.7640 N.am      2 SEC2        0.0000 
      2 N          45.3350   19.3160   23.4570 N.am     12 SEL2        0.0000 
      3 N          47.5790   19.5140   22.0710 N.am      7 SEP2        0.0000 
      4 OD1        41.6300   20.6925   23.0775 O.co2     3 ASC3        0.0000 
      5 OD1        42.8290   20.5070   24.0280 O.co2    13 ASL3        0.0000 
      6 OD1        40.4310   20.8780   22.1270 O.co2     8 ASP3        0.0000 
      7 OD1        42.2300   20.3225   22.2520 O.co2     3 ASC3        0.0000 
      8 OD1        41.6310   20.1380   20.4760 O.co2     8 ASP3        0.0000 
      9 NZ         44.0900   21.7325   19.6150 N.4       4 LYC4        0.0000 
     10 NZ         43.9560   22.9880   20.2050 N.4      14 LYL4        0.0000 
     11 NZ         44.2240   20.4770   19.0250 N.4       9 LYP4        0.0000 
     12 N          44.0900   21.7325   19.6150 N.am      2 SEC2        0.0000 
     13 N          43.9560   22.9880   20.2050 N.am     12 SEL2        0.0000 
     14 N          44.2240   20.4770   19.0250 N.am      7 SEP2        0.0000 
     15 N          46.1580   20.4545   22.1280 N.am      2 SEC2        0.0000 
     16 N          44.7370   21.3950   22.1850 N.am     12 SEL2        0.0000 
     17 CA         47.7745   23.3440   22.0490 C.3       5 GLC5        0.0000 
     18 CA         46.2990   23.9020   23.2770 C.3      15 GLL5        0.0000 
     19 CA         49.2500   22.7860   20.8210 C.3      10 GLP5        0.0000 
     20 O          42.8970   26.4705   24.5775 O.2       1 ALC1        0.0000 
     21 O          44.3000   26.3180   24.3430 O.2      11 ALL1        0.0000 
     22 O          41.4940   26.6230   24.8120 O.2       6 ALP1        0.0000 
     23 CA         44.1620   28.9115   22.5290 C.3       5 GLC5        0.0000 
     24 CA         45.8340   27.5500   22.7770 C.3      15 GLL5        0.0000 
     25 CA         42.4900   30.2730   22.2810 C.3      10 GLP5        0.0000 
     26 O          45.3040   27.7645   25.3095 O.2       1 ALC1        0.0000 
     27 O          46.0930   28.2880   24.0090 O.2      11 ALL1        0.0000 
     28 O          44.5150   27.2410   26.6100 O.2       6 ALP1        0.0000 
     29 CA         48.0515   26.6610   17.2695 C.3       5 GLC5        0.0000 
     30 CA         46.6340   27.4280   18.4690 C.3      15 GLL5        0.0000 
     31 CA         49.4690   25.8940   16.0700 C.3      10 GLP5        0.0000 
     32 CA         48.5810   28.1730   17.1155 C.3       5 GLC5        0.0000 
     33 CA         46.5870   28.4280   17.4310 C.3      15 GLL5        0.0000 
     34 CA         50.5750   27.9180   16.8000 C.3      10 GLP5        0.0000 
     35 CA         45.3845   29.9940   16.5210 C.3       5 GLC5        0.0000 
     36 CA         44.1820   31.5600   15.6110 C.3      10 GLP5        0.0000 
     37 O          46.7240   28.6555   14.9925 O.2       1 ALC1        0.0000 
     38 O          46.3010   27.9800   16.1950 O.2      11 ALL1        0.0000 
     39 O          47.1470   29.3310   13.7900 O.2       6 ALP1        0.0000 
     40 N          46.9560   30.9030   16.7925 N.am      2 SEC2        0.0000 
     41 N          46.8600   29.7370   17.6930 N.am     12 SEL2        0.0000 
     42 N          47.0520   32.0690   15.8920 N.am      7 SEP2        0.0000 
     43 CA         48.5045   29.2300   20.3700 C.3       5 GLC5        0.0000 
     44 CA         47.1680   30.2090   18.9410 C.3      15 GLL5        0.0000 
     45 CA         49.8410   28.2510   21.7990 C.3      10 GLP5        0.0000 
     46 CA         48.6580   31.0440   18.2270 C.3       5 GLC5        0.0000 
     47 CA         50.1480   31.8790   17.5130 C.3      10 GLP5        0.0000 
     48 CA         45.9640   31.3340   17.8075 C.3       5 GLC5        0.0000 
     49 CA         44.7600   32.4590   16.6740 C.3      10 GLP5        0.0000 
     50 CA         45.2835   30.5180   19.4820 C.3       5 GLC5        0.0000 
     51 CA         43.3990   30.8270   20.0230 C.3      10 GLP5        0.0000 
     52 CA         48.3610   28.1275   20.7945 C.3       5 GLC5        0.0000 
     53 CA         46.8810   28.0040   19.7900 C.3      15 GLL5        0.0000 
     54 CA         45.1400   29.4155   19.9065 C.3       5 GLC5        0.0000 
     55 CA         44.4615   28.0568   24.5205 C.3       5 GLC5        0.0000 
     56 CA         43.3490   29.2010   26.0030 C.3      10 GLP5        0.0000 
     57 CA         48.1763   27.8235   22.1288 C.3       5 GLC5        0.0000 
     58 CA         44.7518   26.8366   21.5215 C.3       5 GLC5        0.0000 
     59 CA         47.1890   27.2420   22.1400 C.3      15 GLL5        0.0000 
     60 CA         43.1220   26.5960   20.4540 C.3      10 GLP5        0.0000 
     61 CA         44.9398   27.1560   19.7918 C.3       5 GLC5        0.0000 
@<TRIPOS>BOND
@<TRIPOS>SUBSTRUCTURE
     1 ALC1       20 GROUP        1 X    ALC  0     ROOT ALC X 1
     2 SEC2        1 GROUP        1 X    SEC  0     **** SEC X 2
     3 ASC3        4 GROUP        1 X    ASC  0     **** ASC X 3
     4 LYC4        9 GROUP        1 X    LYC  0     **** LYC X 4
     5 GLC5       17 GROUP        1 X    GLC  0     **** GLC X 6
     6 ALP1       22 GROUP        1 Y    ALP  0     ROOT ALP Y 8
     7 SEP2        3 GROUP        1 Y    SEP  0     **** SEP Y 9
     8 ASP3        6 GROUP        1 Y    ASP  0     **** ASP Y 10
     9 LYP4       11 GROUP        1 Y    LYP  0     **** LYP Y 11
    10 GLP5       19 GROUP        1 Y    GLP  0     **** GLP Y 13
    11 ALL1       21 GROUP        1 Z    ALL  0     ROOT ALL Z 15
    12 SEL2        2 GROUP        1 Z    SEL  0     **** SEL Z 16
    13 ASL3        5 GROUP        1 Z    ASL  0     **** ASL Z 17
    14 LYL4       10 GROUP        1 Z    LYL  0     **** LYL Z 18
    15 GLL5       18 GROUP        1 Z    GLL  0     **** GLL Z 20
@<TRIPOS>SET

