#    Name: 1tqm_ANP_1_ligand
#    Modification time : Tue Mar 25 05:35:08 2014

@<TRIPOS>MOLECULE
1tqm_ANP_1_ligand
   43    45     1     0     0
SMALL
NO_CHARGES


@<TRIPOS>ATOM
      1 PG         42.1730   21.7460   25.1150 P.3       1 ANP283      0.0000 
      2 O1G        43.1560   22.3660   26.2010 O.co2     1 ANP283      0.0000 
      3 O2G        40.8990   20.9730   25.6730 O.co2     1 ANP283      0.0000 
      4 O3G        41.5820   22.9890   24.3350 O.co2     1 ANP283      0.0000 
      5 PB         44.4740   20.6460   23.5920 P.3       1 ANP283      0.0000 
      6 O1B        45.3380   21.3830   24.6570 O.co2     1 ANP283      0.0000 
      7 O2B        45.3350   19.3160   23.4570 O.co2     1 ANP283      0.0000 
      8 N3B        42.8290   20.5070   24.0280 N.4       1 ANP283      0.0000 
      9 PA         44.3510   22.8590   21.8110 P.3       1 ANP283      0.0000 
     10 O1A        43.9560   22.9880   20.2050 O.co2     1 ANP283      0.0000 
     11 O2A        43.1810   23.5030   22.6040 O.co2     1 ANP283      0.0000 
     12 O3A        44.7370   21.3950   22.1850 O.3       1 ANP283      0.0000 
     13 O5'        45.7180   23.6090   21.9370 O.3       1 ANP283      0.0000 
     14 C5'        46.2990   23.9020   23.2770 C.3       1 ANP283      0.0000 
     15 C4'        46.5600   25.4020   23.4070 C.3       1 ANP283      0.0000 
     16 O4'        47.5970   25.9820   22.5530 O.3       1 ANP283      0.0000 
     17 C3'        45.3140   26.2750   23.2990 C.3       1 ANP283      0.0000 
     18 O3'        44.3000   26.3180   24.3430 O.3       1 ANP283      0.0000 
     19 C2'        45.8340   27.5500   22.7770 C.3       1 ANP283      0.0000 
     20 O2'        46.0930   28.2880   24.0090 O.3       1 ANP283      0.0000 
     21 C1'        47.1890   27.2420   22.1400 C.3       1 ANP283      0.0000 
     22 N9         46.9450   27.0570   20.6560 N.pl3     1 ANP283      0.0000 
     23 C8         46.6530   25.9260   19.9780 C.2       1 ANP283      0.0000 
     24 N7         46.4090   26.1230   18.6390 N.2       1 ANP283      0.0000 
     25 C5         46.6340   27.4280   18.4690 C.ar      1 ANP283      0.0000 
     26 C6         46.5870   28.4280   17.4310 C.ar      1 ANP283      0.0000 
     27 N6         46.3010   27.9800   16.1950 N.pl3     1 ANP283      0.0000 
     28 N1         46.8600   29.7370   17.6930 N.ar      1 ANP283      0.0000 
     29 C2         47.1680   30.2090   18.9410 C.ar      1 ANP283      0.0000 
     30 N3         47.2290   29.3970   19.9910 N.ar      1 ANP283      0.0000 
     31 C4         46.8810   28.0040   19.7900 C.ar      1 ANP283      0.0000 
     32 H          47.2399   23.3707   23.4050 H         1 ANP283      0.0000 
     33 H          45.6100   23.5974   24.0621 H         1 ANP283      0.0000 
     34 H          46.9138   25.5664   24.4901 H         1 ANP283      0.0000 
     35 H          44.7909   25.8158   22.3336 H         1 ANP283      0.0000 
     36 H          45.2024   28.0103   22.1496 H         1 ANP283      0.0000 
     37 H          47.8585   27.9991   22.3001 H         1 ANP283      0.0000 
     38 H          46.6146   25.0229   20.3990 H         1 ANP283      0.0000 
     39 H          46.1125   27.0012   16.1144 H         1 ANP283      0.0000 
     40 H          46.3024   28.6657   15.4671 H         1 ANP283      0.0000 
     41 H          47.3570   31.2372   19.0522 H         1 ANP283      0.0000 
     42 H          43.4297   26.3890   23.8555 H         1 ANP283      0.0000 
     43 H          45.5388   27.8318   24.7052 H         1 ANP283      0.0000 
@<TRIPOS>BOND
     1    2    1 ar   
     2    3    1 ar   
     3    4    1 ar   
     4    8    1 1    
     5    6    5 ar   
     6    7    5 ar   
     7    8    5 1    
     8   12    5 1    
     9   10    9 ar   
    10   11    9 ar   
    11   12    9 1    
    12   13    9 1    
    13   14   13 1    
    14   15   14 1    
    15   32   14 1    
    16   33   14 1    
    17   16   15 1    
    18   17   15 1    
    19   34   15 1    
    20   21   16 1    
    21   18   17 1    
    22   19   17 1    
    23   35   17 1    
    24   42   18 1    
    25   20   19 1    
    26   21   19 1    
    27   36   19 1    
    28   43   20 1    
    29   22   21 1    
    30   37   21 1    
    31   23   22 1    
    32   31   22 1    
    33   24   23 2    
    34   38   23 1    
    35   25   24 1    
    36   26   25 ar   
    37   31   25 ar   
    38   27   26 1    
    39   28   26 ar   
    40   39   27 1    
    41   40   27 1    
    42   29   28 ar   
    43   30   29 ar   
    44   41   29 1    
    45   31   30 ar   
@<TRIPOS>SUBSTRUCTURE
     1 ANP283      1 GROUP   
@<TRIPOS>SET

