#    Name: 4MZ7_5_CAVITY_N1_6.mol2
#    Modification time : Tue Mar 11 15:42:40 2014

@<TRIPOS>MOLECULE
4MZ7_5_CAVITY_N1_6.mol2
  155     0     7     0     0
SMALL
NO_CHARGES


@<TRIPOS>ATOM
      1 CA        156.9913  -26.3007   95.9777 C.3       6 GLY6        0.0000 
      2 CA        155.2500  -25.5630   95.0164 C.3       6 GLY6        0.0000 
      3 NZ        155.7844  -26.9260   95.3433 N.2       4 LYS4        0.0000 
      4 OG        156.3188  -28.2889   95.6701 O.2       1 SER1        0.0000 
      5 NZ        154.5775  -27.5513   94.7089 N.2       4 LYS4        0.0000 
      6 NZ        147.4914  -23.8661  101.0102 N.2       4 LYS4        0.0000 
      7 CZ        148.0258  -25.2291  101.3370 C.ar      5 PHE5        0.0000 
      8 CZ        148.5602  -26.5920  101.6638 C.ar      5 PHE5        0.0000 
      9 CA        146.2846  -24.4914  100.3758 C.3       6 GLY6        0.0000 
     10 CZ        146.8190  -25.8544  100.7026 C.ar      5 PHE5        0.0000 
     11 N         147.3534  -27.2173  101.0294 N.2       2 ALA2        0.0000 
     12 CZ        145.6121  -26.4797  100.0682 C.ar      5 PHE5        0.0000 
     13 N         146.1465  -27.8426  100.3950 N.2       2 ALA2        0.0000 
     14 CA        143.3365  -24.3791   98.7802 C.3       6 GLY6        0.0000 
     15 CA        143.8708  -25.7421   99.1070 C.3       6 GLY6        0.0000 
     16 CA        144.4052  -27.1050   99.4338 C.3       6 GLY6        0.0000 
     17 CA        144.9396  -28.4679   99.7606 C.3       6 GLY6        0.0000 
     18 N         142.1296  -25.0044   98.1458 N.2       2 ALA2        0.0000 
     19 CA        142.6640  -26.3674   98.4726 C.3       6 GLY6        0.0000 
     20 CA        143.1984  -27.7303   98.7994 C.3       6 GLY6        0.0000 
     21 O         143.7328  -29.0933   99.1262 O.2       2 ALA2        0.0000 
     22 NZ        140.9227  -25.6298   97.5114 N.2       4 LYS4        0.0000 
     23 N         141.4571  -26.9927   97.8382 N.2       2 ALA2        0.0000 
     24 O         141.9915  -28.3556   98.1650 O.2       2 ALA2        0.0000 
     25 O         148.9168  -23.9400   98.3714 O.2       2 ALA2        0.0000 
     26 O         149.4512  -25.3029   98.6983 O.2       2 ALA2        0.0000 
     27 CZ        149.9856  -26.6659   99.0251 C.ar      5 PHE5        0.0000 
     28 DU        150.5200  -28.0288   99.3519 H         7 CUB7        0.0000 
     29 DU        151.0544  -29.3918   99.6787 H         7 CUB7        0.0000 
     30 O         151.5887  -30.7547  100.0056 O.2       2 ALA2        0.0000 
     31 O         152.1231  -32.1177  100.3324 O.2       2 ALA2        0.0000 
     32 O         152.6575  -33.4806  100.6592 O.2       2 ALA2        0.0000 
     33 O         148.2443  -25.9283   98.0639 O.2       2 ALA2        0.0000 
     34 DU        148.7787  -27.2912   98.3907 H         7 CUB7        0.0000 
     35 DU        149.8475  -30.0171   99.0443 H         7 CUB7        0.0000 
     36 O         150.3819  -31.3800   99.3712 O.2       2 ALA2        0.0000 
     37 O         146.5031  -25.1906   97.1027 O.2       2 ALA2        0.0000 
     38 CA        147.0375  -26.5536   97.4295 C.3       6 GLY6        0.0000 
     39 DU        147.5718  -27.9165   97.7563 H         7 CUB7        0.0000 
     40 DU        148.1062  -29.2795   98.0831 H         7 CUB7        0.0000 
     41 DU        148.6406  -30.6424   98.4099 H         7 CUB7        0.0000 
     42 CA        146.3650  -28.5418   97.1219 C.3       6 GLY6        0.0000 
     43 CA        146.8994  -29.9048   97.4487 C.3       6 GLY6        0.0000 
     44 NZ        155.3876  -27.5528  100.2626 N.2       4 LYS4        0.0000 
     45 NZ        155.9220  -28.9157  100.5894 N.2       4 LYS4        0.0000 
     46 CA        156.9908  -31.6416  101.2430 C.3       6 GLY6        0.0000 
     47 NZ        154.1808  -28.1781   99.6282 N.2       4 LYS4        0.0000 
     48 OD1       154.7151  -29.5410   99.9550 O.3       3 ASP3        0.0000 
     49 OD1       155.2495  -30.9040  100.2818 O.3       3 ASP3        0.0000 
     50 OD1       155.7839  -32.2669  100.6087 O.3       3 ASP3        0.0000 
     51 CA        156.3183  -33.6299  100.9355 C.3       6 GLY6        0.0000 
     52 OD1       151.3707  -24.7146   98.0133 O.3       3 ASP3        0.0000 
     53 NZ        151.9051  -26.0775   98.3401 N.2       4 LYS4        0.0000 
     54 NZ        152.4395  -27.4405   98.6670 N.2       4 LYS4        0.0000 
     55 DU        152.9739  -28.8034   98.9938 H         7 CUB7        0.0000 
     56 DU        153.5083  -30.1663   99.3206 H         7 CUB7        0.0000 
     57 OD1       154.0427  -31.5293   99.6474 O.3       3 ASP3        0.0000 
     58 DU        154.5771  -32.8922   99.9743 H         7 CUB7        0.0000 
     59 N         155.1115  -34.2552  100.3011 N.2       2 ALA2        0.0000 
     60 O         150.1639  -25.3399   97.3789 O.2       2 ALA2        0.0000 
     61 DU        150.6983  -26.7028   97.7057 H         7 CUB7        0.0000 
     62 DU        151.2326  -28.0658   98.0326 H         7 CUB7        0.0000 
     63 DU        152.3014  -30.7917   98.6862 H         7 CUB7        0.0000 
     64 DU        152.8358  -32.1546   99.0130 H         7 CUB7        0.0000 
     65 N         153.3702  -33.5175   99.3399 N.2       2 ALA2        0.0000 
     66 O         148.9570  -25.9652   96.7445 O.2       2 ALA2        0.0000 
     67 DU        149.4914  -27.3281   97.0713 H         7 CUB7        0.0000 
     68 DU        150.0258  -28.6911   97.3982 H         7 CUB7        0.0000 
     69 DU        151.0946  -31.4170   98.0518 H         7 CUB7        0.0000 
     70 DU        151.6289  -32.7799   98.3786 H         7 CUB7        0.0000 
     71 O         147.7501  -26.5905   96.1101 O.2       2 ALA2        0.0000 
     72 DU        148.2845  -27.9535   96.4369 H         7 CUB7        0.0000 
     73 DU        148.8189  -29.3164   96.7638 H         7 CUB7        0.0000 
     74 CA        147.0777  -28.5788   95.8025 C.3       6 GLY6        0.0000 
     75 CA        147.6121  -29.9417   96.1294 C.3       6 GLY6        0.0000 
     76 NZ        156.1003  -27.5897   98.9432 N.2       4 LYS4        0.0000 
     77 NZ        156.6347  -28.9526   99.2700 N.2       4 LYS4        0.0000 
     78 NZ        157.1691  -30.3156   99.5969 N.2       4 LYS4        0.0000 
     79 N         157.7035  -31.6785   99.9237 N.2       2 ALA2        0.0000 
     80 NZ        154.8934  -28.2150   98.3088 N.2       4 LYS4        0.0000 
     81 DU        155.4278  -29.5780   98.6356 H         7 CUB7        0.0000 
     82 OD1       155.9622  -30.9409   98.9625 O.3       3 ASP3        0.0000 
     83 OD1       156.4966  -32.3039   99.2893 O.3       3 ASP3        0.0000 
     84 OD1       157.0310  -33.6668   99.6161 O.3       3 ASP3        0.0000 
     85 NZ        152.6178  -26.1145   97.0208 N.2       4 LYS4        0.0000 
     86 NZ        153.1522  -27.4774   97.3476 N.2       4 LYS4        0.0000 
     87 DU        153.6866  -28.8403   97.6744 H         7 CUB7        0.0000 
     88 DU        154.2210  -30.2033   98.0012 H         7 CUB7        0.0000 
     89 OD1       154.7554  -31.5662   98.3281 O.3       3 ASP3        0.0000 
     90 OD1       155.2897  -32.9292   98.6549 O.3       3 ASP3        0.0000 
     91 OD1       155.8241  -34.2921   98.9817 O.3       3 ASP3        0.0000 
     92 N         150.8765  -25.3768   96.0595 N.2       2 ALA2        0.0000 
     93 N         151.4109  -26.7398   96.3864 N.2       2 ALA2        0.0000 
     94 N         151.9453  -28.1027   96.7132 N.2       2 ALA2        0.0000 
     95 NZ        152.4797  -29.4657   97.0400 N.2       4 LYS4        0.0000 
     96 DU        153.0141  -30.8286   97.3668 H         7 CUB7        0.0000 
     97 DU        153.5485  -32.1915   97.6937 H         7 CUB7        0.0000 
     98 OD1       154.0829  -33.5545   98.0205 O.3       3 ASP3        0.0000 
     99 N         149.6697  -26.0021   95.4251 N.2       2 ALA2        0.0000 
    100 N         150.2041  -27.3651   95.7520 N.2       2 ALA2        0.0000 
    101 N         150.7385  -28.7280   96.0788 N.2       2 ALA2        0.0000 
    102 DU        151.2728  -30.0910   96.4056 H         7 CUB7        0.0000 
    103 N         148.4628  -26.6275   94.7907 N.2       2 ALA2        0.0000 
    104 O         148.9972  -27.9904   95.1176 O.2       2 ALA2        0.0000 
    105 O         149.5316  -29.3533   95.4444 O.2       2 ALA2        0.0000 
    106 CA        147.7903  -28.6157   94.4832 C.3       6 GLY6        0.0000 
    107 OG        156.8130  -27.6266   97.6238 O.2       1 SER1        0.0000 
    108 NZ        155.0717  -26.8890   96.6626 N.2       4 LYS4        0.0000 
    109 NZ        155.6061  -28.2520   96.9894 N.2       4 LYS4        0.0000 
    110 OG        156.1405  -29.6149   97.3163 O.2       1 SER1        0.0000 
    111 OD1       156.6749  -30.9779   97.6431 O.3       3 ASP3        0.0000 
    112 N         153.3305  -26.1514   95.7014 N.2       2 ALA2        0.0000 
    113 N         153.8649  -27.5143   96.0282 N.2       2 ALA2        0.0000 
    114 NZ        154.3993  -28.8773   96.3550 N.2       4 LYS4        0.0000 
    115 NZ        154.9336  -30.2402   96.6819 N.2       4 LYS4        0.0000 
    116 OD1       155.4680  -31.6032   97.0087 O.3       3 ASP3        0.0000 
    117 NZ        153.7268  -30.8655   96.0475 N.2       4 LYS4        0.0000 
    118 NZ        151.9855  -30.1279   95.0863 N.2       4 LYS4        0.0000 
    119 CA        143.1582  -25.7051  100.4263 C.3       6 GLY6        0.0000 
    120 N         141.4169  -24.9675   99.4651 N.2       2 ALA2        0.0000 
    121 N         141.9513  -26.3304   99.7920 N.2       2 ALA2        0.0000 
    122 N         140.2101  -25.5928   98.8307 N.2       2 ALA2        0.0000 
    123 O         149.4110  -23.2777  100.3252 O.2       2 ALA2        0.0000 
    124 O         148.2041  -23.9031   99.6908 O.2       2 ALA2        0.0000 
    125 CZ        148.7385  -25.2660  100.0176 C.ar      5 PHE5        0.0000 
    126 CZ        149.2729  -26.6289  100.3445 C.ar      5 PHE5        0.0000 
    127 OG        149.8073  -27.9919  100.6713 O.2       1 SER1        0.0000 
    128 OG        150.3417  -29.3548  100.9981 O.2       1 SER1        0.0000 
    129 O         146.9973  -24.5284   99.0564 O.2       2 ALA2        0.0000 
    130 DU        147.5316  -25.8913   99.3832 H         7 CUB7        0.0000 
    131 DU        148.0660  -27.2543   99.7101 H         7 CUB7        0.0000 
    132 N         148.6004  -28.6172  100.0369 N.2       2 ALA2        0.0000 
    133 N         149.1348  -29.9801  100.3637 N.2       2 ALA2        0.0000 
    134 O         145.7904  -25.1537   98.4220 O.2       2 ALA2        0.0000 
    135 DU        146.3248  -26.5166   98.7488 H         7 CUB7        0.0000 
    136 DU        146.8592  -27.8796   99.0757 H         7 CUB7        0.0000 
    137 N         147.3936  -29.2425   99.4025 N.2       2 ALA2        0.0000 
    138 N         144.0491  -24.4161   97.4608 N.2       2 ALA2        0.0000 
    139 CA        144.5835  -25.7790   97.7876 C.3       6 GLY6        0.0000 
    140 CA        145.1179  -27.1419   98.1144 C.3       6 GLY6        0.0000 
    141 CA        145.6523  -28.5049   98.4413 C.3       6 GLY6        0.0000 
    142 CA        146.1867  -29.8678   98.7681 C.3       6 GLY6        0.0000 
    143 CA        142.8423  -25.0414   96.8264 C.3       6 GLY6        0.0000 
    144 CA        144.4454  -29.1302   97.8069 C.3       6 GLY6        0.0000 
    145 CA        144.9798  -30.4932   98.1337 C.3       6 GLY6        0.0000 
    146 CZ        153.4681  -28.1411  100.9475 C.ar      5 PHE5        0.0000 
    147 CA        155.6056  -33.5929  102.2548 C.3       6 GLY6        0.0000 
    148 CZ        150.6580  -24.6776   99.3327 C.ar      5 PHE5        0.0000 
    149 CZ        151.1924  -26.0406   99.6595 C.ar      5 PHE5        0.0000 
    150 CZ        151.7268  -27.4035   99.9863 C.ar      5 PHE5        0.0000 
    151 CZ        152.2612  -28.7665  100.3131 C.ar      5 PHE5        0.0000 
    152 OD1       152.7956  -30.1294  100.6400 O.3       3 ASP3        0.0000 
    153 OD1       153.3300  -31.4923  100.9668 O.3       3 ASP3        0.0000 
    154 OD1       153.8644  -32.8553  101.2936 O.3       3 ASP3        0.0000 
    155 CA        154.3988  -34.2182  101.6204 C.3       6 GLY6        0.0000 
@<TRIPOS>BOND
@<TRIPOS>SUBSTRUCTURE
     1 SER1        4 GROUP   
     2 ALA2       11 GROUP   
     3 ASP3       48 GROUP   
     4 LYS4        3 GROUP   
     5 PHE5        7 GROUP   
     6 GLY6        1 GROUP   
     7 CUB7       28 GROUP   
@<TRIPOS>SET

