#    Name: 4mz7_DGT_5_INTS_M
#    Modification time : Tue Mar 25 12:29:10 2014

@<TRIPOS>MOLECULE
4mz7_DGT_5_INTS_M
   70     0    12     0     0
SMALL
NO_CHARGES


@<TRIPOS>ATOM
      1 NZ        155.4385  -29.3385  102.1680 N.4       3 LYC4        0.0000 
      2 NZ        155.5630  -28.4250  101.3210 N.4      11 LYL4        0.0000 
      3 NZ        155.3140  -30.2520  103.0150 N.4       7 LYP4        0.0000 
      4 N         157.0740  -28.5070  101.2140 N.am      2 SEC2        0.0000 
      5 N         155.5630  -28.4250  101.3210 N.am     10 SEL2        0.0000 
      6 N         158.5850  -28.5890  101.1070 N.am      6 SEP2        0.0000 
      7 N         155.4385  -29.3385  102.1680 N.am      2 SEC2        0.0000 
      8 N         155.3140  -30.2520  103.0150 N.am      6 SEP2        0.0000 
      9 N         154.4615  -29.9355  101.6150 N.am      2 SEC2        0.0000 
     10 N         153.6090  -29.6190  100.2150 N.am     10 SEL2        0.0000 
     11 NZ        153.7140  -29.7880  102.6220 N.4       3 LYC4        0.0000 
     12 NZ        152.1140  -29.3240  102.2290 N.4      11 LYL4        0.0000 
     13 NZ        151.4950  -30.3145  103.1025 N.4       3 LYC4        0.0000 
     14 NZ        150.3510  -32.4660  103.5850 N.4       7 LYP4        0.0000 
     15 N         151.4065  -28.4870  102.9095 N.am      2 SEC2        0.0000 
     16 N         152.1140  -29.3240  102.2290 N.am     10 SEL2        0.0000 
     17 N         150.6990  -27.6500  103.5900 N.am      6 SEP2        0.0000 
     18 N         151.4950  -30.3145  103.1025 N.am      2 SEC2        0.0000 
     19 N         150.8760  -31.3050  103.9760 N.am      6 SEP2        0.0000 
     20 NZ        150.7790  -31.8015  101.3200 N.4       3 LYC4        0.0000 
     21 NZ        151.4180  -30.9100  100.3440 N.4      11 LYL4        0.0000 
     22 N         150.7790  -31.8015  101.3200 N.am      2 SEC2        0.0000 
     23 N         151.4180  -30.9100  100.3440 N.am     10 SEL2        0.0000 
     24 N         150.1400  -32.6930  102.2960 N.am      6 SEP2        0.0000 
     25 N         147.9300  -29.6820  102.0155 N.am      2 SEC2        0.0000 
     26 N         149.1060  -29.2620  101.1670 N.am     10 SEL2        0.0000 
     27 N         146.7540  -30.1020  102.8640 N.am      6 SEP2        0.0000 
     28 CA        150.6015  -25.7715  100.9675 C.3       4 GLC5        0.0000 
     29 CA        149.5760  -25.8070   99.4870 C.3      12 GLL5        0.0000 
     30 CA        151.6270  -25.7360  102.4480 C.3       8 GLP5        0.0000 
     31 CA        150.1215  -24.4915  100.8835 C.3       4 GLC5        0.0000 
     32 CA        148.6000  -24.6230   99.5120 C.3      12 GLL5        0.0000 
     33 CA        151.6430  -24.3600  102.2550 C.3       8 GLP5        0.0000 
     34 N         147.5510  -23.8860   97.5965 N.am      2 SEC2        0.0000 
     35 N         147.4700  -24.9080   98.7030 N.am     10 SEL2        0.0000 
     36 N         147.6320  -22.8640   96.4900 N.am      6 SEP2        0.0000 
     37 CA        149.4195  -23.9095  101.9490 C.3       4 GLC5        0.0000 
     38 CA        148.0360  -24.2940  100.8980 C.3      12 GLL5        0.0000 
     39 CA        150.8030  -23.5250  103.0000 C.3       8 GLP5        0.0000 
     40 N         148.5130  -21.8635  100.1135 N.am      2 SEC2        0.0000 
     41 N         147.8370  -22.8810  100.9440 N.am     10 SEL2        0.0000 
     42 N         149.1890  -20.8460   99.2830 N.am      6 SEP2        0.0000 
     43 O         147.4555  -22.5270  102.1585 O.2       1 ALC1        0.0000 
     44 O         147.8370  -22.8810  100.9440 O.2       9 ALL1        0.0000 
     45 O         147.0740  -22.1730  103.3730 O.2       5 ALP1        0.0000 
     46 CA        148.3145  -24.5610  102.4270 C.3       4 GLC5        0.0000 
     47 CA        146.7130  -25.0030  100.9380 C.3      12 GLL5        0.0000 
     48 CA        149.9160  -24.1190  103.9160 C.3       8 GLP5        0.0000 
     49 CA        143.9570  -28.2925   96.9305 C.3       4 GLC5        0.0000 
     50 CA        144.0920  -27.8400   98.7080 C.3      12 GLL5        0.0000 
     51 CA        143.8220  -28.7450   95.1530 C.3       8 GLP5        0.0000 
     52 N         142.4505  -30.3335   99.4690 N.am      2 SEC2        0.0000 
     53 N         142.5210  -29.4930   98.2520 N.am     10 SEL2        0.0000 
     54 N         142.3800  -31.1740  100.6860 N.am      6 SEP2        0.0000 
     55 O         140.0770  -27.0225   98.6175 O.2       1 ALC1        0.0000 
     56 O         141.7130  -27.3760   98.6790 O.2       9 ALL1        0.0000 
     57 O         138.4410  -26.6690   98.5560 O.2       5 ALP1        0.0000 
     58 O         140.7195  -23.8215   98.5725 O.2       1 ALC1        0.0000 
     59 O         140.9410  -25.1840   99.1170 O.2       9 ALL1        0.0000 
     60 O         140.4980  -22.4590   98.0280 O.2       5 ALP1        0.0000 
     61 O         139.6910  -25.9265   98.8365 O.2       1 ALC1        0.0000 
     62 CA        144.2125  -26.8540   97.0430 C.3       4 GLC5        0.0000 
     63 CA        144.3210  -26.4410   99.0150 C.3      12 GLL5        0.0000 
     64 CA        144.1040  -27.2670   95.0710 C.3       8 GLP5        0.0000 
     65 CA        146.5613  -24.8008  102.6365 C.3       4 GLC5        0.0000 
     66 CA        145.7480  -24.9530  104.3550 C.3       8 GLP5        0.0000 
     67 CA        145.5634  -23.4784  100.5637 C.3       4 GLC5        0.0000 
     68 CA        144.3000  -22.1130  100.9350 C.3       8 GLP5        0.0000 
     69 CA        143.4758  -27.2803  100.6788 C.3       4 GLC5        0.0000 
     70 CA        142.7450  -27.4200  102.4960 C.3       8 GLP5        0.0000 
@<TRIPOS>BOND
@<TRIPOS>SUBSTRUCTURE
     1 ALC1       43 GROUP        1 X    ALC  0     ROOT ALC X 1
     2 SEC2        4 GROUP        1 X    SEC  0     **** SEC X 2
     3 LYC4        1 GROUP        1 X    LYC  0     **** LYC X 4
     4 GLC5       28 GROUP        1 X    GLC  0     **** GLC X 6
     5 ALP1       45 GROUP        1 Y    ALP  0     ROOT ALP Y 8
     6 SEP2        6 GROUP        1 Y    SEP  0     **** SEP Y 9
     7 LYP4        3 GROUP        1 Y    LYP  0     **** LYP Y 11
     8 GLP5       30 GROUP        1 Y    GLP  0     **** GLP Y 13
     9 ALL1       44 GROUP        1 Z    ALL  0     ROOT ALL Z 15
    10 SEL2        5 GROUP        1 Z    SEL  0     **** SEL Z 16
    11 LYL4        2 GROUP        1 Z    LYL  0     **** LYL Z 18
    12 GLL5       29 GROUP        1 Z    GLL  0     **** GLL Z 20
@<TRIPOS>SET

