#    Name: 4mz7_DGT_5_ligand
#    Modification time : Tue Mar 25 12:29:10 2014

@<TRIPOS>MOLECULE
4mz7_DGT_5_ligand
   43    45     1     0     0
SMALL
NO_CHARGES


@<TRIPOS>ATOM
      1 PG        154.6170  -28.3360  100.1460 P.3       1 DGT804      0.0000 
      2 O1G       155.5630  -28.4250  101.3210 O.co2     1 DGT804      0.0000 
      3 O2G       153.7440  -27.0940  100.2240 O.co2     1 DGT804      0.0000 
      4 O3G       155.3160  -28.5190   98.8120 O.co2     1 DGT804      0.0000 
      5 O3B       153.6090  -29.6190  100.2150 O.3       1 DGT804      0.0000 
      6 PB        152.0880  -29.6040  100.7490 P.3       1 DGT804      0.0000 
      7 O1B       152.1140  -29.3240  102.2290 O.co2     1 DGT804      0.0000 
      8 O2B       151.4180  -30.9100  100.3440 O.co2     1 DGT804      0.0000 
      9 O3A       151.2700  -28.4130  100.0030 O.3       1 DGT804      0.0000 
     10 PA        149.6470  -28.4610   99.9790 P.3       1 DGT804      0.0000 
     11 O1A       149.1060  -29.2620  101.1670 O.co2     1 DGT804      0.0000 
     12 O2A       149.2420  -28.8800   98.5860 O.co2     1 DGT804      0.0000 
     13 O5'       149.1150  -26.9380  100.2190 O.3       1 DGT804      0.0000 
     14 C5'       149.5760  -25.8070   99.4870 C.3       1 DGT804      0.0000 
     15 C4'       148.6000  -24.6230   99.5120 C.3       1 DGT804      0.0000 
     16 O4'       147.4700  -24.9080   98.7030 O.3       1 DGT804      0.0000 
     17 C3'       148.0360  -24.2940  100.8980 C.3       1 DGT804      0.0000 
     18 O3'       147.8370  -22.8810  100.9440 O.3       1 DGT804      0.0000 
     19 C2'       146.7130  -25.0030  100.9380 C.3       1 DGT804      0.0000 
     20 C1'       146.2790  -25.0390   99.4670 C.3       1 DGT804      0.0000 
     21 N9        145.6350  -26.3090   99.1350 N.pl3     1 DGT804      0.0000 
     22 C8        146.2430  -27.4940   98.9020 C.2       1 DGT804      0.0000 
     23 N7        145.2940  -28.4350   98.6370 N.2       1 DGT804      0.0000 
     24 C5        144.0920  -27.8400   98.7080 C.2       1 DGT804      0.0000 
     25 C6        142.7040  -28.2790   98.5220 C.2       1 DGT804      0.0000 
     26 O6        142.5210  -29.4930   98.2520 O.2       1 DGT804      0.0000 
     27 N1        141.7130  -27.3760   98.6790 N.am      1 DGT804      0.0000 
     28 C2        141.9720  -26.0740   98.9660 C.2       1 DGT804      0.0000 
     29 N2        140.9410  -25.1840   99.1170 N.pl3     1 DGT804      0.0000 
     30 N3        143.2510  -25.6170   99.1360 N.2       1 DGT804      0.0000 
     31 C4        144.3210  -26.4410   99.0150 C.2       1 DGT804      0.0000 
     32 H         149.7576  -26.0588   98.4194 H         1 DGT804      0.0000 
     33 H         150.5490  -25.4373   99.8780 H         1 DGT804      0.0000 
     34 H         149.1084  -23.7408   99.1437 H         1 DGT804      0.0000 
     35 H         148.6776  -24.6629  101.6226 H         1 DGT804      0.0000 
     36 H         146.0059  -24.4429  101.4982 H         1 DGT804      0.0000 
     37 H         146.8324  -25.9968  101.2923 H         1 DGT804      0.0000 
     38 H         145.6210  -24.2163   99.2969 H         1 DGT804      0.0000 
     39 H         147.1959  -27.6538   98.9192 H         1 DGT804      0.0000 
     40 H         140.7124  -27.6853   98.5771 H         1 DGT804      0.0000 
     41 H         141.1419  -24.2335   98.8797 H         1 DGT804      0.0000 
     42 H         140.0780  -25.5629   99.4511 H         1 DGT804      0.0000 
     43 H         147.5337  -22.6928  101.8781 H         1 DGT804      0.0000 
@<TRIPOS>BOND
     1    2    1 ar   
     2    3    1 ar   
     3    4    1 ar   
     4    5    1 1    
     5    6    5 1    
     6    7    6 ar   
     7    8    6 ar   
     8    9    6 1    
     9   10    9 1    
    10   11   10 ar   
    11   12   10 ar   
    12   13   10 1    
    13   14   13 1    
    14   15   14 1    
    15   32   14 1    
    16   33   14 1    
    17   16   15 1    
    18   17   15 1    
    19   34   15 1    
    20   20   16 1    
    21   18   17 1    
    22   19   17 1    
    23   35   17 1    
    24   43   18 1    
    25   20   19 1    
    26   36   19 1    
    27   37   19 1    
    28   21   20 1    
    29   38   20 1    
    30   22   21 1    
    31   31   21 1    
    32   23   22 2    
    33   39   22 1    
    34   24   23 1    
    35   25   24 1    
    36   31   24 2    
    37   26   25 2    
    38   27   25 am   
    39   28   27 1    
    40   40   27 1    
    41   29   28 1    
    42   30   28 2    
    43   41   29 1    
    44   42   29 1    
    45   31   30 1    
@<TRIPOS>SUBSTRUCTURE
     1 DGT804      1 GROUP   
@<TRIPOS>SET

