#    Name: 4kfg_DOO_2_INTS_M
#    Modification time : Tue Mar 25 07:47:57 2014

@<TRIPOS>MOLECULE
4kfg_DOO_2_INTS_M
   71     0     9     0     0
SMALL
NO_CHARGES


@<TRIPOS>ATOM
      1 CA          5.2065   20.8295  -25.5145 C.3       3 GLC5        0.0000 
      2 CA          3.9830   22.2380  -24.3720 C.3       9 GLL5        0.0000 
      3 CA          6.4300   19.4210  -26.6570 C.3       6 GLP5        0.0000 
      4 CA          4.6350   19.8860  -25.8660 C.3       3 GLC5        0.0000 
      5 CA          2.8400   20.3510  -25.0750 C.3       9 GLL5        0.0000 
      6 CA          2.5405   21.2095  -21.0495 C.3       3 GLC5        0.0000 
      7 CA          1.0990   22.8010  -20.4430 C.3       9 GLL5        0.0000 
      8 CA          3.9820   19.6180  -21.6560 C.3       6 GLP5        0.0000 
      9 CA          1.4130   24.6630  -21.1035 C.3       3 GLC5        0.0000 
     10 CA          1.7270   26.5250  -21.7640 C.3       6 GLP5        0.0000 
     11 CA         -3.0465   18.3055  -21.4385 C.3       3 GLC5        0.0000 
     12 CA         -2.8420   20.3360  -21.3390 C.3       9 GLL5        0.0000 
     13 CA         -3.2510   16.2750  -21.5380 C.3       6 GLP5        0.0000 
     14 CA         -2.4835   21.9370  -22.7275 C.3       3 GLC5        0.0000 
     15 CA         -2.1250   23.5380  -24.1160 C.3       6 GLP5        0.0000 
     16 N          -3.0555   18.9985  -23.3800 N.am      2 SEC2        0.0000 
     17 N          -2.3490   19.5290  -22.2840 N.am      8 SEL2        0.0000 
     18 N          -3.7620   18.4680  -24.4760 N.am      5 SEP2        0.0000 
     19 CA         -1.4955   18.0155  -21.8965 C.3       3 GLC5        0.0000 
     20 CA         -1.1670   19.8230  -22.8130 C.3       9 GLL5        0.0000 
     21 CA         -1.8240   16.2080  -20.9800 C.3       6 GLP5        0.0000 
     22 CA         -1.4325   19.9580  -24.8135 C.3       3 GLC5        0.0000 
     23 CA         -1.6980   20.0930  -26.8140 C.3       6 GLP5        0.0000 
     24 O          -0.6180   17.9695  -24.3285 O.2       1 ALC1        0.0000 
     25 O          -0.4720   19.2020  -23.7580 O.2       7 ALL1        0.0000 
     26 O          -0.7640   16.7370  -24.8990 O.2       4 ALP1        0.0000 
     27 CA          2.0175   17.5690  -23.9855 C.3       3 GLC5        0.0000 
     28 CA          1.7280   19.5230  -25.0030 C.3       9 GLL5        0.0000 
     29 CA          2.3070   15.6150  -22.9680 C.3       6 GLP5        0.0000 
     30 O           0.3835   17.5835  -25.3300 O.2       1 ALC1        0.0000 
     31 O           1.5310   18.4300  -25.7610 O.2       7 ALL1        0.0000 
     32 CA          4.4530   18.7535  -26.7280 C.3       3 GLC5        0.0000 
     33 CA          2.4760   18.0860  -26.7990 C.3       9 GLL5        0.0000 
     34 CA          2.6415   16.6125  -25.5670 C.3       3 GLC5        0.0000 
     35 CA          2.8070   15.1390  -24.3350 C.3       6 GLP5        0.0000 
     36 CA          3.7450   16.8370  -27.1495 C.3       3 GLC5        0.0000 
     37 CA          5.0140   15.5880  -27.5000 C.3       6 GLP5        0.0000 
     38 CA          1.8575   16.7355  -28.4435 C.3       3 GLC5        0.0000 
     39 CA          1.2390   15.3850  -30.0880 C.3       6 GLP5        0.0000 
     40 CA          0.8860   19.6510  -26.8970 C.3       3 GLC5        0.0000 
     41 CA         -0.7040   21.2160  -26.9950 C.3       6 GLP5        0.0000 
     42 CA         -6.1275   23.1235  -20.9900 C.3       3 GLC5        0.0000 
     43 CA         -6.0080   21.3180  -20.3370 C.3       9 GLL5        0.0000 
     44 CA         -6.2470   24.9290  -21.6430 C.3       6 GLP5        0.0000 
     45 CA         -6.1640   23.5340  -19.8845 C.3       3 GLC5        0.0000 
     46 CA         -6.0810   22.1390  -18.1260 C.3       9 GLL5        0.0000 
     47 CA          3.7185   20.7317  -22.9772 C.3       3 GLC5        0.0000 
     48 CA          2.9270   21.4530  -24.2250 C.3       9 GLL5        0.0000 
     49 CA          3.1280   23.7203  -24.9768 C.3       3 GLC5        0.0000 
     50 CA          2.8010   25.5950  -25.6550 C.3       6 GLP5        0.0000 
     51 CA          4.9595   22.9697  -24.3697 C.3       3 GLC5        0.0000 
     52 CA          6.4640   24.0940  -24.4410 C.3       6 GLP5        0.0000 
     53 CA          0.7900   20.5765  -26.0170 C.3       3 GLC5        0.0000 
     54 CA          3.2738   21.8036  -26.4519 C.3       3 GLC5        0.0000 
     55 CA          3.4000   22.5090  -28.2170 C.3       6 GLP5        0.0000 
     56 CA          2.6888   20.5117  -22.4337 C.3       3 GLC5        0.0000 
     57 CA          1.9580   21.8090  -23.2620 C.3       9 GLL5        0.0000 
     58 CA          0.3013   22.7643  -23.8848 C.3       3 GLC5        0.0000 
     59 CA         -0.7930   24.1230  -24.5580 C.3       6 GLP5        0.0000 
     60 CA          0.0275   20.8182  -25.2953 C.3       3 GLC5        0.0000 
     61 CA          0.8330   21.0020  -23.1610 C.3       9 GLL5        0.0000 
     62 CA         -0.1617   25.4740  -19.1015 C.3       3 GLC5        0.0000 
     63 CA         -0.9940   23.6830  -19.5960 C.3       9 GLL5        0.0000 
     64 CA          0.1990   27.3910  -19.2030 C.3       6 GLP5        0.0000 
     65 CA         -1.5294   22.0765  -23.2160 C.3       3 GLC5        0.0000 
     66 CA         -0.4030   20.9810  -22.3480 C.3       9 GLL5        0.0000 
     67 CA          2.7332   19.7530  -23.0953 C.3       3 GLC5        0.0000 
     68 CA          0.6850   19.8390  -24.0300 C.3       9 GLL5        0.0000 
     69 CA         -6.7190   19.8275  -21.1022 C.3       3 GLC5        0.0000 
     70 CA         -4.7760   20.7320  -20.0260 C.3       9 GLL5        0.0000 
     71 CA         -8.0460   18.6300  -22.0230 C.3       6 GLP5        0.0000 
@<TRIPOS>BOND
@<TRIPOS>SUBSTRUCTURE
     1 ALC1       24 GROUP        1 X    ALC  0     ROOT ALC X 1
     2 SEC2       16 GROUP        1 X    SEC  0     **** SEC X 2
     3 GLC5        1 GROUP        1 X    GLC  0     **** GLC X 6
     4 ALP1       26 GROUP        1 Y    ALP  0     ROOT ALP Y 8
     5 SEP2       18 GROUP        1 Y    SEP  0     **** SEP Y 9
     6 GLP5        3 GROUP        1 Y    GLP  0     **** GLP Y 13
     7 ALL1       25 GROUP        1 Z    ALL  0     ROOT ALL Z 15
     8 SEL2       17 GROUP        1 Z    SEL  0     **** SEL Z 16
     9 GLL5        2 GROUP        1 Z    GLL  0     **** GLL Z 20
@<TRIPOS>SET

