#    Name: 4kfg_DOO_2_ligand
#    Modification time : Tue Mar 25 07:47:57 2014

@<TRIPOS>MOLECULE
4kfg_DOO_2_ligand
   54    59     1     0     0
SMALL
NO_CHARGES


@<TRIPOS>ATOM
      1 F30         3.9830   22.2380  -24.3720 F         1 DOO302      0.0000 
      2 C6          2.9270   21.4530  -24.2250 C.ar      1 DOO302      0.0000 
      3 C1          2.8400   20.3510  -25.0750 C.ar      1 DOO302      0.0000 
      4 C5          1.9580   21.8090  -23.2620 C.ar      1 DOO302      0.0000 
      5 C4          0.8330   21.0020  -23.1610 C.ar      1 DOO302      0.0000 
      6 C7         -0.4030   20.9810  -22.3480 C.ar      1 DOO302      0.0000 
      7 C13        -0.9980   21.8330  -21.2900 C.ar      1 DOO302      0.0000 
      8 N22        -0.3570   22.8370  -20.6010 N.3       1 DOO302      0.0000 
      9 C26        -0.9940   23.6830  -19.5960 C.3       1 DOO302      0.0000 
     10 C25        -0.0510   23.4310  -18.4040 C.3       1 DOO302      0.0000 
     11 C27        -0.5670   22.3360  -17.4670 C.3       1 DOO302      0.0000 
     12 C28         0.6220   21.4610  -17.1010 C.3       1 DOO302      0.0000 
     13 N29         1.5730   21.6870  -18.1920 N.4       1 DOO302      0.0000 
     14 C24         1.2940   22.9360  -18.9210 C.3       1 DOO302      0.0000 
     15 C23         1.0990   22.8010  -20.4430 C.3       1 DOO302      0.0000 
     16 N12        -2.2000   21.4160  -20.8380 N.ar      1 DOO302      0.0000 
     17 C11        -2.8420   20.3360  -21.3390 C.ar      1 DOO302      0.0000 
     18 N10        -2.3490   19.5290  -22.2840 N.ar      1 DOO302      0.0000 
     19 C8         -1.1670   19.8230  -22.8130 C.ar      1 DOO302      0.0000 
     20 N9         -0.4720   19.2020  -23.7580 N.pl3     1 DOO302      0.0000 
     21 C3          0.6850   19.8390  -24.0300 C.ar      1 DOO302      0.0000 
     22 C2          1.7280   19.5230  -25.0030 C.ar      1 DOO302      0.0000 
     23 N31         1.5310   18.4300  -25.7610 N.pl3     1 DOO302      0.0000 
     24 C32         2.4760   18.0860  -26.7990 C.3       1 DOO302      0.0000 
     25 O14        -4.0700   19.9760  -20.9220 O.3       1 DOO302      0.0000 
     26 C15        -4.7760   20.7320  -20.0260 C.ar      1 DOO302      0.0000 
     27 C20        -6.0080   21.3180  -20.3370 C.ar      1 DOO302      0.0000 
     28 N19        -6.6390   22.0220  -19.3670 N.ar      1 DOO302      0.0000 
     29 C18        -6.0810   22.1390  -18.1260 C.ar      1 DOO302      0.0000 
     30 C21        -6.7870   22.9060  -17.0250 C.3       1 DOO302      0.0000 
     31 N17        -4.8960   21.5530  -17.8330 N.ar      1 DOO302      0.0000 
     32 C16        -4.2320   20.8610  -18.7580 C.ar      1 DOO302      0.0000 
     33 H           3.5896   20.1570  -25.7440 H         1 DOO302      0.0000 
     34 H           2.0880   22.6179  -22.6772 H         1 DOO302      0.0000 
     35 H          -1.9554   23.3378  -19.3428 H         1 DOO302      0.0000 
     36 H          -0.9467   24.7026  -19.8524 H         1 DOO302      0.0000 
     37 H           0.0990   24.3264  -17.8571 H         1 DOO302      0.0000 
     38 H          -1.3073   21.7489  -17.9778 H         1 DOO302      0.0000 
     39 H          -0.9734   22.7869  -16.5809 H         1 DOO302      0.0000 
     40 H           0.3058   20.4407  -17.0665 H         1 DOO302      0.0000 
     41 H           1.0200   21.7885  -16.1647 H         1 DOO302      0.0000 
     42 H           2.0103   23.6906  -18.7187 H         1 DOO302      0.0000 
     43 H           1.5662   23.6307  -20.9191 H         1 DOO302      0.0000 
     44 H           1.5048   21.8674  -20.7549 H         1 DOO302      0.0000 
     45 H          -0.7588   18.3699  -24.2156 H         1 DOO302      0.0000 
     46 H           0.7202   17.8087  -25.6370 H         1 DOO302      0.0000 
     47 H          -6.4007   21.2064  -21.2705 H         1 DOO302      0.0000 
     48 H          -3.3208   20.4166  -18.5565 H         1 DOO302      0.0000 
     49 H           3.3922   17.9293  -26.4301 H         1 DOO302      0.0000 
     50 H           2.2087   17.2530  -27.2834 H         1 DOO302      0.0000 
     51 H           2.5557   18.8105  -27.4837 H         1 DOO302      0.0000 
     52 H          -6.2598   22.9057  -16.1753 H         1 DOO302      0.0000 
     53 H          -6.9376   23.8621  -17.2762 H         1 DOO302      0.0000 
     54 H          -7.6824   22.5137  -16.8145 H         1 DOO302      0.0000 
@<TRIPOS>BOND
     1    2    1 1    
     2    3    2 ar   
     3    4    2 ar   
     4   22    3 ar   
     5   33    3 1    
     6    5    4 ar   
     7   34    4 1    
     8    6    5 1    
     9   21    5 ar   
    10    7    6 ar   
    11   19    6 ar   
    12    8    7 1    
    13   16    7 ar   
    14    9    8 1    
    15   15    8 1    
    16   10    9 1    
    17   35    9 1    
    18   36    9 1    
    19   11   10 1    
    20   14   10 1    
    21   37   10 1    
    22   12   11 1    
    23   38   11 1    
    24   39   11 1    
    25   13   12 1    
    26   40   12 1    
    27   41   12 1    
    28   14   13 1    
    29   15   14 1    
    30   42   14 1    
    31   43   15 1    
    32   44   15 1    
    33   17   16 ar   
    34   18   17 ar   
    35   25   17 1    
    36   19   18 ar   
    37   20   19 1    
    38   21   20 1    
    39   45   20 1    
    40   22   21 ar   
    41   23   22 1    
    42   24   23 1    
    43   46   23 1    
    44   49   24 1    
    45   50   24 1    
    46   51   24 1    
    47   26   25 1    
    48   27   26 ar   
    49   32   26 ar   
    50   28   27 ar   
    51   47   27 1    
    52   29   28 ar   
    53   30   29 1    
    54   31   29 ar   
    55   52   30 1    
    56   53   30 1    
    57   54   30 1    
    58   32   31 ar   
    59   48   32 1    
@<TRIPOS>SUBSTRUCTURE
     1 DOO302      1 GROUP   
@<TRIPOS>SET

