#    Name: 4K6P_1_CAVITY_N1_6.mol2
#    Modification time : Tue Mar 11 10:03:51 2014

@<TRIPOS>MOLECULE
4K6P_1_CAVITY_N1_6.mol2
   78     0     6     0     0
SMALL
NO_CHARGES


@<TRIPOS>ATOM
      1 CA        -13.1476  -19.7382    5.8935 C.3       5 GLY6        0.0000 
      2 NZ        -13.4125  -20.9625    5.0684 N.2       3 LYS4        0.0000 
      3 CA        -15.3614  -14.5975    9.8839 C.3       5 GLY6        0.0000 
      4 DU        -17.1147  -17.3334    9.0526 H         6 CUB7        0.0000 
      5 CA        -15.8912  -17.0462    8.2337 C.3       5 GLY6        0.0000 
      6 CA        -14.6678  -16.7590    7.4147 C.3       5 GLY6        0.0000 
      7 OG        -16.1561  -18.2706    7.4086 O.2       1 SER1        0.0000 
      8 CA        -14.9326  -17.9834    6.5896 C.3       5 GLY6        0.0000 
      9 CA        -13.7092  -17.6962    5.7707 C.3       5 GLY6        0.0000 
     10 OG        -20.0913  -20.3566    9.0403 O.2       1 SER1        0.0000 
     11 CZ        -13.9741  -18.9206    4.9456 C.ar      4 PHE5        0.0000 
     12 O         -12.7506  -18.6334    4.1266 O.2       2 ALA2        0.0000 
     13 CZ        -14.2390  -20.1449    4.1205 C.ar      4 PHE5        0.0000 
     14 NZ        -13.0155  -19.8577    3.3015 N.2       3 LYS4        0.0000 
     15 N         -17.1464  -12.8428   10.5800 N.2       2 ALA2        0.0000 
     16 CA        -18.6348  -14.3543   10.5739 C.3       5 GLY6        0.0000 
     17 CZ        -17.4113  -14.0671    9.7549 C.ar      4 PHE5        0.0000 
     18 N         -20.1231  -15.8659   10.5677 N.2       2 ALA2        0.0000 
     19 N         -18.8997  -15.5787    9.7488 N.2       2 ALA2        0.0000 
     20 CZ        -17.6762  -15.2915    8.9298 C.ar      4 PHE5        0.0000 
     21 CZ        -16.4528  -15.0043    8.1109 C.ar      4 PHE5        0.0000 
     22 O         -15.2293  -14.7171    7.2919 O.2       2 ALA2        0.0000 
     23 CA        -21.6115  -17.3775   10.5616 C.3       5 GLY6        0.0000 
     24 CA        -20.3880  -17.0903    9.7426 C.3       5 GLY6        0.0000 
     25 DU        -19.1645  -16.8031    8.9237 H         6 CUB7        0.0000 
     26 DU        -17.9411  -16.5158    8.1047 H         6 CUB7        0.0000 
     27 DU        -16.7176  -16.2286    7.2858 H         6 CUB7        0.0000 
     28 CA        -15.4942  -15.9414    6.4668 C.3       5 GLY6        0.0000 
     29 CA        -20.6529  -18.3146    8.9175 C.3       5 GLY6        0.0000 
     30 OG        -19.4294  -18.0274    8.0986 O.2       1 SER1        0.0000 
     31 OG        -18.2060  -17.7402    7.2796 O.2       1 SER1        0.0000 
     32 OG        -16.9825  -17.4530    6.4607 O.2       1 SER1        0.0000 
     33 CZ        -15.7591  -17.1658    5.6417 C.ar      4 PHE5        0.0000 
     34 N         -14.5356  -16.8786    4.8228 N.2       2 ALA2        0.0000 
     35 OG        -20.9178  -19.5390    8.0924 O.2       1 SER1        0.0000 
     36 CZ        -14.8005  -18.1030    3.9977 C.ar      4 PHE5        0.0000 
     37 N         -13.5771  -17.8158    3.1787 N.2       2 ALA2        0.0000 
     38 CZ        -13.8420  -19.0401    2.3536 C.ar      4 PHE5        0.0000 
     39 CZ        -18.2378  -13.2495    8.8070 C.ar      4 PHE5        0.0000 
     40 N         -19.7261  -14.7611    8.8009 N.2       2 ALA2        0.0000 
     41 CZ        -18.5026  -14.4739    7.9819 C.ar      4 PHE5        0.0000 
     42 CZ        -17.2792  -14.1867    7.1630 C.ar      4 PHE5        0.0000 
     43 CZ        -16.0557  -13.8995    6.3440 C.ar      4 PHE5        0.0000 
     44 N         -21.2144  -16.2727    8.7947 N.2       2 ALA2        0.0000 
     45 N         -19.9910  -15.9854    7.9758 N.2       2 ALA2        0.0000 
     46 DU        -18.7675  -15.6982    7.1568 H         6 CUB7        0.0000 
     47 CZ        -17.5441  -15.4110    6.3379 C.ar      4 PHE5        0.0000 
     48 CZ        -16.3206  -15.1238    5.5189 C.ar      4 PHE5        0.0000 
     49 N         -15.0972  -14.8366    4.7000 N.2       2 ALA2        0.0000 
     50 CZ        -21.4793  -17.4970    7.9696 C.ar      4 PHE5        0.0000 
     51 OG        -20.2559  -17.2098    7.1507 O.2       1 SER1        0.0000 
     52 OG        -19.0324  -16.9226    6.3317 O.2       1 SER1        0.0000 
     53 CZ        -17.8090  -16.6354    5.5128 C.ar      4 PHE5        0.0000 
     54 CZ        -16.5855  -16.3482    4.6938 C.ar      4 PHE5        0.0000 
     55 N         -15.3621  -16.0610    3.8749 N.2       2 ALA2        0.0000 
     56 OG        -20.5208  -18.4342    6.3256 O.2       1 SER1        0.0000 
     57 CZ        -16.8504  -17.5726    3.8687 C.ar      4 PHE5        0.0000 
     58 CZ        -15.6270  -17.2854    3.0498 C.ar      4 PHE5        0.0000 
     59 N         -14.4035  -16.9982    2.2308 N.2       2 ALA2        0.0000 
     60 NZ        -19.3291  -13.6563    7.0340 N.2       3 LYS4        0.0000 
     61 N         -20.8174  -15.1678    7.0279 N.2       2 ALA2        0.0000 
     62 O         -19.5940  -14.8806    6.2089 O.2       2 ALA2        0.0000 
     63 NZ        -18.3705  -14.5934    5.3900 N.2       3 LYS4        0.0000 
     64 CA        -17.1471  -14.3062    4.5710 C.3       5 GLY6        0.0000 
     65 CA        -15.9236  -14.0190    3.7521 C.3       5 GLY6        0.0000 
     66 CZ        -21.0823  -16.3922    6.2028 C.ar      4 PHE5        0.0000 
     67 O         -18.6354  -15.8178    4.5649 O.2       2 ALA2        0.0000 
     68 O         -17.4120  -15.5306    3.7459 O.2       2 ALA2        0.0000 
     69 CA        -16.1885  -15.2434    2.9270 C.3       5 GLY6        0.0000 
     70 CA        -14.9650  -14.9562    2.1080 C.3       5 GLY6        0.0000 
     71 CZ        -17.6768  -16.7550    2.9208 C.ar      4 PHE5        0.0000 
     72 CA        -16.4534  -16.4678    2.1019 C.3       5 GLY6        0.0000 
     73 O         -15.2299  -16.1805    1.2829 O.2       2 ALA2        0.0000 
     74 CA        -17.9735  -13.4886    3.6231 C.3       5 GLY6        0.0000 
     75 O         -18.2384  -14.7130    2.7980 O.2       2 ALA2        0.0000 
     76 CA        -17.0149  -14.4258    1.9790 C.3       5 GLY6        0.0000 
     77 O         -18.5033  -15.9374    1.9729 O.2       2 ALA2        0.0000 
     78 CA        -17.2798  -15.6501    1.1539 C.3       5 GLY6        0.0000 
@<TRIPOS>BOND
@<TRIPOS>SUBSTRUCTURE
     1 SER1        7 GROUP   
     2 ALA2       12 GROUP   
     3 LYS4        2 GROUP   
     4 PHE5       11 GROUP   
     5 GLY6        1 GROUP   
     6 CUB7        4 GROUP   
@<TRIPOS>SET

