#    Name: 4k6p_CDP_1_INTS_M
#    Modification time : Tue Mar 25 07:22:28 2014

@<TRIPOS>MOLECULE
4k6p_CDP_1_INTS_M
   45     0     9     0     0
SMALL
NO_CHARGES


@<TRIPOS>ATOM
      1 N         -17.3025  -20.4435    7.1900 N.am      2 SEC2        0.0000 
      2 N         -16.1570  -20.8720    8.1730 N.am      8 SEL2        0.0000 
      3 N         -18.4480  -20.0150    6.2070 N.am      5 SEP2        0.0000 
      4 CA        -17.4580  -18.0945    6.0360 C.3       3 GLC5        0.0000 
      5 CA        -16.7570  -16.3080    7.1800 C.3       9 GLL5        0.0000 
      6 CA        -18.1590  -19.8810    4.8920 C.3       6 GLP5        0.0000 
      7 CA        -16.4920  -14.1130    7.5525 C.3       3 GLC5        0.0000 
      8 CA        -16.2270  -11.9180    7.9250 C.3       6 GLP5        0.0000 
      9 CA        -17.1530  -13.4305    6.5825 C.3       3 GLC5        0.0000 
     10 CA        -17.0700  -15.2980    6.1030 C.3       9 GLL5        0.0000 
     11 CA        -17.2360  -11.5630    7.0620 C.3       6 GLP5        0.0000 
     12 CA        -18.4900  -17.7050    4.6215 C.3       3 GLC5        0.0000 
     13 CA        -17.9700  -16.1250    5.2230 C.3       9 GLL5        0.0000 
     14 CA        -19.0100  -19.2850    4.0200 C.3       6 GLP5        0.0000 
     15 N         -20.3250  -15.2955    4.7670 N.am      2 SEC2        0.0000 
     16 N         -19.3260  -16.0470    5.6390 N.am      8 SEL2        0.0000 
     17 N         -21.3240  -14.5440    3.8950 N.am      5 SEP2        0.0000 
     18 N         -20.1760  -16.2615    4.2135 N.am      2 SEC2        0.0000 
     19 N         -21.0260  -16.4760    2.7880 N.am      5 SEP2        0.0000 
     20 O         -19.8040  -14.9595    6.2250 O.2       1 ALC1        0.0000 
     21 O         -19.3260  -16.0470    5.6390 O.2       7 ALL1        0.0000 
     22 O         -20.2820  -13.8720    6.8110 O.2       4 ALP1        0.0000 
     23 CA        -18.1790  -17.3990    3.2765 C.3       3 GLC5        0.0000 
     24 CA        -17.7030  -15.6100    3.8540 C.3       9 GLL5        0.0000 
     25 CA        -18.6550  -19.1880    2.6990 C.3       6 GLP5        0.0000 
     26 N         -19.9585  -14.5410    3.7720 N.am      2 SEC2        0.0000 
     27 N         -18.5930  -14.5380    3.6490 N.am      8 SEL2        0.0000 
     28 N         -19.8095  -15.5070    3.2185 N.am      2 SEC2        0.0000 
     29 N         -15.8530  -16.3570    0.0100 N.am      2 SEC2        0.0000 
     30 N         -15.6180  -15.5260    1.2510 N.am      8 SEL2        0.0000 
     31 N         -16.0880  -17.1880   -1.2310 N.am      5 SEP2        0.0000 
     32 O         -13.1460  -18.4920    0.3485 O.2       1 ALC1        0.0000 
     33 O         -12.8460  -19.0310    1.8240 O.2       7 ALL1        0.0000 
     34 O         -13.4460  -17.9530   -1.1270 O.2       4 ALP1        0.0000 
     35 O         -11.5595  -19.8030    2.6185 O.2       1 ALC1        0.0000 
     36 O         -10.2730  -20.5750    3.4130 O.2       4 ALP1        0.0000 
     37 CA        -16.9203  -13.5690    2.9785 C.3       3 GLC5        0.0000 
     38 CA        -16.2380  -15.1800    3.9560 C.3       9 GLL5        0.0000 
     39 CA        -16.8700  -11.7430    2.0520 C.3       6 GLP5        0.0000 
     40 CA        -12.3882  -17.1277    3.7092 C.3       3 GLC5        0.0000 
     41 CA        -14.7360  -17.1040    4.2140 C.3       9 GLL5        0.0000 
     42 CA        -10.4650  -16.6610    3.4470 C.3       6 GLP5        0.0000 
     43 CA        -13.2012  -16.7713    5.3492 C.3       3 GLC5        0.0000 
     44 CA        -13.8870  -18.0850    3.7290 C.3       9 GLL5        0.0000 
     45 CA        -12.0910  -15.9480    6.7270 C.3       6 GLP5        0.0000 
@<TRIPOS>BOND
@<TRIPOS>SUBSTRUCTURE
     1 ALC1       20 GROUP        1 X    ALC  0     ROOT ALC X 1
     2 SEC2        1 GROUP        1 X    SEC  0     **** SEC X 2
     3 GLC5        4 GROUP        1 X    GLC  0     **** GLC X 6
     4 ALP1       22 GROUP        1 Y    ALP  0     ROOT ALP Y 8
     5 SEP2        3 GROUP        1 Y    SEP  0     **** SEP Y 9
     6 GLP5        6 GROUP        1 Y    GLP  0     **** GLP Y 13
     7 ALL1       21 GROUP        1 Z    ALL  0     ROOT ALL Z 15
     8 SEL2        2 GROUP        1 Z    SEL  0     **** SEL Z 16
     9 GLL5        5 GROUP        1 Z    GLL  0     **** GLL Z 20
@<TRIPOS>SET

