#    Name: 4k6p_CDP_1_ligand
#    Modification time : Tue Mar 25 07:22:28 2014

@<TRIPOS>MOLECULE
4k6p_CDP_1_ligand
   37    38     1     0     0
SMALL
NO_CHARGES


@<TRIPOS>ATOM
      1 O3B       -16.1570  -20.8720    8.1730 O.co2     1 CDP304      0.0000 
      2 PB        -15.0180  -19.9430    8.4950 P.3       1 CDP304      0.0000 
      3 O1B       -13.8960  -20.0490    7.5210 O.co2     1 CDP304      0.0000 
      4 O2B       -14.4850  -19.9430    9.8970 O.co2     1 CDP304      0.0000 
      5 O3A       -15.7950  -18.5810    8.2630 O.3       1 CDP304      0.0000 
      6 PA        -15.8930  -17.3180    9.2110 P.3       1 CDP304      0.0000 
      7 O1A       -14.7430  -17.3170   10.1390 O.co2     1 CDP304      0.0000 
      8 O2A       -17.2260  -17.2610    9.8590 O.co2     1 CDP304      0.0000 
      9 O5'       -15.7510  -16.1460    8.1390 O.3       1 CDP304      0.0000 
     10 C5'       -16.7570  -16.3080    7.1800 C.3       1 CDP304      0.0000 
     11 C4'       -17.0700  -15.2980    6.1030 C.3       1 CDP304      0.0000 
     12 O4'       -15.9610  -14.9590    5.3130 O.3       1 CDP304      0.0000 
     13 C3'       -17.9700  -16.1250    5.2230 C.3       1 CDP304      0.0000 
     14 O3'       -19.3260  -16.0470    5.6390 O.3       1 CDP304      0.0000 
     15 C2'       -17.7030  -15.6100    3.8540 C.3       1 CDP304      0.0000 
     16 O2'       -18.5930  -14.5380    3.6490 O.3       1 CDP304      0.0000 
     17 C1'       -16.2380  -15.1800    3.9560 C.3       1 CDP304      0.0000 
     18 N1        -15.3230  -16.2200    3.4210 N.am      1 CDP304      0.0000 
     19 C2        -15.0810  -16.2990    2.0420 C.2       1 CDP304      0.0000 
     20 O2        -15.6180  -15.5260    1.2510 O.2       1 CDP304      0.0000 
     21 N3        -14.2520  -17.2530    1.5790 N.2       1 CDP304      0.0000 
     22 C4        -13.6520  -18.1320    2.3690 C.2       1 CDP304      0.0000 
     23 N4        -12.8460  -19.0310    1.8240 N.pl3     1 CDP304      0.0000 
     24 C5        -13.8870  -18.0850    3.7290 C.2       1 CDP304      0.0000 
     25 C6        -14.7360  -17.1040    4.2140 C.2       1 CDP304      0.0000 
     26 H         -17.7726  -16.5305    7.7075 H         1 CDP304      0.0000 
     27 H         -16.6144  -17.3242    6.6266 H         1 CDP304      0.0000 
     28 H         -17.6170  -14.5124    6.4906 H         1 CDP304      0.0000 
     29 H         -17.5867  -17.1492    5.2711 H         1 CDP304      0.0000 
     30 H         -17.7879  -16.3968    3.1717 H         1 CDP304      0.0000 
     31 H         -16.1257  -14.2702    3.3837 H         1 CDP304      0.0000 
     32 H         -12.7774  -19.0132    0.8265 H         1 CDP304      0.0000 
     33 H         -12.3792  -19.6460    2.4594 H         1 CDP304      0.0000 
     34 H         -13.4485  -18.7533    4.3604 H         1 CDP304      0.0000 
     35 H         -14.9048  -17.0815    5.2566 H         1 CDP304      0.0000 
     36 H         -19.4246  -15.1317    6.0294 H         1 CDP304      0.0000 
     37 H         -18.6508  -14.4361    2.6559 H         1 CDP304      0.0000 
@<TRIPOS>BOND
     1    2    1 ar   
     2    3    2 ar   
     3    4    2 ar   
     4    5    2 1    
     5    6    5 1    
     6    7    6 ar   
     7    8    6 ar   
     8    9    6 1    
     9   10    9 1    
    10   11   10 1    
    11   26   10 1    
    12   27   10 1    
    13   12   11 1    
    14   13   11 1    
    15   28   11 1    
    16   17   12 1    
    17   14   13 1    
    18   15   13 1    
    19   29   13 1    
    20   36   14 1    
    21   16   15 1    
    22   17   15 1    
    23   30   15 1    
    24   37   16 1    
    25   18   17 1    
    26   31   17 1    
    27   19   18 am   
    28   25   18 1    
    29   20   19 2    
    30   21   19 1    
    31   22   21 2    
    32   23   22 1    
    33   24   22 1    
    34   32   23 1    
    35   33   23 1    
    36   25   24 2    
    37   34   24 1    
    38   35   25 1    
@<TRIPOS>SUBSTRUCTURE
     1 CDP304      1 GROUP   
@<TRIPOS>SET

