#    Name: 4lp0_1YM_1_INTS_M
#    Modification time : Tue Mar 25 11:23:21 2014

@<TRIPOS>MOLECULE
4lp0_1YM_1_INTS_M
   56     0     9     0     0
SMALL
NO_CHARGES


@<TRIPOS>ATOM
      1 CA         19.6360   34.3160   -0.2700 C.3       3 GLC5        0.0000 
      2 CA         19.3560   33.8070    1.5980 C.3       9 GLL5        0.0000 
      3 CA         19.9160   34.8250   -2.1380 C.3       6 GLP5        0.0000 
      4 CA         18.4600   30.3625    1.4600 C.3       3 GLC5        0.0000 
      5 CA         19.0640   32.3320    1.9600 C.3       9 GLL5        0.0000 
      6 CA         17.8560   28.3930    0.9600 C.3       6 GLP5        0.0000 
      7 O          15.7065   32.8155    3.1870 O.2       1 ALC1        0.0000 
      8 O          16.0100   31.6720    3.9670 O.2       7 ALL1        0.0000 
      9 O          15.4030   33.9590    2.4070 O.2       4 ALP1        0.0000 
     10 CA         13.6185   31.0705    3.5145 C.3       3 GLC5        0.0000 
     11 CA         15.3470   30.9040    4.8690 C.3       9 GLL5        0.0000 
     12 CA         11.8900   31.2370    2.1600 C.3       6 GLP5        0.0000 
     13 CA         16.5185   32.7560    5.3045 C.3       3 GLC5        0.0000 
     14 CA         17.6900   34.6080    5.7400 C.3       6 GLP5        0.0000 
     15 CA         12.3995   31.4885    4.7830 C.3       3 GLC5        0.0000 
     16 CA         13.4450   30.8690    6.2880 C.3       9 GLL5        0.0000 
     17 CA         11.3540   32.1080    3.2780 C.3       6 GLP5        0.0000 
     18 O          16.5580   33.1795    2.4845 O.2       1 ALC1        0.0000 
     19 O          17.7130   32.4000    2.5620 O.2       7 ALL1        0.0000 
     20 N          14.1860   32.8550    5.4695 N.am      2 SEC2        0.0000 
     21 N          14.2540   31.4630    5.3970 N.am      8 SEL2        0.0000 
     22 N          14.1180   34.2470    5.5420 N.am      5 SEP2        0.0000 
     23 CA         11.1540   31.5395    8.6065 C.3       3 GLC5        0.0000 
     24 CA         12.2850   29.7240    8.7740 C.3       9 GLL5        0.0000 
     25 CA         10.0230   33.3550    8.4390 C.3       6 GLP5        0.0000 
     26 CA         14.1460   30.5990    9.2760 C.3       3 GLC5        0.0000 
     27 CA         16.0070   31.4740    9.7780 C.3       6 GLP5        0.0000 
     28 CA         17.9910   27.9355    6.1930 C.3       3 GLC5        0.0000 
     29 CA         16.4820   26.5590    5.8610 C.3       9 GLL5        0.0000 
     30 CA         19.5000   29.3120    6.5250 C.3       6 GLP5        0.0000 
     31 CA         16.7285   25.9565   12.2640 C.3       3 GLC5        0.0000 
     32 CA         15.5820   26.0580   10.5490 C.3       9 GLL5        0.0000 
     33 CA         17.8750   25.8550   13.9790 C.3       6 GLP5        0.0000 
     34 CA         17.2950   26.2990   10.2430 C.3       3 GLC5        0.0000 
     35 CA         19.0080   26.5400    9.9370 C.3       6 GLP5        0.0000 
     36 CA         17.6575   25.3355    9.6995 C.3       3 GLC5        0.0000 
     37 CA         16.3070   24.1310    9.4620 C.3       9 GLL5        0.0000 
     38 CA         20.7180   32.4008    0.7055 C.3       3 GLC5        0.0000 
     39 CA         22.2260   31.7320   -0.3680 C.3       6 GLP5        0.0000 
     40 CA         17.7035   33.0322    0.2950 C.3       3 GLC5        0.0000 
     41 CA         16.1970   32.9950   -1.1890 C.3       6 GLP5        0.0000 
     42 CA         19.1150   33.5027    3.8600 C.3       3 GLC5        0.0000 
     43 CA         19.0200   33.9360    5.9410 C.3       6 GLP5        0.0000 
     44 CA         20.8555   33.0553    2.8580 C.3       3 GLC5        0.0000 
     45 CA         22.5010   33.0410    3.9370 C.3       6 GLP5        0.0000 
     46 CA         16.5375   30.2336    6.8780 C.3       3 GLC5        0.0000 
     47 CA         17.8150   30.8470    8.0950 C.3       6 GLP5        0.0000 
     48 CA         14.8130   30.8540    8.1510 C.3       3 GLC5        0.0000 
     49 CA         13.7930   29.5990    6.7600 C.3       9 GLL5        0.0000 
     50 CA         13.9032   29.1875    9.8180 C.3       3 GLC5        0.0000 
     51 CA         12.8580   28.9840    7.7140 C.3       9 GLL5        0.0000 
     52 CA         15.2350   29.0210   11.3920 C.3       6 GLP5        0.0000 
     53 CA         15.3825   27.3347   10.6890 C.3       3 GLC5        0.0000 
     54 CA         15.4780   25.2390    9.4230 C.3       9 GLL5        0.0000 
     55 CA         17.5406   25.9945    8.9559 C.3       3 GLC5        0.0000 
     56 CA         15.7470   25.9310    8.1180 C.3       9 GLL5        0.0000 
@<TRIPOS>BOND
@<TRIPOS>SUBSTRUCTURE
     1 ALC1        7 GROUP        1 X    ALC  0     ROOT ALC X 1
     2 SEC2       20 GROUP        1 X    SEC  0     **** SEC X 2
     3 GLC5        1 GROUP        1 X    GLC  0     **** GLC X 6
     4 ALP1        9 GROUP        1 Y    ALP  0     ROOT ALP Y 8
     5 SEP2       22 GROUP        1 Y    SEP  0     **** SEP Y 9
     6 GLP5        3 GROUP        1 Y    GLP  0     **** GLP Y 13
     7 ALL1        8 GROUP        1 Z    ALL  0     ROOT ALL Z 15
     8 SEL2       21 GROUP        1 Z    SEL  0     **** SEL Z 16
     9 GLL5        2 GROUP        1 Z    GLL  0     **** GLL Z 20
@<TRIPOS>SET

