#    Name: 4lp0_1YM_1_ligand
#    Modification time : Tue Mar 25 11:23:21 2014

@<TRIPOS>MOLECULE
4lp0_1YM_1_ligand
   43    45     1     0     0
SMALL
NO_CHARGES


@<TRIPOS>ATOM
      1 C1         19.3560   33.8070    1.5980 C.3       1 1YM301      0.0000 
      2 C2         19.0640   32.3320    1.9600 C.3       1 1YM301      0.0000 
      3 O5         17.9520   30.5260    3.7400 O.2       1 1YM301      0.0000 
      4 N6         16.0100   31.6720    3.9670 N.am      1 1YM301      0.0000 
      5 C7         15.3470   30.9040    4.8690 C.ar      1 1YM301      0.0000 
      6 C8         15.7810   29.6270    5.2890 C.ar      1 1YM301      0.0000 
      7 C9         14.9560   28.9750    6.2430 C.ar      1 1YM301      0.0000 
      8 C10        13.7930   29.5990    6.7600 C.ar      1 1YM301      0.0000 
      9 C11        13.4450   30.8690    6.2880 C.ar      1 1YM301      0.0000 
     10 C13        12.8580   28.9840    7.7140 C.ar      1 1YM301      0.0000 
     11 C14        12.4400   27.6600    7.4910 C.ar      1 1YM301      0.0000 
     12 C15        11.4910   27.1420    8.4100 C.ar      1 1YM301      0.0000 
     13 C16        11.0050   27.9400    9.4520 C.ar      1 1YM301      0.0000 
     14 C19        10.9880   25.7460    8.3020 C.2       1 1YM301      0.0000 
     15 C22        15.3850   27.6740    6.7180 C.2       1 1YM301      0.0000 
     16 N23        15.2010   27.1180    7.9120 N.2       1 1YM301      0.0000 
     17 C24        15.7470   25.9310    8.1180 C.2       1 1YM301      0.0000 
     18 C27        15.4780   25.2390    9.4230 C.3       1 1YM301      0.0000 
     19 N3         17.7130   32.4000    2.5620 N.am      1 1YM301      0.0000 
     20 C4         17.2550   31.4710    3.4420 C.2       1 1YM301      0.0000 
     21 N12        14.2540   31.4630    5.3970 N.ar      1 1YM301      0.0000 
     22 N17        11.3870   29.2040    9.6180 N.ar      1 1YM301      0.0000 
     23 C18        12.2850   29.7240    8.7740 C.ar      1 1YM301      0.0000 
     24 O20        11.1780   25.0130    7.3330 O.co2     1 1YM301      0.0000 
     25 O21        10.2600   25.2380    9.3120 O.co2     1 1YM301      0.0000 
     26 C25        16.5340   25.3130    7.1790 C.2       1 1YM301      0.0000 
     27 S26        16.4820   26.5590    5.8610 S.3       1 1YM301      0.0000 
     28 F28        15.5820   26.0580   10.5490 F         1 1YM301      0.0000 
     29 F29        14.1870   24.7600    9.4130 F         1 1YM301      0.0000 
     30 F30        16.3070   24.1310    9.4620 F         1 1YM301      0.0000 
     31 H          19.7855   32.0068    2.6660 H         1 1YM301      0.0000 
     32 H          19.0610   31.7581    1.0681 H         1 1YM301      0.0000 
     33 H          15.4837   32.5647    3.6144 H         1 1YM301      0.0000 
     34 H          16.6092   29.2092    4.9415 H         1 1YM301      0.0000 
     35 H          12.5876   31.3128    6.6305 H         1 1YM301      0.0000 
     36 H          12.7851   27.1142    6.7361 H         1 1YM301      0.0000 
     37 H          10.3139   27.4978   10.1124 H         1 1YM301      0.0000 
     38 H          17.1309   33.2087    2.2680 H         1 1YM301      0.0000 
     39 H          12.5994   30.7240    8.8764 H         1 1YM301      0.0000 
     40 H          16.9911   24.6384    6.9951 H         1 1YM301      0.0000 
     41 H          20.2552   33.9143    1.1738 H         1 1YM301      0.0000 
     42 H          18.6830   34.1717    0.9546 H         1 1YM301      0.0000 
     43 H          19.3402   34.3976    2.4048 H         1 1YM301      0.0000 
@<TRIPOS>BOND
     1    2    1 1    
     2   41    1 1    
     3   42    1 1    
     4   43    1 1    
     5   19    2 1    
     6   31    2 1    
     7   32    2 1    
     8   20    3 2    
     9    5    4 1    
    10   20    4 am   
    11   33    4 1    
    12    6    5 ar   
    13   21    5 ar   
    14    7    6 ar   
    15   34    6 1    
    16    8    7 ar   
    17   15    7 1    
    18    9    8 ar   
    19   10    8 1    
    20   21    9 ar   
    21   35    9 1    
    22   11   10 ar   
    23   23   10 ar   
    24   12   11 ar   
    25   36   11 1    
    26   13   12 ar   
    27   14   12 1    
    28   22   13 ar   
    29   37   13 1    
    30   24   14 ar   
    31   25   14 ar   
    32   16   15 2    
    33   27   15 1    
    34   17   16 1    
    35   18   17 1    
    36   26   17 2    
    37   28   18 1    
    38   29   18 1    
    39   30   18 1    
    40   20   19 am   
    41   38   19 1    
    42   23   22 ar   
    43   39   23 1    
    44   27   26 1    
    45   40   26 1    
@<TRIPOS>SUBSTRUCTURE
     1 1YM301      1 GROUP   
@<TRIPOS>SET

