#    Name: 3i5u_SAM_3_INTS_M
#    Modification time : Tue Mar 25 15:54:23 2014

@<TRIPOS>MOLECULE
3i5u_SAM_3_INTS_M
   76     0     9     0     0
SMALL
NO_CHARGES


@<TRIPOS>ATOM
      1 O          35.7475  -35.6380  -20.4025 O.2       1 ALC1        0.0000 
      2 O          36.9340  -36.4470  -20.7410 O.2       7 ALL1        0.0000 
      3 O          34.5610  -34.8290  -20.0640 O.2       4 ALP1        0.0000 
      4 O          38.0270  -35.5165  -20.6150 O.2       1 ALC1        0.0000 
      5 O          39.1200  -34.5860  -20.4890 O.2       4 ALP1        0.0000 
      6 CA         35.1895  -37.1225  -20.4080 C.3       3 GLC5        0.0000 
      7 CA         36.6190  -37.0560  -22.0410 C.3       9 GLL5        0.0000 
      8 CA         33.7600  -37.1890  -18.7750 C.3       6 GLP5        0.0000 
      9 N          39.7210  -37.3280  -21.0490 N.am      2 SEC2        0.0000 
     10 N          38.9850  -37.2940  -22.1490 N.am      8 SEL2        0.0000 
     11 N          40.4570  -37.3620  -19.9490 N.am      5 SEP2        0.0000 
     12 CA         36.3115  -36.8295  -24.8815 C.3       3 GLC5        0.0000 
     13 CA         35.9910  -36.0040  -22.9560 C.3       9 GLL5        0.0000 
     14 CA         36.6320  -37.6550  -26.8070 C.3       6 GLP5        0.0000 
     15 CA         39.0040  -34.5520  -23.0720 C.3       3 GLC5        0.0000 
     16 CA         36.9820  -34.8780  -23.2550 C.3       9 GLL5        0.0000 
     17 CA         41.0260  -34.2260  -22.8890 C.3       6 GLP5        0.0000 
     18 CA         35.4085  -33.4395  -26.1315 C.3       3 GLC5        0.0000 
     19 CA         36.2980  -33.6020  -24.3750 C.3       9 GLL5        0.0000 
     20 CA         34.5190  -33.2770  -27.8880 C.3       6 GLP5        0.0000 
     21 CA         36.7740  -32.9100  -26.7325 C.3       3 GLC5        0.0000 
     22 CA         37.8150  -32.8930  -24.9780 C.3       9 GLL5        0.0000 
     23 CA         35.7330  -32.9270  -28.4870 C.3       6 GLP5        0.0000 
     24 CA         38.0285  -34.1745  -26.1910 C.3       3 GLC5        0.0000 
     25 CA         38.2420  -35.4560  -27.4040 C.3       6 GLP5        0.0000 
     26 CA         39.4205  -33.5595  -23.9335 C.3       3 GLC5        0.0000 
     27 CA         36.4725  -32.0570  -21.4010 C.3       3 GLC5        0.0000 
     28 CA         35.6250  -32.1900  -23.4270 C.3       9 GLL5        0.0000 
     29 CA         37.3200  -31.9240  -19.3750 C.3       6 GLP5        0.0000 
     30 CA         33.8435  -32.9825  -20.6195 C.3       3 GLC5        0.0000 
     31 CA         34.3330  -32.5420  -22.6920 C.3       9 GLL5        0.0000 
     32 CA         33.3540  -33.4230  -18.5470 C.3       6 GLP5        0.0000 
     33 CA         33.8880  -33.1055  -25.7985 C.3       3 GLC5        0.0000 
     34 CA         33.2570  -32.9340  -23.7090 C.3       9 GLL5        0.0000 
     35 O          31.2155  -33.8195  -22.5905 O.2       1 ALC1        0.0000 
     36 O          32.6050  -34.1340  -23.2880 O.2       7 ALL1        0.0000 
     37 O          29.8260  -33.5050  -21.8930 O.2       4 ALP1        0.0000 
     38 O          32.0425  -34.3030  -22.0560 O.2       1 ALC1        0.0000 
     39 O          31.4800  -34.4720  -20.8240 O.2       4 ALP1        0.0000 
     40 O          30.3965  -32.8565  -22.9025 O.2       1 ALC1        0.0000 
     41 O          30.9670  -32.2080  -23.9120 O.2       7 ALL1        0.0000 
     42 CA         32.8920  -32.4085  -20.3585 C.3       3 GLC5        0.0000 
     43 CA         32.4300  -31.3940  -22.1700 C.3       9 GLL5        0.0000 
     44 CA         33.0515  -30.3280  -20.4090 C.3       3 GLC5        0.0000 
     45 CA         33.6730  -29.2620  -18.6480 C.3       6 GLP5        0.0000 
     46 CA         29.5700  -28.9600  -22.1415 C.3       3 GLC5        0.0000 
     47 CA         30.9260  -28.3670  -20.8490 C.3       9 GLL5        0.0000 
     48 CA         28.2140  -29.5530  -23.4340 C.3       6 GLP5        0.0000 
     49 CA         28.6390  -28.3900  -20.5510 C.3       3 GLC5        0.0000 
     50 CA         30.2630  -27.7600  -19.7890 C.3       9 GLL5        0.0000 
     51 CA         27.0150  -29.0200  -21.3130 C.3       6 GLP5        0.0000 
     52 CA         28.9375  -27.7475  -18.2440 C.3       3 GLC5        0.0000 
     53 CA         27.6120  -27.7350  -16.6990 C.3       6 GLP5        0.0000 
     54 O          29.1560  -25.9735  -18.5115 O.2       1 ALC1        0.0000 
     55 O          29.9880  -26.4600  -19.8130 O.2       7 ALL1        0.0000 
     56 O          28.3240  -25.4870  -17.2100 O.2       4 ALP1        0.0000 
     57 N          29.9135  -28.2390  -17.3030 N.am      2 SEC2        0.0000 
     58 N          29.9270  -28.5010  -18.7230 N.am      8 SEL2        0.0000 
     59 N          29.9000  -27.9770  -15.8830 N.am      5 SEP2        0.0000 
     60 CA         29.4840  -31.7510  -18.8115 C.3       3 GLC5        0.0000 
     61 CA         30.2160  -29.7900  -18.6740 C.3       9 GLL5        0.0000 
     62 CA         28.7520  -33.7120  -18.9490 C.3       6 GLP5        0.0000 
     63 CA         28.6155  -29.4050  -19.9935 C.3       3 GLC5        0.0000 
     64 CA         28.9140  -28.7625  -17.6865 C.3       3 GLC5        0.0000 
     65 CA         31.2060  -29.2295  -16.9390 C.3       3 GLC5        0.0000 
     66 CA         32.1960  -28.6690  -15.2040 C.3       6 GLP5        0.0000 
     67 CA         29.4280  -29.9180  -21.4545 C.3       3 GLC5        0.0000 
     68 CA         31.2150  -29.7210  -20.7570 C.3       9 GLL5        0.0000 
     69 CA         27.6410  -30.1150  -22.1520 C.3       6 GLP5        0.0000 
     70 CA         34.2580  -36.9970  -22.3592 C.3       3 GLC5        0.0000 
     71 CA         32.2110  -37.4640  -22.2200 C.3       6 GLP5        0.0000 
     72 CA         36.6190  -35.2080  -25.4930 C.3       3 GLC5        0.0000 
     73 CA         36.5980  -36.1760  -27.1710 C.3       6 GLP5        0.0000 
     74 CA         34.5525  -31.2265  -24.6747 C.3       3 GLC5        0.0000 
     75 CA         34.1260  -30.0870  -26.2900 C.3       6 GLP5        0.0000 
     76 CA         33.4510  -31.2140  -24.9847 C.3       3 GLC5        0.0000 
@<TRIPOS>BOND
@<TRIPOS>SUBSTRUCTURE
     1 ALC1        1 GROUP        1 X    ALC  0     ROOT ALC X 1
     2 SEC2        9 GROUP        1 X    SEC  0     **** SEC X 2
     3 GLC5        6 GROUP        1 X    GLC  0     **** GLC X 6
     4 ALP1        3 GROUP        1 Y    ALP  0     ROOT ALP Y 8
     5 SEP2       11 GROUP        1 Y    SEP  0     **** SEP Y 9
     6 GLP5        8 GROUP        1 Y    GLP  0     **** GLP Y 13
     7 ALL1        2 GROUP        1 Z    ALL  0     ROOT ALL Z 15
     8 SEL2       10 GROUP        1 Z    SEL  0     **** SEL Z 16
     9 GLL5        7 GROUP        1 Z    GLL  0     **** GLL Z 20
@<TRIPOS>SET

