#    Name: 3i5u_SAM_3_ligand
#    Modification time : Tue Mar 25 15:54:23 2014

@<TRIPOS>MOLECULE
3i5u_SAM_3_ligand
   50    52     1     0     0
SMALL
NO_CHARGES


@<TRIPOS>ATOM
      1 N          36.9340  -36.4470  -20.7410 N.4       1 SAM401      0.0000 
      2 CA         36.6190  -37.0560  -22.0410 C.3       1 SAM401      0.0000 
      3 C          37.8980  -37.5850  -22.6950 C.2       1 SAM401      0.0000 
      4 O          38.9850  -37.2940  -22.1490 O.co2     1 SAM401      0.0000 
      5 OXT        37.7590  -38.2620  -23.7370 O.co2     1 SAM401      0.0000 
      6 CB         35.9910  -36.0040  -22.9560 C.3       1 SAM401      0.0000 
      7 CG         36.9820  -34.8780  -23.2550 C.3       1 SAM401      0.0000 
      8 SD         36.2980  -33.6020  -24.3750 S.3       1 SAM401      0.0000 
      9 CE         37.8150  -32.8930  -24.9780 C.3       1 SAM401      0.0000 
     10 C5'        35.6250  -32.1900  -23.4270 C.3       1 SAM401      0.0000 
     11 C4'        34.3330  -32.5420  -22.6920 C.3       1 SAM401      0.0000 
     12 O4'        33.8560  -31.3610  -22.0250 O.3       1 SAM401      0.0000 
     13 C3'        33.2570  -32.9340  -23.7090 C.3       1 SAM401      0.0000 
     14 O3'        32.6050  -34.1340  -23.2880 O.3       1 SAM401      0.0000 
     15 C2'        32.2950  -31.7480  -23.6500 C.3       1 SAM401      0.0000 
     16 O2'        30.9670  -32.2080  -23.9120 O.3       1 SAM401      0.0000 
     17 C1'        32.4300  -31.3940  -22.1700 C.3       1 SAM401      0.0000 
     18 N9         31.8710  -30.0580  -21.8640 N.pl3     1 SAM401      0.0000 
     19 C8         31.9820  -28.9710  -22.6240 C.2       1 SAM401      0.0000 
     20 N7         31.4070  -27.9370  -22.0110 N.2       1 SAM401      0.0000 
     21 C5         30.9260  -28.3670  -20.8490 C.ar      1 SAM401      0.0000 
     22 C6         30.2630  -27.7600  -19.7890 C.ar      1 SAM401      0.0000 
     23 N6         29.9880  -26.4600  -19.8130 N.pl3     1 SAM401      0.0000 
     24 N1         29.9270  -28.5010  -18.7230 N.ar      1 SAM401      0.0000 
     25 C2         30.2160  -29.7900  -18.6740 C.ar      1 SAM401      0.0000 
     26 N3         30.8460  -30.4000  -19.6620 N.ar      1 SAM401      0.0000 
     27 C4         31.2150  -29.7210  -20.7570 C.ar      1 SAM401      0.0000 
     28 H          35.9303  -37.8656  -21.9264 H         1 SAM401      0.0000 
     29 H          35.1097  -35.5868  -22.4714 H         1 SAM401      0.0000 
     30 H          35.6903  -36.4747  -23.8907 H         1 SAM401      0.0000 
     31 H          37.8529  -35.2012  -23.7919 H         1 SAM401      0.0000 
     32 H          37.2481  -34.2974  -22.3928 H         1 SAM401      0.0000 
     33 H          35.4992  -31.4494  -24.1905 H         1 SAM401      0.0000 
     34 H          36.4408  -31.9506  -22.7755 H         1 SAM401      0.0000 
     35 H          34.4977  -33.3374  -22.0298 H         1 SAM401      0.0000 
     36 H          33.6897  -32.9778  -24.6581 H         1 SAM401      0.0000 
     37 H          32.6436  -30.9864  -24.2266 H         1 SAM401      0.0000 
     38 H          32.0054  -32.1571  -21.5972 H         1 SAM401      0.0000 
     39 H          32.4194  -28.9356  -23.5001 H         1 SAM401      0.0000 
     40 H          29.5616  -26.0852  -18.9898 H         1 SAM401      0.0000 
     41 H          30.2323  -25.9740  -20.6521 H         1 SAM401      0.0000 
     42 H          29.9336  -30.3508  -17.8159 H         1 SAM401      0.0000 
     43 H          37.5747  -35.6849  -20.8334 H         1 SAM401      0.0000 
     44 H          36.1161  -36.0892  -20.2905 H         1 SAM401      0.0000 
     45 H          37.3500  -37.1053  -20.1135 H         1 SAM401      0.0000 
     46 H          38.2843  -32.3637  -24.2712 H         1 SAM401      0.0000 
     47 H          38.4543  -33.5952  -25.2913 H         1 SAM401      0.0000 
     48 H          37.6560  -32.2763  -25.7490 H         1 SAM401      0.0000 
     49 H          32.2673  -33.9358  -22.3678 H         1 SAM401      0.0000 
     50 H          30.6703  -32.6403  -23.0605 H         1 SAM401      0.0000 
@<TRIPOS>BOND
     1    2    1 1    
     2   43    1 1    
     3   44    1 1    
     4   45    1 1    
     5    3    2 1    
     6    6    2 1    
     7   28    2 1    
     8    4    3 ar   
     9    5    3 ar   
    10    7    6 1    
    11   29    6 1    
    12   30    6 1    
    13    8    7 1    
    14   31    7 1    
    15   32    7 1    
    16    9    8 1    
    17   10    8 1    
    18   46    9 1    
    19   47    9 1    
    20   48    9 1    
    21   11   10 1    
    22   33   10 1    
    23   34   10 1    
    24   12   11 1    
    25   13   11 1    
    26   35   11 1    
    27   17   12 1    
    28   14   13 1    
    29   15   13 1    
    30   36   13 1    
    31   49   14 1    
    32   16   15 1    
    33   17   15 1    
    34   37   15 1    
    35   50   16 1    
    36   18   17 1    
    37   38   17 1    
    38   19   18 1    
    39   27   18 1    
    40   20   19 2    
    41   39   19 1    
    42   21   20 1    
    43   22   21 ar   
    44   27   21 ar   
    45   23   22 1    
    46   24   22 ar   
    47   40   23 1    
    48   41   23 1    
    49   25   24 ar   
    50   26   25 ar   
    51   42   25 1    
    52   27   26 ar   
@<TRIPOS>SUBSTRUCTURE
     1 SAM401      1 GROUP   
@<TRIPOS>SET

