#    Name: 4kne_1CY_3_INTS_M
#    Modification time : Tue Mar 25 08:05:42 2014

@<TRIPOS>MOLECULE
4kne_1CY_3_INTS_M
   29     0     9     0     0
SMALL
NO_CHARGES


@<TRIPOS>ATOM
      1 N          13.2585   16.5500   39.1480 N.am      2 SEC2        0.0000 
      2 N          12.4130   16.1420   38.2150 N.am      8 SEL2        0.0000 
      3 N          14.1040   16.9580   40.0810 N.am      5 SEP2        0.0000 
      4 O          13.8885   14.3910   39.1065 O.2       1 ALC1        0.0000 
      5 O          13.0200   13.8900   38.2520 O.2       7 ALL1        0.0000 
      6 O          14.7570   14.8920   39.9610 O.2       4 ALP1        0.0000 
      7 O           9.0175   13.7475   35.7655 O.2       1 ALC1        0.0000 
      8 O           9.2870   15.1510   35.7790 O.2       7 ALL1        0.0000 
      9 O           8.7480   12.3440   35.7520 O.2       4 ALP1        0.0000 
     10 O           7.8940   14.2090   36.2050 O.2       1 ALC1        0.0000 
     11 O           6.5010   13.2670   36.6310 O.2       4 ALP1        0.0000 
     12 CA         11.3110   19.7905   39.0635 C.3       3 GLC5        0.0000 
     13 CA         12.2420   18.5630   37.6160 C.3       9 GLL5        0.0000 
     14 CA         10.3800   21.0180   40.5110 C.3       6 GLP5        0.0000 
     15 CA         13.0335   17.5955   35.8655 C.3       3 GLC5        0.0000 
     16 CA         13.8250   16.6280   34.1150 C.3       6 GLP5        0.0000 
     17 CA         11.1275   15.9100   40.4230 C.3       3 GLC5        0.0000 
     18 CA         10.7620   17.3870   39.1950 C.3       9 GLL5        0.0000 
     19 CA         11.4930   14.4330   41.6510 C.3       6 GLP5        0.0000 
     20 CA         10.5710   19.2025   39.8530 C.3       3 GLC5        0.0000 
     21 CA          6.6635   22.4950   33.5005 C.3       3 GLC5        0.0000 
     22 CA          6.8490   20.7790   34.2560 C.3       9 GLL5        0.0000 
     23 CA          6.4780   24.2110   32.7450 C.3       6 GLP5        0.0000 
     24 CA          7.2255   19.2350   32.6675 C.3       3 GLC5        0.0000 
     25 CA          7.6020   17.6910   31.0790 C.3       6 GLP5        0.0000 
     26 CA          5.5128   19.9522   34.3053 C.3       3 GLC5        0.0000 
     27 CA          3.6320   19.7130   33.9500 C.3       6 GLP5        0.0000 
     28 CA          8.0940   18.6010   32.9597 C.3       3 GLC5        0.0000 
     29 CA          7.9380   19.6040   35.0650 C.3       9 GLL5        0.0000 
@<TRIPOS>BOND
@<TRIPOS>SUBSTRUCTURE
     1 ALC1        4 GROUP        1 X    ALC  0     ROOT ALC X 1
     2 SEC2        1 GROUP        1 X    SEC  0     **** SEC X 2
     3 GLC5       12 GROUP        1 X    GLC  0     **** GLC X 6
     4 ALP1        6 GROUP        1 Y    ALP  0     ROOT ALP Y 8
     5 SEP2        3 GROUP        1 Y    SEP  0     **** SEP Y 9
     6 GLP5       14 GROUP        1 Y    GLP  0     **** GLP Y 13
     7 ALL1        5 GROUP        1 Z    ALL  0     ROOT ALL Z 15
     8 SEL2        2 GROUP        1 Z    SEL  0     **** SEL Z 16
     9 GLL5       13 GROUP        1 Z    GLL  0     **** GLL Z 20
@<TRIPOS>SET

