#    Name: 4kne_1CY_3_ligand
#    Modification time : Tue Mar 25 08:05:42 2014

@<TRIPOS>MOLECULE
4kne_1CY_3_ligand
   31    32     1     0     0
SMALL
NO_CHARGES


@<TRIPOS>ATOM
      1 N1         12.4130   16.1420   38.2150 N.2       1 1CY201      0.0000 
      2 C2         12.1850   14.8620   37.8350 C.2       1 1CY201      0.0000 
      3 N3         11.1580   14.5520   37.0190 N.2       1 1CY201      0.0000 
      4 C4         10.3160   15.5010   36.5790 C.2       1 1CY201      0.0000 
      5 N5         10.4730   16.8490   36.9530 N.pl3     1 1CY201      0.0000 
      6 C6         11.5300   17.2360   37.8850 C.3       1 1CY201      0.0000 
      7 N7         13.0200   13.8900   38.2520 N.pl3     1 1CY201      0.0000 
      8 N8          9.2870   15.1510   35.7790 N.pl3     1 1CY201      0.0000 
      9 C9         12.2420   18.5630   37.6160 C.3       1 1CY201      0.0000 
     10 C10        10.7620   17.3870   39.1950 C.3       1 1CY201      0.0000 
     11 C11         9.5610   17.7800   36.4040 C.ar      1 1CY201      0.0000 
     12 C12         8.2590   17.9740   36.8430 C.ar      1 1CY201      0.0000 
     13 C13         7.4720   18.8960   36.1700 C.ar      1 1CY201      0.0000 
     14 C14         7.9380   19.6040   35.0650 C.ar      1 1CY201      0.0000 
     15 C15         9.2340   19.4180   34.6160 C.ar      1 1CY201      0.0000 
     16 C16        10.0160   18.4810   35.2800 C.ar      1 1CY201      0.0000 
     17 CL17        6.8490   20.7790   34.2560 Cl        1 1CY201      0.0000 
     18 H          13.1118   13.0992   37.6469 H         1 1CY201      0.0000 
     19 H          13.4735   14.0461   39.1294 H         1 1CY201      0.0000 
     20 H           8.9571   14.2116   35.8721 H         1 1CY201      0.0000 
     21 H           8.9459   15.8622   35.1643 H         1 1CY201      0.0000 
     22 H           7.8928   17.4542   37.6363 H         1 1CY201      0.0000 
     23 H           6.4964   19.0672   36.5009 H         1 1CY201      0.0000 
     24 H           9.6010   19.9442   33.8326 H         1 1CY201      0.0000 
     25 H          10.9819   18.2884   34.9309 H         1 1CY201      0.0000 
     26 H          12.7649   18.8717   38.4106 H         1 1CY201      0.0000 
     27 H          12.8837   18.4920   36.8524 H         1 1CY201      0.0000 
     28 H          11.5959   19.2918   37.3892 H         1 1CY201      0.0000 
     29 H          11.3707   17.5957   39.9605 H         1 1CY201      0.0000 
     30 H          10.0877   18.1240   39.1474 H         1 1CY201      0.0000 
     31 H          10.2668   16.5516   39.4336 H         1 1CY201      0.0000 
@<TRIPOS>BOND
     1    2    1 2    
     2    6    1 1    
     3    3    2 1    
     4    7    2 1    
     5    4    3 2    
     6    5    4 1    
     7    8    4 1    
     8    6    5 1    
     9   11    5 1    
    10    9    6 1    
    11   10    6 1    
    12   18    7 1    
    13   19    7 1    
    14   20    8 1    
    15   21    8 1    
    16   26    9 1    
    17   27    9 1    
    18   28    9 1    
    19   29   10 1    
    20   30   10 1    
    21   31   10 1    
    22   12   11 ar   
    23   16   11 ar   
    24   13   12 ar   
    25   22   12 1    
    26   14   13 ar   
    27   23   13 1    
    28   15   14 ar   
    29   17   14 1    
    30   16   15 ar   
    31   24   15 1    
    32   25   16 1    
@<TRIPOS>SUBSTRUCTURE
     1 1CY201      1 GROUP   
@<TRIPOS>SET

