#    Name: 1phd_PIW_1_INTS_M
#    Modification time : Mon Mar 24 21:25:11 2014

@<TRIPOS>MOLECULE
1phd_PIW_1_INTS_M
   22     0     3     0     0
SMALL
NO_CHARGES


@<TRIPOS>ATOM
      1 CA         47.2155   47.2325   14.9950 C.3       1 GLC5        0.0000 
      2 CA         46.9260   46.9850   12.8650 C.3       3 GLL5        0.0000 
      3 CA         47.5050   47.4800   17.1250 C.3       2 GLP5        0.0000 
      4 CA         47.8990   43.7855   17.6580 C.3       1 GLC5        0.0000 
      5 CA         46.5810   43.7790   16.0850 C.3       3 GLL5        0.0000 
      6 CA         49.2170   43.7920   19.2310 C.3       2 GLP5        0.0000 
      7 CA         47.3355   41.2535   13.3195 C.3       1 GLC5        0.0000 
      8 CA         45.7090   42.4820   14.1820 C.3       3 GLL5        0.0000 
      9 CA         48.9620   40.0250   12.4570 C.3       2 GLP5        0.0000 
     10 CA         45.3522   47.4820   12.9255 C.3       1 GLC5        0.0000 
     11 CA         43.4680   47.7420   13.5460 C.3       2 GLP5        0.0000 
     12 CA         48.2073   48.5395   12.8165 C.3       1 GLC5        0.0000 
     13 CA         49.1780   49.8570   13.3280 C.3       2 GLP5        0.0000 
     14 CA         49.2903   46.8145   12.6660 C.3       1 GLC5        0.0000 
     15 CA         47.5470   47.4590   11.7450 C.3       3 GLL5        0.0000 
     16 CA         51.3440   46.4070   13.0270 C.3       2 GLP5        0.0000 
     17 CA         48.6940   43.4073   15.9232 C.3       1 GLC5        0.0000 
     18 CA         47.0370   44.7860   15.1840 C.3       3 GLL5        0.0000 
     19 CA         50.5790   42.5320   16.2120 C.3       2 GLP5        0.0000 
     20 CA         47.1259   45.8580   16.2112 C.3       1 GLC5        0.0000 
     21 CA         46.6171   41.3111   16.0236 C.3       1 GLC5        0.0000 
     22 CA         47.2220   39.7770   17.0570 C.3       2 GLP5        0.0000 
@<TRIPOS>BOND
@<TRIPOS>SUBSTRUCTURE
     1 GLC5        1 GROUP        1 X    GLC  0     ROOT GLC X 6
     2 GLP5        3 GROUP        1 Y    GLP  0     ROOT GLP Y 13
     3 GLL5        2 GROUP        1 Z    GLL  0     ROOT GLL Z 20
@<TRIPOS>SET

