#    Name: 1phd_PIW_1_ligand
#    Modification time : Mon Mar 24 21:25:11 2014

@<TRIPOS>MOLECULE
1phd_PIW_1_ligand
   19    20     1     0     0
SMALL
NO_CHARGES


@<TRIPOS>ATOM
      1 N1         47.2330   45.6650   12.8660 N.pl3     1 PIW422      0.0000 
      2 C2         48.0130   45.4170   11.7920 C.2       1 PIW422      0.0000 
      3 N3         48.1640   46.4980   11.1500 N.2       1 PIW422      0.0000 
      4 C4         47.5470   47.4590   11.7450 C.2       1 PIW422      0.0000 
      5 C5         46.9260   46.9850   12.8650 C.2       1 PIW422      0.0000 
      6 C6         46.7880   44.6000   13.8360 C.ar      1 PIW422      0.0000 
      7 C7         47.0370   44.7860   15.1840 C.ar      1 PIW422      0.0000 
      8 C8         46.5810   43.7790   16.0850 C.ar      1 PIW422      0.0000 
      9 C9         46.0500   42.6380   15.5120 C.ar      1 PIW422      0.0000 
     10 C10        45.7090   42.4820   14.1820 C.ar      1 PIW422      0.0000 
     11 C11        46.1260   43.5070   13.3300 C.ar      1 PIW422      0.0000 
     12 H          48.3781   44.5285   11.5863 H         1 PIW422      0.0000 
     13 H          47.5028   48.4027   11.4712 H         1 PIW422      0.0000 
     14 H          46.4137   47.4619   13.4792 H         1 PIW422      0.0000 
     15 H          47.5208   45.5957   15.5362 H         1 PIW422      0.0000 
     16 H          46.6505   43.9105   17.0720 H         1 PIW422      0.0000 
     17 H          45.8882   41.7977   16.1591 H         1 PIW422      0.0000 
     18 H          45.1994   41.6930   13.8458 H         1 PIW422      0.0000 
     19 H          45.9319   43.4343   12.3197 H         1 PIW422      0.0000 
@<TRIPOS>BOND
     1    2    1 1    
     2    5    1 1    
     3    6    1 1    
     4    3    2 2    
     5   12    2 1    
     6    4    3 1    
     7    5    4 2    
     8   13    4 1    
     9   14    5 1    
    10    7    6 ar   
    11   11    6 ar   
    12    8    7 ar   
    13   15    7 1    
    14    9    8 ar   
    15   16    8 1    
    16   10    9 ar   
    17   17    9 1    
    18   11   10 ar   
    19   18   10 1    
    20   19   11 1    
@<TRIPOS>SUBSTRUCTURE
     1 PIW422      1 GROUP   
@<TRIPOS>SET

