#    Name: 4hl2_ZZ7_2_INTS_M
#    Modification time : Tue Mar 25 01:08:53 2014

@<TRIPOS>MOLECULE
4hl2_ZZ7_2_INTS_M
   52     0    15     0     0
SMALL
NO_CHARGES


@<TRIPOS>ATOM
      1 NZ         -7.4760  -20.2820   26.8635 N.4       3 LYC4        0.0000 
      2 NZ         -6.3240  -21.0940   26.1890 N.4      13 LYL4        0.0000 
      3 NZ         -8.6280  -19.4700   27.5380 N.4       8 LYP4        0.0000 
      4 Zn         -5.8655  -21.6950   25.3810 Zn        4 ZIC7        0.0000 
      5 Zn         -6.3240  -21.0940   26.1890 Zn       14 ZIL7        0.0000 
      6 Zn         -5.4070  -22.2960   24.5730 Zn        9 ZIP7        0.0000 
      7 N          -7.4760  -20.2820   26.8635 N.am      2 SEC2        0.0000 
      8 N          -6.3240  -21.0940   26.1890 N.am     12 SEL2        0.0000 
      9 N          -8.6280  -19.4700   27.5380 N.am      7 SEP2        0.0000 
     10 NZ         -7.3025  -19.7670   27.8200 N.4       3 LYC4        0.0000 
     11 NZ         -5.9770  -20.0640   28.1020 N.4      13 LYL4        0.0000 
     12 N          -7.3025  -19.7670   27.8200 N.am      2 SEC2        0.0000 
     13 N          -5.9770  -20.0640   28.1020 N.am     12 SEL2        0.0000 
     14 N          -5.2900  -19.2815   29.1900 N.am      2 SEC2        0.0000 
     15 N          -4.6030  -18.4990   30.2780 N.am      7 SEP2        0.0000 
     16 CA         -3.2085  -19.7085   28.2230 C.3       5 GLC5        0.0000 
     17 CA         -4.1180  -21.1150   27.0540 C.3      15 GLL5        0.0000 
     18 CA         -2.2990  -18.3020   29.3920 C.3      10 GLP5        0.0000 
     19 CA         -5.1760  -20.6090   30.3775 C.3       5 GLC5        0.0000 
     20 CA         -3.6580  -21.9410   29.5080 C.3      15 GLL5        0.0000 
     21 CA         -6.6940  -19.2770   31.2470 C.3      10 GLP5        0.0000 
     22 CA         -2.9785  -20.1215   29.4500 C.3       5 GLC5        0.0000 
     23 CA         -3.9010  -25.7020   27.9480 C.3       5 GLC5        0.0000 
     24 CA         -4.5600  -23.5900   27.8450 C.3      15 GLL5        0.0000 
     25 CA         -3.2420  -27.8140   28.0510 C.3      10 GLP5        0.0000 
     26 CA         -0.9565  -20.4175   23.2130 C.3       5 GLC5        0.0000 
     27 CA         -1.2300  -21.1730   25.2740 C.3      15 GLL5        0.0000 
     28 CA         -0.6830  -19.6620   21.1520 C.3      10 GLP5        0.0000 
     29 N          -0.2190  -18.6895   27.6105 N.am      2 SEC2        0.0000 
     30 N          -0.5170  -19.1240   26.2190 N.am     12 SEL2        0.0000 
     31 N           0.0790  -18.2550   29.0020 N.am      7 SEP2        0.0000 
     32 N          -0.2095  -23.5255   22.2140 N.am      2 SEC2        0.0000 
     33 N           0.4130  -22.8230   23.6730 N.am     12 SEL2        0.0000 
     34 N          -0.8320  -24.2280   20.7550 N.am      7 SEP2        0.0000 
     35 O           3.4285  -24.2205   23.6005 O.2       1 ALC1        0.0000 
     36 O           3.1860  -22.9010   24.2800 O.2      11 ALL1        0.0000 
     37 O           3.6710  -25.5400   22.9210 O.2       6 ALP1        0.0000 
     38 CA          2.9950  -25.8215   29.8450 C.3       5 GLC5        0.0000 
     39 CA          3.4410  -24.7140   28.2330 C.3      15 GLL5        0.0000 
     40 CA          2.5490  -26.9290   31.4570 C.3      10 GLP5        0.0000 
     41 Zn         -2.8685  -18.8410   24.1765 Zn        4 ZIC7        0.0000 
     42 Zn         -2.5170  -19.1390   25.2930 Zn       14 ZIL7        0.0000 
     43 Zn         -3.2200  -18.5430   23.0600 Zn        9 ZIP7        0.0000 
     44 CA         -5.8217  -23.4610   26.9582 C.3       5 GLC5        0.0000 
     45 CA         -3.7370  -22.4320   27.9840 C.3      15 GLL5        0.0000 
     46 CA         -7.4950  -23.9110   26.0020 C.3      10 GLP5        0.0000 
     47 CA          1.6613  -26.6850   29.3655 C.3       5 GLC5        0.0000 
     48 CA          2.3360  -25.5340   28.5040 C.3      15 GLL5        0.0000 
     49 CA          1.5740  -27.9090   30.5830 C.3      10 GLP5        0.0000 
     50 CA          2.2715  -26.5229   26.8360 C.3       5 GLC5        0.0000 
     51 CA          1.1610  -25.3880   27.7920 C.3      15 GLL5        0.0000 
     52 CA          2.3800  -28.1210   25.8930 C.3      10 GLP5        0.0000 
@<TRIPOS>BOND
@<TRIPOS>SUBSTRUCTURE
     1 ALC1       35 GROUP        1 X    ALC  0     ROOT ALC X 1
     2 SEC2        7 GROUP        1 X    SEC  0     **** SEC X 2
     3 LYC4        1 GROUP        1 X    LYC  0     **** LYC X 4
     4 ZIC7        4 GROUP        1 X    ZIC  0     **** ZIC X 5
     5 GLC5       16 GROUP        1 X    GLC  0     **** GLC X 6
     6 ALP1       37 GROUP        1 Y    ALP  0     ROOT ALP Y 8
     7 SEP2        9 GROUP        1 Y    SEP  0     **** SEP Y 9
     8 LYP4        3 GROUP        1 Y    LYP  0     **** LYP Y 11
     9 ZIP7        6 GROUP        1 Y    ZIP  0     **** ZIP Y 12
    10 GLP5       18 GROUP        1 Y    GLP  0     **** GLP Y 13
    11 ALL1       36 GROUP        1 Z    ALL  0     ROOT ALL Z 15
    12 SEL2        8 GROUP        1 Z    SEL  0     **** SEL Z 16
    13 LYL4        2 GROUP        1 Z    LYL  0     **** LYL Z 18
    14 ZIL7        5 GROUP        1 Z    ZIL  0     **** ZIL Z 19
    15 GLL5       17 GROUP        1 Z    GLL  0     **** GLL Z 20
@<TRIPOS>SET

