#    Name: 4hl2_ZZ7_2_ligand
#    Modification time : Tue Mar 25 01:08:53 2014

@<TRIPOS>MOLECULE
4hl2_ZZ7_2_ligand
   44    45     1     0     0
SMALL
NO_CHARGES


@<TRIPOS>ATOM
      1 O1         -6.3240  -21.0940   26.1890 O.co2     1 ZZ7302      0.0000 
      2 C2         -5.5970  -20.7390   27.1530 C.2       1 ZZ7302      0.0000 
      3 O2         -5.9770  -20.0640   28.1020 O.co2     1 ZZ7302      0.0000 
      4 C12        -4.1180  -21.1150   27.0540 C.3       1 ZZ7302      0.0000 
      5 C6         -3.7370  -22.4320   27.9840 C.3       1 ZZ7302      0.0000 
      6 C1         -3.6580  -21.9410   29.5080 C.3       1 ZZ7302      0.0000 
      7 C16        -4.5600  -23.5900   27.8450 C.3       1 ZZ7302      0.0000 
      8 S1         -1.9810  -22.5540   27.4560 S.3       1 ZZ7302      0.0000 
      9 N3         -3.7920  -21.7430   25.7800 N.4       1 ZZ7302      0.0000 
     10 C13        -2.3860  -22.1500   25.6210 C.3       1 ZZ7302      0.0000 
     11 C14        -1.2300  -21.1730   25.2740 C.3       1 ZZ7302      0.0000 
     12 C15        -1.4660  -19.6910   25.6340 C.2       1 ZZ7302      0.0000 
     13 O4         -0.5170  -19.1240   26.2190 O.co2     1 ZZ7302      0.0000 
     14 N1          0.0550  -21.6150   25.5290 N.am      1 ZZ7302      0.0000 
     15 C3          0.7920  -22.3840   24.7520 C.2       1 ZZ7302      0.0000 
     16 O3          0.4130  -22.8230   23.6730 O.2       1 ZZ7302      0.0000 
     17 C4          2.1950  -22.6830   25.3560 C.3       1 ZZ7302      0.0000 
     18 N2          3.1860  -22.9010   24.2800 N.4       1 ZZ7302      0.0000 
     19 C5          2.2590  -23.6660   26.4130 C.ar      1 ZZ7302      0.0000 
     20 C7          3.4090  -23.7850   27.1860 C.ar      1 ZZ7302      0.0000 
     21 C8          3.4410  -24.7140   28.2330 C.ar      1 ZZ7302      0.0000 
     22 C9          2.3360  -25.5340   28.5040 C.ar      1 ZZ7302      0.0000 
     23 C10         1.1610  -25.3880   27.7920 C.ar      1 ZZ7302      0.0000 
     24 C11         1.1690  -24.4600   26.7610 C.ar      1 ZZ7302      0.0000 
     25 OXT        -2.5170  -19.1390   25.2930 O.co2     1 ZZ7302      0.0000 
     26 H          -3.4569  -20.3842   27.3111 H         1 ZZ7302      0.0000 
     27 H          -2.2331  -23.1205   25.2571 H         1 ZZ7302      0.0000 
     28 H          -1.3101  -21.1311   24.0693 H         1 ZZ7302      0.0000 
     29 H           0.4797  -21.2808   26.4735 H         1 ZZ7302      0.0000 
     30 H           2.5011  -21.6645   25.8248 H         1 ZZ7302      0.0000 
     31 H           4.2264  -23.2010   26.9947 H         1 ZZ7302      0.0000 
     32 H           4.2892  -24.7973   28.8141 H         1 ZZ7302      0.0000 
     33 H           2.4104  -26.2499   29.2434 H         1 ZZ7302      0.0000 
     34 H           0.3382  -25.9272   28.0086 H         1 ZZ7302      0.0000 
     35 H           0.2779  -24.3447   26.1930 H         1 ZZ7302      0.0000 
     36 H          -3.4283  -22.6909   30.1284 H         1 ZZ7302      0.0000 
     37 H          -2.9634  -21.2328   29.6345 H         1 ZZ7302      0.0000 
     38 H          -4.5274  -21.5581   29.8204 H         1 ZZ7302      0.0000 
     39 H          -4.5499  -23.9426   26.9093 H         1 ZZ7302      0.0000 
     40 H          -4.2586  -24.3337   28.4418 H         1 ZZ7302      0.0000 
     41 H          -5.5139  -23.3976   28.0755 H         1 ZZ7302      0.0000 
     42 H           3.2382  -23.8631   24.0126 H         1 ZZ7302      0.0000 
     43 H           2.9611  -22.3798   23.4568 H         1 ZZ7302      0.0000 
     44 H           4.1052  -22.6243   24.5601 H         1 ZZ7302      0.0000 
@<TRIPOS>BOND
     1    2    1 ar   
     2    3    2 ar   
     3    4    2 1    
     4    5    4 1    
     5    9    4 1    
     6   26    4 1    
     7    6    5 1    
     8    7    5 1    
     9    8    5 1    
    10   36    6 1    
    11   37    6 1    
    12   38    6 1    
    13   39    7 1    
    14   40    7 1    
    15   41    7 1    
    16   10    8 1    
    17   10    9 1    
    18   11   10 1    
    19   27   10 1    
    20   12   11 1    
    21   14   11 1    
    22   28   11 1    
    23   13   12 ar   
    24   25   12 ar   
    25   15   14 am   
    26   29   14 1    
    27   16   15 2    
    28   17   15 1    
    29   18   17 1    
    30   19   17 1    
    31   30   17 1    
    32   42   18 1    
    33   43   18 1    
    34   44   18 1    
    35   20   19 ar   
    36   24   19 ar   
    37   21   20 ar   
    38   31   20 1    
    39   22   21 ar   
    40   32   21 1    
    41   23   22 ar   
    42   33   22 1    
    43   24   23 ar   
    44   34   23 1    
    45   35   24 1    
@<TRIPOS>SUBSTRUCTURE
     1 ZZ7302      1 GROUP   
@<TRIPOS>SET

