#    Name: 4lrz_ADP_1_INTS_M
#    Modification time : Tue Mar 25 11:27:39 2014

@<TRIPOS>MOLECULE
4lrz_ADP_1_INTS_M
   59     0    12     0     0
SMALL
NO_CHARGES


@<TRIPOS>ATOM
      1 Zn        -67.7575   13.6360  -28.3270 Zn        3 ZIC7        0.0000 
      2 Zn        -66.9940   14.4440  -28.3790 Zn       11 ZIL7        0.0000 
      3 Zn        -68.5210   12.8280  -28.2750 Zn        7 ZIP7        0.0000 
      4 Zn        -65.9140   14.0965  -28.6625 Zn        3 ZIC7        0.0000 
      5 Zn        -64.8340   13.7490  -28.9460 Zn        7 ZIP7        0.0000 
      6 N         -66.1420   17.7285  -26.9090 N.am      2 SEC2        0.0000 
      7 N         -66.4510   16.8030  -28.0360 N.am     10 SEL2        0.0000 
      8 N         -65.8330   18.6540  -25.7820 N.am      6 SEP2        0.0000 
      9 Zn        -68.7665   13.1910  -27.3770 Zn        3 ZIC7        0.0000 
     10 Zn        -69.0120   13.5540  -26.4790 Zn       11 ZIL7        0.0000 
     11 N         -68.8600   13.5820  -23.5655 N.am      2 SEC2        0.0000 
     12 N         -67.8640   14.2340  -24.2650 N.am     10 SEL2        0.0000 
     13 N         -69.8560   12.9300  -22.8660 N.am      6 SEP2        0.0000 
     14 N         -67.7965   14.9425  -23.2075 N.am      2 SEC2        0.0000 
     15 N         -67.7290   15.6510  -22.1500 N.am      6 SEP2        0.0000 
     16 N         -74.3590   15.1410  -24.1485 N.am      2 SEC2        0.0000 
     17 N         -74.1540   15.8840  -25.4060 N.am     10 SEL2        0.0000 
     18 N         -74.5640   14.3980  -22.8910 N.am      6 SEP2        0.0000 
     19 O         -75.3470   16.1690  -25.7935 O.2       1 ALC1        0.0000 
     20 O         -74.1540   15.8840  -25.4060 O.2       9 ALL1        0.0000 
     21 O         -76.5400   16.4540  -26.1810 O.2       5 ALP1        0.0000 
     22 CA        -75.3240   19.2370  -24.5310 C.3       4 GLC5        0.0000 
     23 CA        -73.6150   18.2230  -24.9480 C.3      12 GLL5        0.0000 
     24 CA        -77.0330   20.2510  -24.1140 C.3       8 GLP5        0.0000 
     25 O         -75.4945   17.2820  -23.8670 O.2       1 ALC1        0.0000 
     26 O         -74.3770   17.8610  -23.7900 O.2       9 ALL1        0.0000 
     27 O         -76.6120   16.7030  -23.9440 O.2       5 ALP1        0.0000 
     28 CA        -71.8365   18.8785  -22.2790 C.3       4 GLC5        0.0000 
     29 CA        -72.3240   18.8350  -24.4120 C.3      12 GLL5        0.0000 
     30 CA        -71.3490   18.9220  -20.1460 C.3       8 GLP5        0.0000 
     31 CA        -71.1395   25.4645  -23.9985 C.3       4 GLC5        0.0000 
     32 CA        -72.0110   23.7560  -24.8720 C.3      12 GLL5        0.0000 
     33 CA        -70.2680   27.1730  -23.1250 C.3       8 GLP5        0.0000 
     34 CA        -73.8010   24.8160  -24.2640 C.3       4 GLC5        0.0000 
     35 CA        -75.5910   25.8760  -23.6560 C.3       8 GLP5        0.0000 
     36 O         -71.6790   26.1720  -25.3305 O.2       1 ALC1        0.0000 
     37 O         -71.6470   24.8080  -25.6160 O.2       9 ALL1        0.0000 
     38 O         -71.7110   27.5360  -25.0450 O.2       5 ALP1        0.0000 
     39 CA        -71.3565   22.5640  -22.5670 C.3       4 GLC5        0.0000 
     40 CA        -72.9900   22.9200  -22.9050 C.3      12 GLL5        0.0000 
     41 CA        -69.7230   22.2080  -22.2290 C.3       8 GLP5        0.0000 
     42 CA        -74.2905   24.3980  -23.2805 C.3       4 GLC5        0.0000 
     43 CA        -74.5450   22.2050  -23.5155 C.3       4 GLC5        0.0000 
     44 CA        -76.1000   21.4900  -24.1260 C.3       8 GLP5        0.0000 
     45 CA        -73.3975   21.6290  -21.5470 C.3       4 GLC5        0.0000 
     46 CA        -73.8050   20.3380  -20.1890 C.3       8 GLP5        0.0000 
     47 CA        -74.1480   23.7255  -21.4390 C.3       4 GLC5        0.0000 
     48 CA        -75.3060   24.5310  -19.9730 C.3       8 GLP5        0.0000 
     49 CA        -74.1885   21.4005  -24.2740 C.3       4 GLC5        0.0000 
     50 CA        -72.2770   21.3110  -24.4220 C.3      12 GLL5        0.0000 
     51 CA        -73.6124   16.3671  -23.4414 C.3       4 GLC5        0.0000 
     52 CA        -73.2090   16.9490  -25.6370 C.3      12 GLL5        0.0000 
     53 CA        -74.1420   15.2340  -21.7620 C.3       8 GLP5        0.0000 
     54 CA        -73.9475   22.5960  -25.3140 C.3       4 GLC5        0.0000 
     55 CA        -71.8270   22.3660  -25.3220 C.3      12 GLL5        0.0000 
     56 CA        -75.9760   22.1310  -25.5310 C.3       8 GLP5        0.0000 
     57 CA        -73.1030   23.5755  -26.7230 C.3       4 GLC5        0.0000 
     58 CA        -74.2870   24.0900  -28.3490 C.3       8 GLP5        0.0000 
     59 CA        -70.9105   22.1970  -23.4943 C.3       4 GLC5        0.0000 
@<TRIPOS>BOND
@<TRIPOS>SUBSTRUCTURE
     1 ALC1       19 GROUP        1 X    ALC  0     ROOT ALC X 1
     2 SEC2        6 GROUP        1 X    SEC  0     **** SEC X 2
     3 ZIC7        1 GROUP        1 X    ZIC  0     **** ZIC X 5
     4 GLC5       22 GROUP        1 X    GLC  0     **** GLC X 6
     5 ALP1       21 GROUP        1 Y    ALP  0     ROOT ALP Y 8
     6 SEP2        8 GROUP        1 Y    SEP  0     **** SEP Y 9
     7 ZIP7        3 GROUP        1 Y    ZIP  0     **** ZIP Y 12
     8 GLP5       24 GROUP        1 Y    GLP  0     **** GLP Y 13
     9 ALL1       20 GROUP        1 Z    ALL  0     ROOT ALL Z 15
    10 SEL2        7 GROUP        1 Z    SEL  0     **** SEL Z 16
    11 ZIL7        2 GROUP        1 Z    ZIL  0     **** ZIL Z 19
    12 GLL5       23 GROUP        1 Z    GLL  0     **** GLL Z 20
@<TRIPOS>SET

