#    Name: 4lrz_ADP_1_ligand
#    Modification time : Tue Mar 25 11:27:39 2014

@<TRIPOS>MOLECULE
4lrz_ADP_1_ligand
   39    41     1     0     0
SMALL
NO_CHARGES


@<TRIPOS>ATOM
      1 PB        -67.5070   15.7530  -27.8770 P.3       1 ADP300      0.0000 
      2 O1B       -66.9940   14.4440  -28.3790 O.co2     1 ADP300      0.0000 
      3 O2B       -66.4510   16.8030  -28.0360 O.co2     1 ADP300      0.0000 
      4 O3B       -68.8510   16.1080  -28.4230 O.co2     1 ADP300      0.0000 
      5 PA        -68.5700   14.6150  -25.5270 P.3       1 ADP300      0.0000 
      6 O1A       -69.0120   13.5540  -26.4790 O.co2     1 ADP300      0.0000 
      7 O2A       -67.8640   14.2340  -24.2650 O.co2     1 ADP300      0.0000 
      8 O3A       -67.6100   15.6360  -26.2910 O.3       1 ADP300      0.0000 
      9 O5'       -69.7670   15.5500  -25.0860 O.3       1 ADP300      0.0000 
     10 C5'       -70.9480   15.8170  -25.8470 C.3       1 ADP300      0.0000 
     11 C4'       -71.8920   16.6060  -24.9500 C.3       1 ADP300      0.0000 
     12 O4'       -71.2960   17.8660  -24.6460 O.3       1 ADP300      0.0000 
     13 C3'       -73.2090   16.9490  -25.6370 C.3       1 ADP300      0.0000 
     14 O3'       -74.1540   15.8840  -25.4060 O.3       1 ADP300      0.0000 
     15 C2'       -73.6150   18.2230  -24.9480 C.3       1 ADP300      0.0000 
     16 O2'       -74.3770   17.8610  -23.7900 O.3       1 ADP300      0.0000 
     17 C1'       -72.3240   18.8350  -24.4120 C.3       1 ADP300      0.0000 
     18 N9        -72.0020   20.1610  -25.0080 N.pl3     1 ADP300      0.0000 
     19 C8        -71.4280   20.4140  -26.2080 C.2       1 ADP300      0.0000 
     20 N7        -71.3030   21.7570  -26.4040 N.2       1 ADP300      0.0000 
     21 C5        -71.8270   22.3660  -25.3220 C.ar      1 ADP300      0.0000 
     22 C6        -72.0110   23.7560  -24.8720 C.ar      1 ADP300      0.0000 
     23 N6        -71.6470   24.8080  -25.6160 N.pl3     1 ADP300      0.0000 
     24 N1        -72.5940   23.9430  -23.6900 N.ar      1 ADP300      0.0000 
     25 C2        -72.9900   22.9200  -22.9050 C.ar      1 ADP300      0.0000 
     26 N3        -72.8440   21.6320  -23.2540 N.ar      1 ADP300      0.0000 
     27 C4        -72.2770   21.3110  -24.4220 C.ar      1 ADP300      0.0000 
     28 H         -71.4518   14.9032  -26.1478 H         1 ADP300      0.0000 
     29 H         -70.7363   16.4174  -26.7268 H         1 ADP300      0.0000 
     30 H         -72.0979   16.0565  -24.0631 H         1 ADP300      0.0000 
     31 H         -73.0157   17.1374  -26.6502 H         1 ADP300      0.0000 
     32 H         -74.0849   18.8687  -25.5821 H         1 ADP300      0.0000 
     33 H         -72.4632   18.9517  -23.3267 H         1 ADP300      0.0000 
     34 H         -71.1422   19.7338  -26.8464 H         1 ADP300      0.0000 
     35 H         -71.4136   25.6415  -25.1152 H         1 ADP300      0.0000 
     36 H         -71.6411   24.6659  -26.6059 H         1 ADP300      0.0000 
     37 H         -73.4380   23.1470  -21.9674 H         1 ADP300      0.0000 
     38 H         -74.8260   15.9704  -26.1415 H         1 ADP300      0.0000 
     39 H         -74.8774   17.0373  -24.0567 H         1 ADP300      0.0000 
@<TRIPOS>BOND
     1    2    1 ar   
     2    3    1 ar   
     3    4    1 ar   
     4    8    1 1    
     5    6    5 ar   
     6    7    5 ar   
     7    8    5 1    
     8    9    5 1    
     9   10    9 1    
    10   11   10 1    
    11   28   10 1    
    12   29   10 1    
    13   12   11 1    
    14   13   11 1    
    15   30   11 1    
    16   17   12 1    
    17   14   13 1    
    18   15   13 1    
    19   31   13 1    
    20   38   14 1    
    21   16   15 1    
    22   17   15 1    
    23   32   15 1    
    24   39   16 1    
    25   18   17 1    
    26   33   17 1    
    27   19   18 1    
    28   27   18 1    
    29   20   19 2    
    30   34   19 1    
    31   21   20 1    
    32   22   21 ar   
    33   27   21 ar   
    34   23   22 1    
    35   24   22 ar   
    36   35   23 1    
    37   36   23 1    
    38   25   24 ar   
    39   26   25 ar   
    40   37   25 1    
    41   27   26 ar   
@<TRIPOS>SUBSTRUCTURE
     1 ADP300      1 GROUP   
@<TRIPOS>SET

