#    Name: 3OU2_1_CAVITY_N1_6.mol2
#    Modification time : Mon Mar 10 12:30:33 2014

@<TRIPOS>MOLECULE
3OU2_1_CAVITY_N1_6.mol2
   89     0     6     0     0
SMALL
NO_CHARGES


@<TRIPOS>ATOM
      1 CA         50.1729   30.3615    0.4815 C.3       5 GLY6        0.0000 
      2 CA         51.4810   29.6515    0.2950 C.3       5 GLY6        0.0000 
      3 CA         48.4993   30.7720   -0.7557 C.3       5 GLY6        0.0000 
      4 CA         49.8074   30.0620   -0.9421 C.3       5 GLY6        0.0000 
      5 CA         48.1338   30.4725   -2.1793 C.3       5 GLY6        0.0000 
      6 CA         49.4419   29.7624   -2.3657 C.3       5 GLY6        0.0000 
      7 CZ         49.0764   29.4628   -3.7894 C.ar      4 PHE5        0.0000 
      8 CA         50.3845   28.7527   -3.9758 C.3       5 GLY6        0.0000 
      9 CA         50.0189   28.4531   -5.3994 C.3       5 GLY6        0.0000 
     10 CZ         43.3246   30.0951  -10.3481 C.ar      4 PHE5        0.0000 
     11 CZ         44.2672   29.0855  -11.9582 C.ar      4 PHE5        0.0000 
     12 CZ         50.8096   31.6484    0.0472 C.ar      4 PHE5        0.0000 
     13 NZ         52.1177   30.9383   -0.1392 N.2       3 LYS4        0.0000 
     14 O          53.4257   30.2283   -0.3256 O.2       2 ALA2        0.0000 
     15 N          49.1360   32.0589   -1.1900 N.2       2 ALA2        0.0000 
     16 CZ         50.4441   31.3488   -1.3764 C.ar      4 PHE5        0.0000 
     17 CZ         51.7522   30.6388   -1.5628 C.ar      4 PHE5        0.0000 
     18 O          53.0602   29.9287   -1.7492 O.2       2 ALA2        0.0000 
     19 CA         48.7705   31.7593   -2.6136 C.3       5 GLY6        0.0000 
     20 CZ         50.0786   31.0493   -2.8000 C.ar      4 PHE5        0.0000 
     21 CZ         51.3866   30.3392   -2.9864 C.ar      4 PHE5        0.0000 
     22 O          52.6947   29.6291   -3.1729 O.2       2 ALA2        0.0000 
     23 CZ         48.4050   31.4597   -4.0372 C.ar      4 PHE5        0.0000 
     24 CZ         49.7131   30.7497   -4.2236 C.ar      4 PHE5        0.0000 
     25 DU         51.0211   30.0396   -4.4100 H         6 CUB7        0.0000 
     26 NZ         52.3292   29.3295   -4.5965 N.2       3 LYS4        0.0000 
     27 CZ         49.3476   30.4501   -5.6472 C.ar      4 PHE5        0.0000 
     28 NZ         50.6556   29.7400   -5.8336 N.2       3 LYS4        0.0000 
     29 CZ         48.9820   30.1505   -7.0708 C.ar      4 PHE5        0.0000 
     30 NZ         50.2901   29.4404   -7.2573 N.2       3 LYS4        0.0000 
     31 CZ         48.6165   29.8509   -8.4944 C.ar      4 PHE5        0.0000 
     32 OG         43.0188   32.3917   -9.1724 O.2       1 SER1        0.0000 
     33 CZ         43.9613   31.3820  -10.7824 C.ar      4 PHE5        0.0000 
     34 CZ         49.0417   32.7466   -4.4715 C.ar      4 PHE5        0.0000 
     35 CZ         50.3498   32.0365   -4.6579 C.ar      4 PHE5        0.0000 
     36 CZ         51.6578   31.3265   -4.8443 C.ar      4 PHE5        0.0000 
     37 NZ         52.9659   30.6164   -5.0307 N.2       3 LYS4        0.0000 
     38 CZ         48.6762   32.4470   -5.8951 C.ar      4 PHE5        0.0000 
     39 CZ         49.9842   31.7370   -6.0815 C.ar      4 PHE5        0.0000 
     40 CA         51.2923   31.0269   -6.2679 C.3       5 GLY6        0.0000 
     41 CZ         48.3107   32.1475   -7.3187 C.ar      4 PHE5        0.0000 
     42 DU         49.6187   31.4374   -7.5051 H         6 CUB7        0.0000 
     43 NZ         50.9268   30.7273   -7.6915 N.2       3 LYS4        0.0000 
     44 CZ         47.9452   31.8479   -8.7423 C.ar      4 PHE5        0.0000 
     45 CZ         49.2532   31.1378   -8.9287 C.ar      4 PHE5        0.0000 
     46 CA         50.5613   30.4277   -9.1151 C.3       5 GLY6        0.0000 
     47 OG         43.6554   33.6785   -9.6067 O.2       1 SER1        0.0000 
     48 OG         44.9635   32.9685   -9.7931 O.2       1 SER1        0.0000 
     49 OG         46.2716   32.2584   -9.9795 O.2       1 SER1        0.0000 
     50 OG         47.5796   31.5483  -10.1659 O.2       1 SER1        0.0000 
     51 CZ         50.1958   30.1281  -10.5387 C.ar      4 PHE5        0.0000 
     52 CZ         44.5980   32.6689  -11.2167 C.ar      4 PHE5        0.0000 
     53 CZ         45.9061   31.9588  -11.4031 C.ar      4 PHE5        0.0000 
     54 CZ         44.2325   32.3693  -12.6403 C.ar      4 PHE5        0.0000 
     55 CZ         45.5406   31.6592  -12.8267 C.ar      4 PHE5        0.0000 
     56 CZ         50.6209   33.0238   -6.5158 C.ar      4 PHE5        0.0000 
     57 N          48.9473   33.4343   -7.7530 N.2       2 ALA2        0.0000 
     58 CA         50.2554   32.7243   -7.9394 C.3       5 GLY6        0.0000 
     59 N          51.5635   32.0142   -8.1258 N.2       2 ALA2        0.0000 
     60 N          44.6576   35.2650   -8.6173 N.2       2 ALA2        0.0000 
     61 N          47.2738   33.8448   -8.9902 N.2       2 ALA2        0.0000 
     62 N          48.5818   33.1348   -9.1766 N.2       2 ALA2        0.0000 
     63 OG         49.8899   32.4247   -9.3630 O.2       1 SER1        0.0000 
     64 N          51.1980   31.7146   -9.5494 N.2       2 ALA2        0.0000 
     65 OG         44.2921   34.9654  -10.0409 O.2       1 SER1        0.0000 
     66 OG         45.6002   34.2553  -10.2273 O.2       1 SER1        0.0000 
     67 OG         46.9083   33.5452  -10.4138 O.2       1 SER1        0.0000 
     68 OG         50.8325   31.4150  -10.9730 O.2       1 SER1        0.0000 
     69 CA         52.1405   30.7049  -11.1594 C.3       5 GLY6        0.0000 
     70 OG         45.2347   33.9557  -11.6510 O.2       1 SER1        0.0000 
     71 OG         46.5428   33.2457  -11.8374 O.2       1 SER1        0.0000 
     72 CA         51.7750   30.4054  -12.5830 C.3       5 GLY6        0.0000 
     73 CZ         44.8692   33.6562  -13.0746 C.ar      4 PHE5        0.0000 
     74 N          50.8921   34.0111   -8.3737 N.2       2 ALA2        0.0000 
     75 N          45.2943   36.5519   -9.0516 N.2       2 ALA2        0.0000 
     76 N          46.6024   35.8418   -9.2380 N.2       2 ALA2        0.0000 
     77 CA         49.2185   34.4216   -9.6108 C.3       5 GLY6        0.0000 
     78 N          50.5266   33.7115   -9.7973 N.2       2 ALA2        0.0000 
     79 N          51.8347   33.0015   -9.9837 N.2       2 ALA2        0.0000 
     80 CA         46.2369   35.5422  -10.6616 C.3       5 GLY6        0.0000 
     81 CA         48.8530   34.1220  -11.0345 C.3       5 GLY6        0.0000 
     82 OG         50.1611   33.4120  -11.2209 O.2       1 SER1        0.0000 
     83 N          51.4691   32.7019  -11.4073 N.2       2 ALA2        0.0000 
     84 N          52.7772   31.9918  -11.5937 N.2       2 ALA2        0.0000 
     85 CA         45.8714   35.2426  -12.0852 C.3       5 GLY6        0.0000 
     86 CA         47.1794   34.5325  -12.2716 C.3       5 GLY6        0.0000 
     87 OG         51.1036   32.4023  -12.8309 O.2       1 SER1        0.0000 
     88 CA         52.4117   31.6922  -13.0173 C.3       5 GLY6        0.0000 
     89 CZ         45.5059   34.9430  -13.5088 C.ar      4 PHE5        0.0000 
@<TRIPOS>BOND
@<TRIPOS>SUBSTRUCTURE
     1 SER1       32 GROUP   
     2 ALA2       14 GROUP   
     3 LYS4       13 GROUP   
     4 PHE5        7 GROUP   
     5 GLY6        1 GROUP   
     6 CUB7       25 GROUP   
@<TRIPOS>SET

