#    Name: 3ou2_SAH_1_INTS_M
#    Modification time : Tue Mar 25 05:17:27 2014

@<TRIPOS>MOLECULE
3ou2_SAH_1_INTS_M
   87     0     9     0     0
SMALL
NO_CHARGES


@<TRIPOS>ATOM
      1 O          53.4985   32.6520  -10.2110 O.2       1 ALC1        0.0000 
      2 O          52.8670   33.3130  -11.2060 O.2       7 ALL1        0.0000 
      3 O          54.1300   31.9910   -9.2160 O.2       4 ALP1        0.0000 
      4 O          52.4345   34.6175  -10.8355 O.2       1 ALC1        0.0000 
      5 O          52.0020   35.9220  -10.4650 O.2       4 ALP1        0.0000 
      6 O          54.1645   33.8655  -11.1070 O.2       1 ALC1        0.0000 
      7 O          55.4620   34.4180  -11.0080 O.2       4 ALP1        0.0000 
      8 CA         52.8545   33.1740  -13.4675 C.3       3 GLC5        0.0000 
      9 CA         52.0320   32.2630  -11.7790 C.3       9 GLL5        0.0000 
     10 CA         53.6770   34.0850  -15.1560 C.3       6 GLP5        0.0000 
     11 CA         49.5255   34.6380  -10.4385 C.3       3 GLC5        0.0000 
     12 CA         50.1210   32.6410  -10.0670 C.3       9 GLL5        0.0000 
     13 CA         48.9300   36.6350  -10.8100 C.3       6 GLP5        0.0000 
     14 CA         47.2880   30.9630   -8.5245 C.3       3 GLC5        0.0000 
     15 CA         48.8080   31.7880   -9.2280 C.3       9 GLL5        0.0000 
     16 CA         45.7680   30.1380   -7.8210 C.3       6 GLP5        0.0000 
     17 CA         47.9130   30.7175  -10.4990 C.3       3 GLC5        0.0000 
     18 CA         47.0180   29.6470  -11.7700 C.3       6 GLP5        0.0000 
     19 N          49.4990   31.7545  -13.1700 N.am      2 SEC2        0.0000 
     20 N          50.7450   31.9670  -13.7310 N.am      8 SEL2        0.0000 
     21 N          48.2530   31.5420  -12.6090 N.am      5 SEP2        0.0000 
     22 N          51.8460   34.4180  -14.3010 N.am      2 SEC2        0.0000 
     23 N          51.1380   34.0370  -13.0990 N.am      8 SEL2        0.0000 
     24 N          52.5540   34.7990  -15.5030 N.am      5 SEP2        0.0000 
     25 CA         47.4510   31.4955   -7.1940 C.3       3 GLC5        0.0000 
     26 CA         49.2950   31.8750   -7.5250 C.3       9 GLL5        0.0000 
     27 CA         45.6070   31.1160   -6.8630 C.3       6 GLP5        0.0000 
     28 CA         48.5405   33.7465   -6.6915 C.3       3 GLC5        0.0000 
     29 CA         47.7860   35.6180   -5.8580 C.3       6 GLP5        0.0000 
     30 CA         52.2300   32.0515   -6.9170 C.3       3 GLC5        0.0000 
     31 CA         50.5460   31.0690   -7.1690 C.3       9 GLL5        0.0000 
     32 CA         53.9140   33.0340   -6.6650 C.3       6 GLP5        0.0000 
     33 CA         48.5505   29.1410   -6.6795 C.3       3 GLC5        0.0000 
     34 CA         50.2850   29.5630   -7.1930 C.3       9 GLL5        0.0000 
     35 CA         46.8160   28.7190   -6.1660 C.3       6 GLP5        0.0000 
     36 CA         51.6700   28.8915   -8.8190 C.3       3 GLC5        0.0000 
     37 CA         53.0550   28.2200  -10.4450 C.3       6 GLP5        0.0000 
     38 CA         49.6015   28.0420   -8.3460 C.3       3 GLC5        0.0000 
     39 CA         48.9180   26.5210   -9.4990 C.3       6 GLP5        0.0000 
     40 O          52.5565   28.8845   -7.5350 O.2       1 ALC1        0.0000 
     41 O          51.2760   28.8790   -7.9740 O.2       7 ALL1        0.0000 
     42 O          53.8370   28.8900   -7.0960 O.2       4 ALP1        0.0000 
     43 O          52.3390   27.9990   -6.9295 O.2       1 ALC1        0.0000 
     44 O          53.4020   27.1190   -5.8850 O.2       4 ALP1        0.0000 
     45 CA         48.8910   28.2760   -5.7610 C.3       3 GLC5        0.0000 
     46 CA         50.3500   29.1610   -5.7280 C.3       9 GLL5        0.0000 
     47 CA         47.4320   27.3910   -5.7940 C.3       6 GLP5        0.0000 
     48 O          52.1190   27.4795   -5.6925 O.2       1 ALC1        0.0000 
     49 O          50.8360   27.8400   -5.5000 O.2       7 ALL1        0.0000 
     50 CA         52.6000   31.6125   -5.9035 C.3       3 GLC5        0.0000 
     51 CA         51.2860   30.1910   -5.1420 C.3       9 GLL5        0.0000 
     52 CA         51.3325   32.0685   -4.1275 C.3       3 GLC5        0.0000 
     53 CA         51.3790   33.9460   -3.1130 C.3       6 GLP5        0.0000 
     54 N          49.6705   31.1775   -0.4850 N.am      2 SEC2        0.0000 
     55 N          50.2290   30.7960   -1.7200 N.am      8 SEL2        0.0000 
     56 N          49.1120   31.5590    0.7500 N.am      5 SEP2        0.0000 
     57 CA         54.1855   30.0845    0.6010 C.3       3 GLC5        0.0000 
     58 CA         52.4250   30.8070   -0.4750 C.3       9 GLL5        0.0000 
     59 CA         55.9460   29.3620    1.6770 C.3       6 GLP5        0.0000 
     60 O          52.9755   30.9910    1.8790 O.2       1 ALC1        0.0000 
     61 O          51.9610   31.0490    0.7700 O.2       7 ALL1        0.0000 
     62 O          53.9900   30.9330    2.9880 O.2       4 ALP1        0.0000 
     63 O          50.5365   31.3040    0.7600 O.2       1 ALC1        0.0000 
     64 O          49.1120   31.5590    0.7500 O.2       4 ALP1        0.0000 
     65 N          54.8865   31.1485    0.0720 N.am      2 SEC2        0.0000 
     66 N          53.7490   30.6700   -0.6890 N.am      8 SEL2        0.0000 
     67 N          56.0240   31.6270    0.8330 N.am      5 SEP2        0.0000 
     68 CA         55.2895   29.3035   -3.5320 C.3       3 GLC5        0.0000 
     69 CA         54.2300   30.4260   -1.9130 C.3       9 GLL5        0.0000 
     70 CA         56.3490   28.1810   -5.1510 C.3       6 GLP5        0.0000 
     71 CA         54.3385   28.6920   -2.0060 C.3       3 GLC5        0.0000 
     72 CA         54.4470   26.9580   -2.0990 C.3       6 GLP5        0.0000 
     73 CA         55.0880   29.8940   -0.1180 C.3       3 GLC5        0.0000 
     74 CA         55.4245   31.7455   -1.9000 C.3       3 GLC5        0.0000 
     75 CA         56.6190   33.0650   -1.8870 C.3       6 GLP5        0.0000 
     76 N          54.1550   28.9975   -3.1440 N.am      2 SEC2        0.0000 
     77 N          53.4360   30.3240   -2.9870 N.am      8 SEL2        0.0000 
     78 N          54.8740   27.6710   -3.3010 N.am      5 SEP2        0.0000 
     79 CA         53.2750   28.7110   -2.4595 C.3       3 GLC5        0.0000 
     80 CA         52.1030   30.4640   -2.8200 C.3       9 GLL5        0.0000 
     81 CA         52.3100   30.0885  -10.8478 C.3       3 GLC5        0.0000 
     82 CA         51.0980   31.6510  -10.7220 C.3       9 GLL5        0.0000 
     83 CA         49.2503   31.1795  -11.5452 C.3       3 GLC5        0.0000 
     84 CA         47.8910   30.2130  -12.6960 C.3       6 GLP5        0.0000 
     85 CA         51.3783   28.8133   -1.8289 C.3       3 GLC5        0.0000 
     86 CA         51.5670   30.7110   -1.5680 C.3       9 GLL5        0.0000 
     87 CA         50.7070   27.0150   -1.7370 C.3       6 GLP5        0.0000 
@<TRIPOS>BOND
@<TRIPOS>SUBSTRUCTURE
     1 ALC1        1 GROUP        1 X    ALC  0     ROOT ALC X 1
     2 SEC2       19 GROUP        1 X    SEC  0     **** SEC X 2
     3 GLC5        8 GROUP        1 X    GLC  0     **** GLC X 6
     4 ALP1        3 GROUP        1 Y    ALP  0     ROOT ALP Y 8
     5 SEP2       21 GROUP        1 Y    SEP  0     **** SEP Y 9
     6 GLP5       10 GROUP        1 Y    GLP  0     **** GLP Y 13
     7 ALL1        2 GROUP        1 Z    ALL  0     ROOT ALL Z 15
     8 SEL2       20 GROUP        1 Z    SEL  0     **** SEL Z 16
     9 GLL5        9 GROUP        1 Z    GLL  0     **** GLL Z 20
@<TRIPOS>SET

