#    Name: 3ou2_SAH_1_ligand
#    Modification time : Tue Mar 25 05:17:27 2014

@<TRIPOS>MOLECULE
3ou2_SAH_1_ligand
   46    48     1     0     0
SMALL
NO_CHARGES


@<TRIPOS>ATOM
      1 N          52.8670   33.3130  -11.2060 N.4       1 SAH300      0.0000 
      2 CA         52.0320   32.2630  -11.7790 C.3       1 SAH300      0.0000 
      3 CB         51.0980   31.6510  -10.7220 C.3       1 SAH300      0.0000 
      4 CG         50.1210   32.6410  -10.0670 C.3       1 SAH300      0.0000 
      5 SD         48.8080   31.7880   -9.2280 S.3       1 SAH300      0.0000 
      6 C          51.2520   32.7980  -12.9500 C.2       1 SAH300      0.0000 
      7 O          50.7450   31.9670  -13.7310 O.co2     1 SAH300      0.0000 
      8 OXT        51.1380   34.0370  -13.0990 O.co2     1 SAH300      0.0000 
      9 C5'        49.2950   31.8750   -7.5250 C.3       1 SAH300      0.0000 
     10 C4'        50.5460   31.0690   -7.1690 C.3       1 SAH300      0.0000 
     11 O4'        50.9110   31.3960   -5.8260 O.3       1 SAH300      0.0000 
     12 C3'        50.2850   29.5630   -7.1930 C.3       1 SAH300      0.0000 
     13 O3'        51.2760   28.8790   -7.9740 O.3       1 SAH300      0.0000 
     14 C2'        50.3500   29.1610   -5.7280 C.3       1 SAH300      0.0000 
     15 O2'        50.8360   27.8400   -5.5000 O.3       1 SAH300      0.0000 
     16 C1'        51.2860   30.1910   -5.1420 C.3       1 SAH300      0.0000 
     17 N9         51.0990   30.4060   -3.6940 N.pl3     1 SAH300      0.0000 
     18 C8         49.9550   30.6140   -3.0310 C.2       1 SAH300      0.0000 
     19 N7         50.2290   30.7960   -1.7200 N.2       1 SAH300      0.0000 
     20 C5         51.5670   30.7110   -1.5680 C.ar      1 SAH300      0.0000 
     21 C6         52.4250   30.8070   -0.4750 C.ar      1 SAH300      0.0000 
     22 N6         51.9610   31.0490    0.7700 N.pl3     1 SAH300      0.0000 
     23 N1         53.7490   30.6700   -0.6890 N.ar      1 SAH300      0.0000 
     24 C2         54.2300   30.4260   -1.9130 C.ar      1 SAH300      0.0000 
     25 N3         53.4360   30.3240   -2.9870 N.ar      1 SAH300      0.0000 
     26 C4         52.1030   30.4640   -2.8200 C.ar      1 SAH300      0.0000 
     27 H          52.6754   31.4515  -12.1485 H         1 SAH300      0.0000 
     28 H          51.7138   31.1850   -9.9318 H         1 SAH300      0.0000 
     29 H          50.5167   30.8368  -11.1911 H         1 SAH300      0.0000 
     30 H          49.6073   33.2485  -10.7784 H         1 SAH300      0.0000 
     31 H          50.5742   33.2204   -9.2938 H         1 SAH300      0.0000 
     32 H          48.4118   31.5300   -6.9971 H         1 SAH300      0.0000 
     33 H          49.4228   32.9397   -7.3583 H         1 SAH300      0.0000 
     34 H          51.3257   31.3011   -7.8496 H         1 SAH300      0.0000 
     35 H          49.2914   29.4073   -7.5397 H         1 SAH300      0.0000 
     36 H          49.3779   29.3356   -5.2984 H         1 SAH300      0.0000 
     37 H          52.2847   29.9310   -5.3776 H         1 SAH300      0.0000 
     38 H          49.0656   30.6326   -3.4228 H         1 SAH300      0.0000 
     39 H          51.1111   31.5727    0.8288 H         1 SAH300      0.0000 
     40 H          52.5085   30.6829    1.5225 H         1 SAH300      0.0000 
     41 H          55.2773   30.3090   -2.0386 H         1 SAH300      0.0000 
     42 H          53.0616   33.1467  -10.2393 H         1 SAH300      0.0000 
     43 H          53.7477   33.3841  -11.6743 H         1 SAH300      0.0000 
     44 H          52.4294   34.2101  -11.2667 H         1 SAH300      0.0000 
     45 H          52.1351   29.0186   -7.4815 H         1 SAH300      0.0000 
     46 H          51.7992   27.8690   -5.7672 H         1 SAH300      0.0000 
@<TRIPOS>BOND
     1    2    1 1    
     2   42    1 1    
     3   43    1 1    
     4   44    1 1    
     5    3    2 1    
     6    6    2 1    
     7   27    2 1    
     8    4    3 1    
     9   28    3 1    
    10   29    3 1    
    11    5    4 1    
    12   30    4 1    
    13   31    4 1    
    14    9    5 1    
    15    7    6 ar   
    16    8    6 ar   
    17   10    9 1    
    18   32    9 1    
    19   33    9 1    
    20   11   10 1    
    21   12   10 1    
    22   34   10 1    
    23   16   11 1    
    24   13   12 1    
    25   14   12 1    
    26   35   12 1    
    27   45   13 1    
    28   15   14 1    
    29   16   14 1    
    30   36   14 1    
    31   46   15 1    
    32   17   16 1    
    33   37   16 1    
    34   18   17 1    
    35   26   17 1    
    36   19   18 2    
    37   38   18 1    
    38   20   19 1    
    39   21   20 ar   
    40   26   20 ar   
    41   22   21 1    
    42   23   21 ar   
    43   39   22 1    
    44   40   22 1    
    45   24   23 ar   
    46   25   24 ar   
    47   41   24 1    
    48   26   25 ar   
@<TRIPOS>SUBSTRUCTURE
     1 SAH300      1 GROUP   
@<TRIPOS>SET

