#    Name: 1cm8_ANP_1_INTS_M
#    Modification time : Mon Mar 24 20:49:23 2014

@<TRIPOS>MOLECULE
1cm8_ANP_1_INTS_M
   74     0    18     0     0
SMALL
NO_CHARGES


@<TRIPOS>ATOM
      1 NZ         41.7005   79.2575   10.8150 N.4       4 LYC4        0.0000 
      2 NZ         42.8040   78.4460    9.6880 N.4      16 LYL4        0.0000 
      3 NZ         40.5970   80.0690   11.9420 N.4      10 LYP4        0.0000 
      4 Zn         42.3265   77.9390    8.8970 Zn        5 ZIC7        0.0000 
      5 Zn         42.8040   78.4460    9.6880 Zn       17 ZIL7        0.0000 
      6 Zn         41.8490   77.4320    8.1060 Zn       11 ZIP7        0.0000 
      7 Zn         46.2155   77.8270    9.6145 Zn        5 ZIC7        0.0000 
      8 Zn         45.4150   78.7940    9.6220 Zn       17 ZIL7        0.0000 
      9 Zn         47.0160   76.8600    9.6070 Zn       11 ZIP7        0.0000 
     10 NZ         46.2520   80.2815    3.9850 N.4       4 LYC4        0.0000 
     11 NZ         45.3570   79.5200    5.5230 N.4      16 LYL4        0.0000 
     12 NZ         47.1470   81.0430    2.4470 N.4      10 LYP4        0.0000 
     13 NZ         46.7400   76.3750    6.5140 N.4       4 LYC4        0.0000 
     14 NZ         46.4440   77.8450    7.2740 N.4      16 LYL4        0.0000 
     15 NZ         47.0360   74.9050    5.7540 N.4      10 LYP4        0.0000 
     16 Zn         46.7300   77.3525    8.4405 Zn        5 ZIC7        0.0000 
     17 Zn         46.4440   77.8450    7.2740 Zn       17 ZIL7        0.0000 
     18 N          46.7400   76.3750    6.5140 N.am      2 SEC2        0.0000 
     19 N          46.4440   77.8450    7.2740 N.am     14 SEL2        0.0000 
     20 N          47.0360   74.9050    5.7540 N.am      8 SEP2        0.0000 
     21 OD1        44.1690   77.3465    8.2615 O.co2     3 ASC3        0.0000 
     22 OD1        44.0260   78.5470    7.4170 O.co2    15 ASL3        0.0000 
     23 OD1        44.3120   76.1460    9.1060 O.co2     9 ASP3        0.0000 
     24 NZ         45.6270   74.8125    5.3555 N.4       4 LYC4        0.0000 
     25 NZ         44.2180   74.7200    4.9570 N.4      16 LYL4        0.0000 
     26 N          45.6270   74.8125    5.3555 N.am      2 SEC2        0.0000 
     27 N          44.2180   74.7200    4.9570 N.am     14 SEL2        0.0000 
     28 Zn         42.4155   76.7345    7.4065 Zn        5 ZIC7        0.0000 
     29 Zn         42.9820   76.0370    6.7070 Zn       17 ZIL7        0.0000 
     30 O          38.5350   76.8275    5.9835 O.2       1 ALC1        0.0000 
     31 O          38.6090   77.6300    4.7450 O.2      13 ALL1        0.0000 
     32 O          38.4610   76.0250    7.2220 O.2       7 ALP1        0.0000 
     33 O          36.9630   77.3495    3.1630 O.2       1 ALC1        0.0000 
     34 O          37.9970   76.9210    2.1710 O.2      13 ALL1        0.0000 
     35 O          35.9290   77.7780    4.1550 O.2       7 ALP1        0.0000 
     36 CA         40.1940   76.9860    0.0930 C.3       6 GLC5        0.0000 
     37 CA         40.0710   75.9510    1.9950 C.3      18 GLL5        0.0000 
     38 CA         40.3170   78.0210   -1.8090 C.3      12 GLP5        0.0000 
     39 CA         41.7525   76.0000    0.6995 C.3       6 GLC5        0.0000 
     40 CA         43.4340   76.0490   -0.5960 C.3      12 GLP5        0.0000 
     41 CA         39.6750   70.7425   -1.7295 C.3       6 GLC5        0.0000 
     42 CA         40.3430   71.5340    0.2490 C.3      18 GLL5        0.0000 
     43 CA         39.0070   69.9510   -3.7080 C.3      12 GLP5        0.0000 
     44 CA         38.6335   70.2630    0.3210 C.3       6 GLC5        0.0000 
     45 CA         36.9240   68.9920    0.3930 C.3      12 GLP5        0.0000 
     46 O          40.8190   69.5170   -0.8485 O.2       1 ALC1        0.0000 
     47 O          41.1300   70.3700    0.2150 O.2      13 ALL1        0.0000 
     48 O          40.5080   68.6640   -1.9120 O.2       7 ALP1        0.0000 
     49 N          38.3645   70.7565   -1.1180 N.am      2 SEC2        0.0000 
     50 N          39.2050   71.6890   -0.4350 N.am     14 SEL2        0.0000 
     51 N          37.5240   69.8240   -1.8010 N.am      8 SEP2        0.0000 
     52 CA         40.4090   72.4785   -1.3965 C.3       6 GLC5        0.0000 
     53 CA         38.4260   72.7750   -0.4240 C.3      18 GLL5        0.0000 
     54 CA         42.3920   72.1820   -2.3690 C.3      12 GLP5        0.0000 
     55 CA         38.7165   71.3630   -2.0660 C.3       6 GLC5        0.0000 
     56 CA         37.4325   71.0315   -0.7195 C.3       6 GLC5        0.0000 
     57 CA         36.4390   69.2880   -1.0150 C.3      12 GLP5        0.0000 
     58 CA         39.6460   73.0995    2.8520 C.3       6 GLC5        0.0000 
     59 CA         39.8520   73.7740    0.9920 C.3      18 GLL5        0.0000 
     60 CA         39.4400   72.4250    4.7120 C.3      12 GLP5        0.0000 
     61 CA         42.9115   77.3240    2.6725 C.3       6 GLC5        0.0000 
     62 CA         40.6420   77.7200    3.4270 C.3      18 GLL5        0.0000 
     63 CA         44.5870   76.8590    1.4480 C.3      12 GLP5        0.0000 
     64 CA         37.3800   76.0360    4.2517 C.3       6 GLC5        0.0000 
     65 CA         39.5600   76.8220    4.0490 C.3      18 GLL5        0.0000 
     66 CA         35.5490   75.6120    5.0340 C.3      12 GLP5        0.0000 
     67 CA         39.5405   74.3152    3.7221 C.3       6 GLC5        0.0000 
     68 CA         38.8620   76.0980    2.8900 C.3      18 GLL5        0.0000 
     69 CA         41.4685   72.1230   -0.8658 C.3       6 GLC5        0.0000 
     70 CA         40.7470   72.5940    1.0260 C.3      18 GLL5        0.0000 
     71 CA         42.3020   71.5220    1.0657 C.3       6 GLC5        0.0000 
     72 CA         44.0590   70.9800    1.4940 C.3      12 GLP5        0.0000 
     73 CA         40.6860   71.2155    2.4247 C.3       6 GLC5        0.0000 
     74 CA         40.8270   70.3670    4.2120 C.3      12 GLP5        0.0000 
@<TRIPOS>BOND
@<TRIPOS>SUBSTRUCTURE
     1 ALC1       30 GROUP        1 X    ALC  0     ROOT ALC X 1
     2 SEC2       18 GROUP        1 X    SEC  0     **** SEC X 2
     3 ASC3       21 GROUP        1 X    ASC  0     **** ASC X 3
     4 LYC4        1 GROUP        1 X    LYC  0     **** LYC X 4
     5 ZIC7        4 GROUP        1 X    ZIC  0     **** ZIC X 5
     6 GLC5       36 GROUP        1 X    GLC  0     **** GLC X 6
     7 ALP1       32 GROUP        1 Y    ALP  0     ROOT ALP Y 8
     8 SEP2       20 GROUP        1 Y    SEP  0     **** SEP Y 9
     9 ASP3       23 GROUP        1 Y    ASP  0     **** ASP Y 10
    10 LYP4        3 GROUP        1 Y    LYP  0     **** LYP Y 11
    11 ZIP7        6 GROUP        1 Y    ZIP  0     **** ZIP Y 12
    12 GLP5       38 GROUP        1 Y    GLP  0     **** GLP Y 13
    13 ALL1       31 GROUP        1 Z    ALL  0     ROOT ALL Z 15
    14 SEL2       19 GROUP        1 Z    SEL  0     **** SEL Z 16
    15 ASL3       22 GROUP        1 Z    ASL  0     **** ASL Z 17
    16 LYL4        2 GROUP        1 Z    LYL  0     **** LYL Z 18
    17 ZIL7        5 GROUP        1 Z    ZIL  0     **** ZIL Z 19
    18 GLL5       37 GROUP        1 Z    GLL  0     **** GLL Z 20
@<TRIPOS>SET

