#    Name: 1cm8_ANP_1_ligand
#    Modification time : Mon Mar 24 20:49:23 2014

@<TRIPOS>MOLECULE
1cm8_ANP_1_ligand
   43    45     1     0     0
SMALL
NO_CHARGES


@<TRIPOS>ATOM
      1 PG         44.0370   79.0540    8.8610 P.3       1 ANP400      0.0000 
      2 O1G        43.8710   80.6030    8.7970 O.co2     1 ANP400      0.0000 
      3 O2G        42.8040   78.4460    9.6880 O.co2     1 ANP400      0.0000 
      4 O3G        45.4150   78.7940    9.6220 O.co2     1 ANP400      0.0000 
      5 PB         45.2070   78.2850    6.4710 P.3       1 ANP400      0.0000 
      6 O1B        45.3570   79.5200    5.5230 O.co2     1 ANP400      0.0000 
      7 O2B        46.4440   77.8450    7.2740 O.co2     1 ANP400      0.0000 
      8 N3B        44.0260   78.5470    7.4170 N.4       1 ANP400      0.0000 
      9 PA         43.6360   76.1220    5.3590 P.3       1 ANP400      0.0000 
     10 O1A        44.2180   74.7200    4.9570 O.co2     1 ANP400      0.0000 
     11 O2A        42.9820   76.0370    6.7070 O.co2     1 ANP400      0.0000 
     12 O3A        44.8790   77.2260    5.3330 O.3       1 ANP400      0.0000 
     13 O5'        42.5200   76.5560    4.3020 O.3       1 ANP400      0.0000 
     14 C5'        41.8300   77.8580    4.3670 C.3       1 ANP400      0.0000 
     15 C4'        40.6420   77.7200    3.4270 C.3       1 ANP400      0.0000 
     16 O4'        41.0360   76.9440    2.2980 O.3       1 ANP400      0.0000 
     17 C3'        39.5600   76.8220    4.0490 C.3       1 ANP400      0.0000 
     18 O3'        38.6090   77.6300    4.7450 O.3       1 ANP400      0.0000 
     19 C2'        38.8620   76.0980    2.8900 C.3       1 ANP400      0.0000 
     20 O2'        37.9970   76.9210    2.1710 O.3       1 ANP400      0.0000 
     21 C1'        40.0710   75.9510    1.9950 C.3       1 ANP400      0.0000 
     22 N9         40.4750   74.6510    1.7730 N.pl3     1 ANP400      0.0000 
     23 C8         41.6460   74.0920    2.2670 C.2       1 ANP400      0.0000 
     24 N7         41.8380   72.8230    1.8290 N.2       1 ANP400      0.0000 
     25 C5         40.7470   72.5940    1.0260 C.ar      1 ANP400      0.0000 
     26 C6         40.3430   71.5340    0.2490 C.ar      1 ANP400      0.0000 
     27 N6         41.1300   70.3700    0.2150 N.pl3     1 ANP400      0.0000 
     28 N1         39.2050   71.6890   -0.4350 N.ar      1 ANP400      0.0000 
     29 C2         38.4260   72.7750   -0.4240 C.ar      1 ANP400      0.0000 
     30 N3         38.6990   73.8760    0.2830 N.ar      1 ANP400      0.0000 
     31 C4         39.8520   73.7740    0.9920 C.ar      1 ANP400      0.0000 
     32 H          42.4650   78.6467    4.0158 H         1 ANP400      0.0000 
     33 H          41.4718   78.0533    5.3580 H         1 ANP400      0.0000 
     34 H          40.2344   78.6303    3.1703 H         1 ANP400      0.0000 
     35 H          40.0282   76.1037    4.6671 H         1 ANP400      0.0000 
     36 H          38.5426   75.1844    3.1751 H         1 ANP400      0.0000 
     37 H          39.6073   76.3246    0.9478 H         1 ANP400      0.0000 
     38 H          42.2564   74.5762    2.8664 H         1 ANP400      0.0000 
     39 H          40.7975   69.6310   -0.3709 H         1 ANP400      0.0000 
     40 H          41.9553   70.3802    0.7796 H         1 ANP400      0.0000 
     41 H          37.5326   72.7624   -1.0150 H         1 ANP400      0.0000 
     42 H          38.2849   77.0574    5.4980 H         1 ANP400      0.0000 
     43 H          37.3021   77.2056    2.8314 H         1 ANP400      0.0000 
@<TRIPOS>BOND
     1    2    1 ar   
     2    3    1 ar   
     3    4    1 ar   
     4    8    1 1    
     5    6    5 ar   
     6    7    5 ar   
     7    8    5 1    
     8   12    5 1    
     9   10    9 ar   
    10   11    9 ar   
    11   12    9 1    
    12   13    9 1    
    13   14   13 1    
    14   15   14 1    
    15   32   14 1    
    16   33   14 1    
    17   16   15 1    
    18   17   15 1    
    19   34   15 1    
    20   21   16 1    
    21   18   17 1    
    22   19   17 1    
    23   35   17 1    
    24   42   18 1    
    25   20   19 1    
    26   21   19 1    
    27   36   19 1    
    28   43   20 1    
    29   22   21 1    
    30   37   21 1    
    31   23   22 1    
    32   31   22 1    
    33   24   23 2    
    34   38   23 1    
    35   25   24 1    
    36   26   25 ar   
    37   31   25 ar   
    38   27   26 1    
    39   28   26 ar   
    40   39   27 1    
    41   40   27 1    
    42   29   28 ar   
    43   30   29 ar   
    44   41   29 1    
    45   31   30 ar   
@<TRIPOS>SUBSTRUCTURE
     1 ANP400      1 GROUP   
@<TRIPOS>SET

