#    Name: 3gue_UPG_1_INTS_M
#    Modification time : Tue Mar 25 12:59:32 2014

@<TRIPOS>MOLECULE
3gue_UPG_1_INTS_M
   86     0    12     0     0
SMALL
NO_CHARGES


@<TRIPOS>ATOM
      1 O          31.7280   -4.0380    5.2905 O.2       1 ALC1        0.0000 
      2 O          30.8110   -3.8860    4.2860 O.2       9 ALL1        0.0000 
      3 O          32.6450   -4.1900    6.2950 O.2       5 ALP1        0.0000 
      4 CA         30.0090   -6.0390    2.2400 C.3       4 GLC5        0.0000 
      5 CA         30.3050   -4.1890    1.9580 C.3      12 GLL5        0.0000 
      6 CA         29.7130   -7.8890    2.5220 C.3       8 GLP5        0.0000 
      7 N          31.0035   -1.0465    5.4725 N.am      2 SEC2        0.0000 
      8 N          30.0920   -2.0920    5.4390 N.am     10 SEL2        0.0000 
      9 N          31.9150   -0.0010    5.5060 N.am      6 SEP2        0.0000 
     10 N          32.0050   -6.0405    4.8060 N.am      2 SEC2        0.0000 
     11 N          31.5910   -5.6710    3.1880 N.am     10 SEL2        0.0000 
     12 N          32.4190   -6.4100    6.4240 N.am      6 SEP2        0.0000 
     13 N          31.3420   -7.0320    2.9430 N.am      2 SEC2        0.0000 
     14 N          31.0930   -8.3930    2.6980 N.am      6 SEP2        0.0000 
     15 CA         27.7620   -0.5750    4.8065 C.3       4 GLC5        0.0000 
     16 CA         28.7260   -0.9520    3.1900 C.3      12 GLL5        0.0000 
     17 CA         26.7980   -0.1980    6.4230 C.3       8 GLP5        0.0000 
     18 CA         27.3910   -2.5475    2.7145 C.3       4 GLC5        0.0000 
     19 CA         26.0560   -4.1430    2.2390 C.3       8 GLP5        0.0000 
     20 N          31.2915    0.0550    2.6675 N.am      2 SEC2        0.0000 
     21 N          30.1060    0.9090    2.4150 N.am     10 SEL2        0.0000 
     22 N          32.4770   -0.7990    2.9200 N.am      6 SEP2        0.0000 
     23 N          26.8150    2.6935    4.0650 N.am      2 SEC2        0.0000 
     24 N          27.7710    1.7340    3.4230 N.am     10 SEL2        0.0000 
     25 N          25.8590    3.6530    4.7070 N.am      6 SEP2        0.0000 
     26 NZ         25.2735    0.9485   -1.4810 N.4       3 LYC4        0.0000 
     27 NZ         26.6010    0.5200   -1.4080 N.4      11 LYL4        0.0000 
     28 NZ         23.9460    1.3770   -1.5540 N.4       7 LYP4        0.0000 
     29 N          24.5140   -0.0555   -1.5855 N.am      2 SEC2        0.0000 
     30 N          25.0820   -1.4880   -1.6170 N.am     10 SEL2        0.0000 
     31 N          23.9460    1.3770   -1.5540 N.am      6 SEP2        0.0000 
     32 N          25.1260   -4.2715    0.1435 N.am      2 SEC2        0.0000 
     33 N          25.1730   -3.9420   -1.0930 N.am     10 SEL2        0.0000 
     34 N          25.0790   -4.6010    1.3800 N.am      6 SEP2        0.0000 
     35 CA         19.3225   -4.7290   -2.8155 C.3       4 GLC5        0.0000 
     36 CA         20.4280   -3.6950   -1.3700 C.3      12 GLL5        0.0000 
     37 CA         18.2170   -5.7630   -4.2610 C.3       8 GLP5        0.0000 
     38 CA         18.2720    0.3350   -0.0630 C.3       4 GLC5        0.0000 
     39 CA         20.0720    0.1420   -1.2810 C.3      12 GLL5        0.0000 
     40 CA         16.4720    0.5280    1.1550 C.3       8 GLP5        0.0000 
     41 CA         19.0770    1.5480   -1.1640 C.3       4 GLC5        0.0000 
     42 CA         18.0820    2.9540   -1.0470 C.3       8 GLP5        0.0000 
     43 O          22.2455   -5.6800   -1.2545 O.2       1 ALC1        0.0000 
     44 O          22.1420   -4.9590   -0.2230 O.2       9 ALL1        0.0000 
     45 O          22.3490   -6.4010   -2.2860 O.2       5 ALP1        0.0000 
     46 O          21.2240   -6.0080   -1.1225 O.2       1 ALC1        0.0000 
     47 O          20.3060   -7.0570   -2.0220 O.2       5 ALP1        0.0000 
     48 N          18.8330   -4.6775    0.0350 N.am      2 SEC2        0.0000 
     49 N          19.5540   -4.7910   -1.1620 N.am     10 SEL2        0.0000 
     50 N          18.1120   -4.5640    1.2320 N.am      6 SEP2        0.0000 
     51 O          20.9515   -5.5960   -1.7240 O.2       1 ALC1        0.0000 
     52 O          19.5540   -4.7910   -1.1620 O.2       9 ALL1        0.0000 
     53 O          19.9300   -5.9240   -1.5920 O.2       1 ALC1        0.0000 
     54 N          18.8980   -3.4465   -3.3505 N.am      2 SEC2        0.0000 
     55 N          18.7210   -2.3070   -2.4070 N.am     10 SEL2        0.0000 
     56 N          19.0750   -4.5860   -4.2940 N.am      6 SEP2        0.0000 
     57 O          17.8535   -1.7435   -1.7220 O.2       1 ALC1        0.0000 
     58 O          18.7210   -2.3070   -2.4070 O.2       9 ALL1        0.0000 
     59 O          16.9860   -1.1800   -1.0370 O.2       5 ALP1        0.0000 
     60 N          22.1660   -0.1970    0.2450 N.am      2 SEC2        0.0000 
     61 N          21.8390   -1.2650   -0.6620 N.am     10 SEL2        0.0000 
     62 N          22.4930    0.8710    1.1520 N.am      6 SEP2        0.0000 
     63 N          22.8925    0.0560   -1.1080 N.am      2 SEC2        0.0000 
     64 N          22.4125    1.2825   -1.6900 N.am      2 SEC2        0.0000 
     65 N          20.8790    1.1880   -1.8260 N.am     10 SEL2        0.0000 
     66 CA         31.3173   -2.3442    1.7330 C.3       4 GLC5        0.0000 
     67 CA         29.5860   -2.9980    1.9640 C.3      12 GLL5        0.0000 
     68 CA         32.6890   -1.0950    1.5050 C.3       8 GLP5        0.0000 
     69 CA         28.0008   -3.8683    2.1000 C.3       4 GLC5        0.0000 
     70 CA         30.7653   -0.7587    2.0770 C.3       4 GLC5        0.0000 
     71 CA         26.9755    0.0902    4.4060 C.3       4 GLC5        0.0000 
     72 CA         27.6720    0.9180    2.2570 C.3      12 GLL5        0.0000 
     73 CA         26.1615   -2.2595    2.0520 C.3       4 GLC5        0.0000 
     74 CA         26.6340   -0.1610    2.5210 C.3      12 GLL5        0.0000 
     75 CA         24.8190    0.9815    2.3680 C.3       4 GLC5        0.0000 
     76 CA         25.9000   -0.5910    1.2090 C.3      12 GLL5        0.0000 
     77 CA         23.3710    2.3390    2.8710 C.3       8 GLP5        0.0000 
     78 CA         21.1210   -2.2992    1.2142 C.3       4 GLC5        0.0000 
     79 CA         22.4630   -2.5620   -0.5860 C.3      12 GLL5        0.0000 
     80 CA         20.2700   -1.4770    2.8560 C.3       8 GLP5        0.0000 
     81 CA         18.1225   -3.5155   -0.7495 C.3       4 GLC5        0.0000 
     82 CA         16.1810   -4.0130   -0.1240 C.3       8 GLP5        0.0000 
     83 CA         20.6483   -2.6608   -3.2990 C.3       4 GLC5        0.0000 
     84 CA         19.7000   -2.3410   -1.3800 C.3      12 GLL5        0.0000 
     85 CA         20.9070   -3.2190   -5.1200 C.3       8 GLP5        0.0000 
     86 CA         20.2049   -1.1440    0.7376 C.3       4 GLC5        0.0000 
@<TRIPOS>BOND
@<TRIPOS>SUBSTRUCTURE
     1 ALC1        1 GROUP        1 X    ALC  0     ROOT ALC X 1
     2 SEC2        7 GROUP        1 X    SEC  0     **** SEC X 2
     3 LYC4       26 GROUP        1 X    LYC  0     **** LYC X 4
     4 GLC5        4 GROUP        1 X    GLC  0     **** GLC X 6
     5 ALP1        3 GROUP        1 Y    ALP  0     ROOT ALP Y 8
     6 SEP2        9 GROUP        1 Y    SEP  0     **** SEP Y 9
     7 LYP4       28 GROUP        1 Y    LYP  0     **** LYP Y 11
     8 GLP5        6 GROUP        1 Y    GLP  0     **** GLP Y 13
     9 ALL1        2 GROUP        1 Z    ALL  0     ROOT ALL Z 15
    10 SEL2        8 GROUP        1 Z    SEL  0     **** SEL Z 16
    11 LYL4       27 GROUP        1 Z    LYL  0     **** LYL Z 18
    12 GLL5        5 GROUP        1 Z    GLL  0     **** GLL Z 20
@<TRIPOS>SET

