#    Name: 3gue_UPG_1_ligand
#    Modification time : Tue Mar 25 12:59:32 2014

@<TRIPOS>MOLECULE
3gue_UPG_1_ligand
   58    60     1     0     0
SMALL
NO_CHARGES


@<TRIPOS>ATOM
      1 N1         29.5000   -2.2350    3.1710 N.am      1 UPG484      0.0000 
      2 C2         30.1120   -2.6940    4.3550 C.2       1 UPG484      0.0000 
      3 N3         30.8110   -3.8860    4.2860 N.am      1 UPG484      0.0000 
      4 C4         30.9270   -4.6270    3.1340 C.2       1 UPG484      0.0000 
      5 C5         30.3050   -4.1890    1.9580 C.2       1 UPG484      0.0000 
      6 C6         29.5860   -2.9980    1.9640 C.2       1 UPG484      0.0000 
      7 O2         30.0920   -2.0920    5.4390 O.2       1 UPG484      0.0000 
      8 O4         31.5910   -5.6710    3.1880 O.2       1 UPG484      0.0000 
      9 C1C        28.7260   -0.9520    3.1900 C.3       1 UPG484      0.0000 
     10 C2C        28.9570    0.1070    2.1080 C.3       1 UPG484      0.0000 
     11 O2C        30.1060    0.9090    2.4150 O.3       1 UPG484      0.0000 
     12 C3C        27.6720    0.9180    2.2570 C.3       1 UPG484      0.0000 
     13 C4C        26.6340   -0.1610    2.5210 C.3       1 UPG484      0.0000 
     14 O4C        27.3460   -1.3230    3.0250 O.3       1 UPG484      0.0000 
     15 O3C        27.7710    1.7340    3.4230 O.3       1 UPG484      0.0000 
     16 C5C        25.9000   -0.5910    1.2090 C.3       1 UPG484      0.0000 
     17 O5C        26.7230   -1.2580    0.2900 O.3       1 UPG484      0.0000 
     18 PA         26.6090   -0.9660   -1.2930 P.3       1 UPG484      0.0000 
     19 O1A        26.6010    0.5200   -1.4080 O.co2     1 UPG484      0.0000 
     20 O2A        27.5840   -1.7460   -2.0640 O.co2     1 UPG484      0.0000 
     21 O3A        25.0820   -1.4880   -1.6170 O.3       1 UPG484      0.0000 
     22 PB         24.6230   -2.9830   -2.0660 P.3       1 UPG484      0.0000 
     23 O1B        25.1730   -3.9420   -1.0930 O.co2     1 UPG484      0.0000 
     24 O2B        24.8470   -3.1990   -3.5300 O.co2     1 UPG484      0.0000 
     25 O3B        23.0350   -2.7970   -1.9250 O.3       1 UPG484      0.0000 
     26 C1'        22.4630   -2.5620   -0.5860 C.3       1 UPG484      0.0000 
     27 C2'        21.4810   -3.6810   -0.2690 C.3       1 UPG484      0.0000 
     28 C3'        20.4280   -3.6950   -1.3700 C.3       1 UPG484      0.0000 
     29 C4'        19.7000   -2.3410   -1.3800 C.3       1 UPG484      0.0000 
     30 C5'        20.7150   -1.1870   -1.5810 C.3       1 UPG484      0.0000 
     31 C6'        20.0720    0.1420   -1.2810 C.3       1 UPG484      0.0000 
     32 O2'        22.1420   -4.9590   -0.2230 O.3       1 UPG484      0.0000 
     33 O3'        19.5540   -4.7910   -1.1620 O.3       1 UPG484      0.0000 
     34 O4'        18.7210   -2.3070   -2.4070 O.3       1 UPG484      0.0000 
     35 O5'        21.8390   -1.2650   -0.6620 O.3       1 UPG484      0.0000 
     36 O6'        20.8790    1.1880   -1.8260 O.3       1 UPG484      0.0000 
     37 H          31.2771   -4.2410    5.1635 H         1 UPG484      0.0000 
     38 H          30.3814   -4.7446    1.1018 H         1 UPG484      0.0000 
     39 H          29.1191   -2.6575    1.1264 H         1 UPG484      0.0000 
     40 H          28.8213   -0.4746    4.1636 H         1 UPG484      0.0000 
     41 H          28.9618   -0.3546    1.1800 H         1 UPG484      0.0000 
     42 H          27.4590    1.4104    1.3842 H         1 UPG484      0.0000 
     43 H          25.9188    0.1821    3.2176 H         1 UPG484      0.0000 
     44 H          25.4570    0.3390    0.7853 H         1 UPG484      0.0000 
     45 H          25.0328   -1.2116    1.5308 H         1 UPG484      0.0000 
     46 H          23.2545   -2.5683    0.1342 H         1 UPG484      0.0000 
     47 H          20.9901   -3.4524    0.6571 H         1 UPG484      0.0000 
     48 H          20.9610   -3.7865   -2.3170 H         1 UPG484      0.0000 
     49 H          19.2494   -2.2023   -0.4008 H         1 UPG484      0.0000 
     50 H          21.0511   -1.1824   -2.5939 H         1 UPG484      0.0000 
     51 H          19.9704    0.2385   -0.1942 H         1 UPG484      0.0000 
     52 H          19.0658    0.1441   -1.7149 H         1 UPG484      0.0000 
     53 H          29.7578    1.6516    2.9870 H         1 UPG484      0.0000 
     54 H          27.7716    1.0913    4.1892 H         1 UPG484      0.0000 
     55 H          21.7036   -5.5030   -0.9385 H         1 UPG484      0.0000 
     56 H          20.1540   -5.5842   -1.0578 H         1 UPG484      0.0000 
     57 H          17.8437   -2.3576   -1.9299 H         1 UPG484      0.0000 
     58 H          20.6723    1.1911   -2.8044 H         1 UPG484      0.0000 
@<TRIPOS>BOND
     1    2    1 1    
     2    6    1 1    
     3    9    1 1    
     4    3    2 1    
     5    7    2 2    
     6    4    3 1    
     7   37    3 1    
     8    5    4 1    
     9    8    4 2    
    10    6    5 2    
    11   38    5 1    
    12   39    6 1    
    13   10    9 1    
    14   14    9 1    
    15   40    9 1    
    16   11   10 1    
    17   12   10 1    
    18   41   10 1    
    19   53   11 1    
    20   13   12 1    
    21   15   12 1    
    22   42   12 1    
    23   14   13 1    
    24   16   13 1    
    25   43   13 1    
    26   54   15 1    
    27   17   16 1    
    28   44   16 1    
    29   45   16 1    
    30   18   17 1    
    31   19   18 ar   
    32   20   18 ar   
    33   21   18 1    
    34   22   21 1    
    35   23   22 ar   
    36   24   22 ar   
    37   25   22 1    
    38   26   25 1    
    39   27   26 1    
    40   35   26 1    
    41   46   26 1    
    42   28   27 1    
    43   32   27 1    
    44   47   27 1    
    45   29   28 1    
    46   33   28 1    
    47   48   28 1    
    48   30   29 1    
    49   34   29 1    
    50   49   29 1    
    51   31   30 1    
    52   35   30 1    
    53   50   30 1    
    54   36   31 1    
    55   51   31 1    
    56   52   31 1    
    57   55   32 1    
    58   56   33 1    
    59   57   34 1    
    60   58   36 1    
@<TRIPOS>SUBSTRUCTURE
     1 UPG484      1 GROUP   
@<TRIPOS>SET

