#    Name: 2zu9_GDP_1_INTS_M
#    Modification time : Tue Mar 25 11:08:11 2014

@<TRIPOS>MOLECULE
2zu9_GDP_1_INTS_M
   46     0    15     0     0
SMALL
NO_CHARGES


@<TRIPOS>ATOM
      1 Zn         -7.3305   -3.5410   -1.5665 Zn        4 ZIC7        0.0000 
      2 Zn         -8.1010   -3.4870   -0.8310 Zn       14 ZIL7        0.0000 
      3 Zn         -6.5600   -3.5950   -2.3020 Zn        9 ZIP7        0.0000 
      4 NZ         -3.8685   -4.3235   -0.6320 N.4       3 LYC4        0.0000 
      5 NZ         -5.3330   -3.7380   -0.6840 N.4      13 LYL4        0.0000 
      6 NZ         -2.4040   -4.9090   -0.5800 N.4       8 LYP4        0.0000 
      7 Zn         -5.9465   -3.6665   -1.4930 Zn        4 ZIC7        0.0000 
      8 Zn         -5.3330   -3.7380   -0.6840 Zn       14 ZIL7        0.0000 
      9 N          -3.8685   -4.3235   -0.6320 N.am      2 SEC2        0.0000 
     10 N          -5.3330   -3.7380   -0.6840 N.am     12 SEL2        0.0000 
     11 N          -2.4040   -4.9090   -0.5800 N.am      7 SEP2        0.0000 
     12 NZ         -3.4395   -4.1600    0.6135 N.4       3 LYC4        0.0000 
     13 NZ         -4.4750   -3.4110    1.8070 N.4      13 LYL4        0.0000 
     14 N          -2.8570    1.6225   -2.1295 N.am      2 SEC2        0.0000 
     15 N          -2.6830    0.9420   -0.7280 N.am     12 SEL2        0.0000 
     16 N          -3.0310    2.3030   -3.5310 N.am      7 SEP2        0.0000 
     17 O          -2.1345    2.0880   -0.1330 O.2       1 ALC1        0.0000 
     18 O          -2.6830    0.9420   -0.7280 O.2      11 ALL1        0.0000 
     19 O          -1.5860    3.2340    0.4620 O.2       6 ALP1        0.0000 
     20 N           0.3945   -0.3270    0.9130 N.am      2 SEC2        0.0000 
     21 N          -0.9720   -0.7560    0.5100 N.am     12 SEL2        0.0000 
     22 N           1.7610    0.1020    1.3160 N.am      7 SEP2        0.0000 
     23 O          -0.9780   -1.7080   -0.2785 O.2       1 ALC1        0.0000 
     24 O          -0.9720   -0.7560    0.5100 O.2      11 ALL1        0.0000 
     25 O          -0.9840   -2.6600   -1.0670 O.2       6 ALP1        0.0000 
     26 O           0.7610    2.7215    7.1885 O.2       1 ALC1        0.0000 
     27 O           0.1660    1.8280    6.4050 O.2      11 ALL1        0.0000 
     28 O           1.3560    3.6150    7.9720 O.2       6 ALP1        0.0000 
     29 O           1.2180    4.5140    4.1655 O.2       1 ALC1        0.0000 
     30 O           0.4940    3.7910    5.1280 O.2      11 ALL1        0.0000 
     31 O           1.9420    5.2370    3.2030 O.2       6 ALP1        0.0000 
     32 O           0.9250    3.7030    6.5500 O.2       1 ALC1        0.0000 
     33 CA         -0.1255    1.5220    2.4625 C.3       5 GLC5        0.0000 
     34 CA         -1.1900    0.7920    4.2620 C.3      15 GLL5        0.0000 
     35 CA          0.9390    2.2520    0.6630 C.3      10 GLP5        0.0000 
     36 CA         -5.7875    0.9283    2.3338 C.3       5 GLC5        0.0000 
     37 CA         -4.3510    0.4010    0.9530 C.3      15 GLL5        0.0000 
     38 CA         -6.8560    2.0490    3.4010 C.3      10 GLP5        0.0000 
     39 CA         -4.9855    0.8433   -1.1370 C.3       5 GLC5        0.0000 
     40 CA         -6.1630    1.5520   -2.7590 C.3      10 GLP5        0.0000 
     41 CA         -0.6773    1.0932    1.1088 C.3       5 GLC5        0.0000 
     42 CA         -2.2850   -0.6540    1.0670 C.3      15 GLL5        0.0000 
     43 CA          0.3003   -0.4165    4.0880 C.3       5 GLC5        0.0000 
     44 CA          1.7190   -1.2380    3.3420 C.3      10 GLP5        0.0000 
     45 CA         -2.4277    1.1685    6.1445 C.3       5 GLC5        0.0000 
     46 CA         -3.7370    1.9320    7.4550 C.3      10 GLP5        0.0000 
@<TRIPOS>BOND
@<TRIPOS>SUBSTRUCTURE
     1 ALC1       17 GROUP        1 X    ALC  0     ROOT ALC X 1
     2 SEC2        9 GROUP        1 X    SEC  0     **** SEC X 2
     3 LYC4        4 GROUP        1 X    LYC  0     **** LYC X 4
     4 ZIC7        1 GROUP        1 X    ZIC  0     **** ZIC X 5
     5 GLC5       33 GROUP        1 X    GLC  0     **** GLC X 6
     6 ALP1       19 GROUP        1 Y    ALP  0     ROOT ALP Y 8
     7 SEP2       11 GROUP        1 Y    SEP  0     **** SEP Y 9
     8 LYP4        6 GROUP        1 Y    LYP  0     **** LYP Y 11
     9 ZIP7        3 GROUP        1 Y    ZIP  0     **** ZIP Y 12
    10 GLP5       35 GROUP        1 Y    GLP  0     **** GLP Y 13
    11 ALL1       18 GROUP        1 Z    ALL  0     ROOT ALL Z 15
    12 SEL2       10 GROUP        1 Z    SEL  0     **** SEL Z 16
    13 LYL4        5 GROUP        1 Z    LYL  0     **** LYL Z 18
    14 ZIL7        2 GROUP        1 Z    ZIL  0     **** ZIL Z 19
    15 GLL5       34 GROUP        1 Z    GLL  0     **** GLL Z 20
@<TRIPOS>SET

