#    Name: 2zu9_GDP_1_ligand
#    Modification time : Tue Mar 25 11:08:11 2014

@<TRIPOS>MOLECULE
2zu9_GDP_1_ligand
   40    42     1     0     0
SMALL
NO_CHARGES


@<TRIPOS>ATOM
      1 PB         -8.2750   -3.9900    0.5470 P.3       1 GDP395      0.0000 
      2 O1B        -8.1010   -3.4870   -0.8310 O.co2     1 GDP395      0.0000 
      3 O2B        -9.4770   -3.3950    1.4430 O.co2     1 GDP395      0.0000 
      4 O3B        -8.3530   -5.5810    0.7910 O.co2     1 GDP395      0.0000 
      5 O3A        -6.9770   -3.5820    1.4100 O.3       1 GDP395      0.0000 
      6 PA         -5.5970   -3.2040    0.6690 P.3       1 GDP395      0.0000 
      7 O1A        -5.3330   -3.7380   -0.6840 O.co2     1 GDP395      0.0000 
      8 O2A        -4.4750   -3.4110    1.8070 O.co2     1 GDP395      0.0000 
      9 O5'        -5.6930   -1.6000    0.5750 O.3       1 GDP395      0.0000 
     10 C5'        -5.0870   -0.7860    1.5800 C.3       1 GDP395      0.0000 
     11 C4'        -4.3510    0.4010    0.9530 C.3       1 GDP395      0.0000 
     12 O4'        -3.6350    1.0640    2.0100 O.3       1 GDP395      0.0000 
     13 C3'        -3.2650   -0.1320    0.0170 C.3       1 GDP395      0.0000 
     14 O3'        -2.6830    0.9420   -0.7280 O.3       1 GDP395      0.0000 
     15 C2'        -2.2850   -0.6540    1.0670 C.3       1 GDP395      0.0000 
     16 O2'        -0.9720   -0.7560    0.5100 O.3       1 GDP395      0.0000 
     17 C1'        -2.3020    0.5230    2.0420 C.3       1 GDP395      0.0000 
     18 N9         -1.9060    0.0770    3.3980 N.pl3     1 GDP395      0.0000 
     19 C8         -2.2040   -1.0900    3.9640 C.2       1 GDP395      0.0000 
     20 N7         -1.6800   -1.1310    5.1870 N.2       1 GDP395      0.0000 
     21 C5         -1.0470    0.0180    5.4060 C.2       1 GDP395      0.0000 
     22 C6         -0.3580    0.5340    6.4970 C.2       1 GDP395      0.0000 
     23 O6         -0.2020   -0.1300    7.5200 O.2       1 GDP395      0.0000 
     24 N1          0.1660    1.8280    6.4050 N.am      1 GDP395      0.0000 
     25 C2         -0.0080    2.5630    5.2250 C.2       1 GDP395      0.0000 
     26 N2          0.4940    3.7910    5.1280 N.pl3     1 GDP395      0.0000 
     27 N3         -0.6740    2.0280    4.1930 N.2       1 GDP395      0.0000 
     28 C4         -1.1900    0.7920    4.2620 C.2       1 GDP395      0.0000 
     29 H          -4.3555   -1.3530    2.1761 H         1 GDP395      0.0000 
     30 H          -5.8337   -0.3814    2.2804 H         1 GDP395      0.0000 
     31 H          -4.9982    1.0176    0.4462 H         1 GDP395      0.0000 
     32 H          -3.6395   -0.9203   -0.5246 H         1 GDP395      0.0000 
     33 H          -2.6593   -1.4847    1.5204 H         1 GDP395      0.0000 
     34 H          -1.5923    1.2516    1.6703 H         1 GDP395      0.0000 
     35 H          -2.7256   -1.8048    3.5474 H         1 GDP395      0.0000 
     36 H           0.6730    2.2356    7.1937 H         1 GDP395      0.0000 
     37 H           0.3684    4.2495    4.2482 H         1 GDP395      0.0000 
     38 H           0.9518    4.1449    5.9436 H         1 GDP395      0.0000 
     39 H          -2.4025    1.6116   -0.0403 H         1 GDP395      0.0000 
     40 H          -0.8602   -1.7243    0.2869 H         1 GDP395      0.0000 
@<TRIPOS>BOND
     1    2    1 ar   
     2    3    1 ar   
     3    4    1 ar   
     4    5    1 1    
     5    6    5 1    
     6    7    6 ar   
     7    8    6 ar   
     8    9    6 1    
     9   10    9 1    
    10   11   10 1    
    11   29   10 1    
    12   30   10 1    
    13   12   11 1    
    14   13   11 1    
    15   31   11 1    
    16   17   12 1    
    17   14   13 1    
    18   15   13 1    
    19   32   13 1    
    20   39   14 1    
    21   16   15 1    
    22   17   15 1    
    23   33   15 1    
    24   40   16 1    
    25   18   17 1    
    26   34   17 1    
    27   19   18 1    
    28   28   18 1    
    29   20   19 2    
    30   35   19 1    
    31   21   20 1    
    32   22   21 1    
    33   28   21 2    
    34   23   22 2    
    35   24   22 am   
    36   25   24 1    
    37   36   24 1    
    38   26   25 1    
    39   27   25 2    
    40   37   26 1    
    41   38   26 1    
    42   28   27 1    
@<TRIPOS>SUBSTRUCTURE
     1 GDP395      1 GROUP   
@<TRIPOS>SET

