#    Name: 3eta_351_1_INTS_M
#    Modification time : Tue Mar 25 02:27:01 2014

@<TRIPOS>MOLECULE
3eta_351_1_INTS_M
  104     0     9     0     0
SMALL
NO_CHARGES


@<TRIPOS>ATOM
      1 CA         46.2020   23.1690    3.7175 C.3       3 GLC5        0.0000 
      2 CA         47.7500   21.8290    2.8710 C.3       9 GLL5        0.0000 
      3 CA         44.6540   24.5090    4.5640 C.3       6 GLP5        0.0000 
      4 CA         48.8875   21.5685    5.8860 C.3       3 GLC5        0.0000 
      5 CA         48.6120   21.1490    3.7060 C.3       9 GLL5        0.0000 
      6 CA         49.1630   21.9880    8.0660 C.3       6 GLP5        0.0000 
      7 CA         52.7805   20.7185    5.8020 C.3       3 GLC5        0.0000 
      8 CA         52.1310   20.1630    3.9150 C.3       9 GLL5        0.0000 
      9 CA         53.4300   21.2740    7.6890 C.3       6 GLP5        0.0000 
     10 CA         53.6025   21.6445    4.0210 C.3       3 GLC5        0.0000 
     11 CA         55.0740   23.1260    4.1270 C.3       6 GLP5        0.0000 
     12 CA         53.3750   18.8385    3.0065 C.3       3 GLC5        0.0000 
     13 CA         54.6190   17.5140    2.0980 C.3       6 GLP5        0.0000 
     14 N          54.3895   19.4750    3.9430 N.am      2 SEC2        0.0000 
     15 N          53.0960   19.5590    4.6090 N.am      8 SEL2        0.0000 
     16 N          55.6830   19.3910    3.2770 N.am      5 SEP2        0.0000 
     17 CA         53.8145   17.6360    4.3620 C.3       3 GLC5        0.0000 
     18 CA         52.5920   18.7810    5.5670 C.3       9 GLL5        0.0000 
     19 CA         55.0370   16.4910    3.1570 C.3       6 GLP5        0.0000 
     20 O          54.7445   18.2155    6.4220 O.2       1 ALC1        0.0000 
     21 O          53.3510   18.0440    6.4250 O.2       7 ALL1        0.0000 
     22 O          56.1380   18.3870    6.4190 O.2       4 ALP1        0.0000 
     23 CA         53.4865   15.8860    7.1190 C.3       3 GLC5        0.0000 
     24 CA         52.5480   17.3600    7.2870 C.3       9 GLL5        0.0000 
     25 CA         54.4250   14.4120    6.9510 C.3       6 GLP5        0.0000 
     26 CA         53.6800   17.5090    8.8830 C.3       3 GLC5        0.0000 
     27 CA         54.8120   17.6580   10.4790 C.3       6 GLP5        0.0000 
     28 CA         51.9625   16.4080    5.5100 C.3       3 GLC5        0.0000 
     29 CA         51.3770   15.4560    3.7330 C.3       6 GLP5        0.0000 
     30 O          48.8325   13.7190   10.9640 O.2       1 ALC1        0.0000 
     31 O          49.3130   14.0090    9.5860 O.2       7 ALL1        0.0000 
     32 O          48.3520   13.4290   12.3420 O.2       4 ALP1        0.0000 
     33 N          49.4900   12.1240    7.1280 N.am      2 SEC2        0.0000 
     34 N          50.3750   12.9180    7.8550 N.am      8 SEL2        0.0000 
     35 N          48.6050   11.3300    6.4010 N.am      5 SEP2        0.0000 
     36 O          49.2260   12.6600   11.1230 O.2       1 ALC1        0.0000 
     37 O          50.1000   11.8910    9.9040 O.2       7 ALL1        0.0000 
     38 CA         51.8435    6.1225    8.1805 C.3       3 GLC5        0.0000 
     39 CA         50.9690    7.9490    8.8360 C.3       9 GLL5        0.0000 
     40 CA         52.7180    4.2960    7.5250 C.3       6 GLP5        0.0000 
     41 CA         49.7260    6.8065    7.5195 C.3       3 GLC5        0.0000 
     42 CA         48.4830    5.6640    6.2030 C.3       6 GLP5        0.0000 
     43 CA         50.9050   10.5560   11.2725 C.3       3 GLC5        0.0000 
     44 CA         49.6410    9.5330   10.0140 C.3       9 GLL5        0.0000 
     45 CA         52.1690   11.5790   12.5310 C.3       6 GLP5        0.0000 
     46 CA         50.3225   10.3640   12.2795 C.3       3 GLC5        0.0000 
     47 CA         48.4760    9.1490   12.0280 C.3       9 GLL5        0.0000 
     48 CA         48.3455    9.4245   15.4930 C.3       3 GLC5        0.0000 
     49 CA         48.1430    7.7750   14.3800 C.3       9 GLL5        0.0000 
     50 CA         48.5480   11.0740   16.6060 C.3       6 GLP5        0.0000 
     51 CA         49.7350   20.6090    6.6000 C.3       3 GLC5        0.0000 
     52 CA         50.3070   19.2300    5.1340 C.3       9 GLL5        0.0000 
     53 CA         48.7156   23.1696    3.7835 C.3       3 GLC5        0.0000 
     54 CA         49.1520   24.7790    4.6010 C.3       6 GLP5        0.0000 
     55 CA         50.4578   23.3120    2.3202 C.3       3 GLC5        0.0000 
     56 CA         50.2320   21.0370    1.9670 C.3       9 GLL5        0.0000 
     57 CA         51.1090   25.2480    3.0940 C.3       6 GLP5        0.0000 
     58 CA         50.2957   20.0765    0.2858 C.3       3 GLC5        0.0000 
     59 CA         49.3810   21.7150    1.1260 C.3       9 GLL5        0.0000 
     60 CA         50.7850   18.7770   -0.9750 C.3       6 GLP5        0.0000 
     61 CA         51.3439   22.1374    4.5178 C.3       3 GLC5        0.0000 
     62 CA         49.8590   20.7520    3.2650 C.3       9 GLL5        0.0000 
     63 CA         51.4640   23.9940    5.2310 C.3       6 GLP5        0.0000 
     64 CA         47.6573   19.3175    8.4035 C.3       3 GLC5        0.0000 
     65 CA         48.9600   17.7920    7.8470 C.3       9 GLL5        0.0000 
     66 CA         46.8770   21.1220    8.6100 C.3       6 GLP5        0.0000 
     67 CA         49.9646   16.1836    6.2021 C.3       3 GLC5        0.0000 
     68 CA         50.1040   14.7810    4.8060 C.3       6 GLP5        0.0000 
     69 CA         46.5570   15.4865    7.6822 C.3       3 GLC5        0.0000 
     70 CA         48.0410   15.9840    9.1120 C.3       9 GLL5        0.0000 
     71 CA         45.1360   14.3640    6.5350 C.3       6 GLP5        0.0000 
     72 CA         48.3023   16.6803   10.7011 C.3       3 GLC5        0.0000 
     73 CA         47.9150   17.2340    8.5470 C.3       9 GLL5        0.0000 
     74 CA         48.0070   17.4160   12.4940 C.3       6 GLP5        0.0000 
     75 CA         51.2122   15.8793    9.9920 C.3       3 GLC5        0.0000 
     76 CA         49.2170   15.2800    8.9870 C.3       9 GLL5        0.0000 
     77 CA         52.6820   16.1960   11.3460 C.3       6 GLP5        0.0000 
     78 CA         49.9232   15.1717    6.7220 C.3       3 GLC5        0.0000 
     79 CA         50.2680   15.8450    8.2890 C.3       9 GLL5        0.0000 
     80 CA         52.4015   10.5094   10.0203 C.3       3 GLC5        0.0000 
     81 CA         51.7470    8.9810    8.3540 C.3       9 GLL5        0.0000 
     82 CA         53.4610   11.3130   11.3080 C.3       6 GLP5        0.0000 
     83 CA         51.4430    7.5655    6.6355 C.3       3 GLC5        0.0000 
     84 CA         51.5280    6.6660    4.6760 C.3       6 GLP5        0.0000 
     85 CA         51.0110   10.2964    6.9867 C.3       3 GLC5        0.0000 
     86 CA         50.6800   10.8870    5.2410 C.3       6 GLP5        0.0000 
     87 CA         53.3046    8.4826    8.3016 C.3       3 GLC5        0.0000 
     88 CA         51.4680   10.2900    8.6950 C.3       9 GLL5        0.0000 
     89 CA         55.3210    8.1730    7.9230 C.3       6 GLP5        0.0000 
     90 CA         48.4696    9.6118    8.7504 C.3       3 GLC5        0.0000 
     91 CA         49.9070    8.2230    9.6690 C.3       9 GLL5        0.0000 
     92 CA         46.9740   10.0860    7.7810 C.3       6 GLP5        0.0000 
     93 CA         51.0632    9.3520   13.5245 C.3       3 GLC5        0.0000 
     94 CA         49.5880    8.7210   12.7210 C.3       9 GLL5        0.0000 
     95 CA         52.6260   10.3290   13.7370 C.3       6 GLP5        0.0000 
     96 CA         48.8937   10.1980   13.6564 C.3       3 GLC5        0.0000 
     97 CA         49.4130    8.0290   13.9030 C.3       9 GLL5        0.0000 
     98 CA         48.5650   11.9140   14.1740 C.3       6 GLP5        0.0000 
     99 CA         50.1440    6.9600   15.3593 C.3       3 GLC5        0.0000 
    100 CA         51.5100    6.0180   16.5770 C.3       6 GLP5        0.0000 
    101 CA         47.8432   10.2340   13.6315 C.3       3 GLC5        0.0000 
    102 CA         47.0380    8.2080   13.6790 C.3       9 GLL5        0.0000 
    103 CA         51.2474   17.2044    4.5815 C.3       3 GLC5        0.0000 
    104 CA         52.6707   19.6840    7.0596 C.3       3 GLC5        0.0000 
@<TRIPOS>BOND
@<TRIPOS>SUBSTRUCTURE
     1 ALC1       20 GROUP        1 X    ALC  0     ROOT ALC X 1
     2 SEC2       14 GROUP        1 X    SEC  0     **** SEC X 2
     3 GLC5        1 GROUP        1 X    GLC  0     **** GLC X 6
     4 ALP1       22 GROUP        1 Y    ALP  0     ROOT ALP Y 8
     5 SEP2       16 GROUP        1 Y    SEP  0     **** SEP Y 9
     6 GLP5        3 GROUP        1 Y    GLP  0     **** GLP Y 13
     7 ALL1       21 GROUP        1 Z    ALL  0     ROOT ALL Z 15
     8 SEL2       15 GROUP        1 Z    SEL  0     **** SEL Z 16
     9 GLL5        2 GROUP        1 Z    GLL  0     **** GLL Z 20
@<TRIPOS>SET

