#    Name: 3eta_351_1_ligand
#    Modification time : Tue Mar 25 02:27:01 2014

@<TRIPOS>MOLECULE
3eta_351_1_ligand
   68    73     1     0     0
SMALL
NO_CHARGES


@<TRIPOS>ATOM
      1 N1         46.2360   21.9090    0.1360 N.4       1 3512001     0.0000 
      2 C2         47.2360   22.8500    0.6670 C.3       1 3512001     0.0000 
      3 C3         48.1430   22.1140    1.5810 C.ar      1 3512001     0.0000 
      4 C4         47.7500   21.8290    2.8710 C.ar      1 3512001     0.0000 
      5 C5         48.6120   21.1490    3.7060 C.ar      1 3512001     0.0000 
      6 C6         49.8590   20.7520    3.2650 C.ar      1 3512001     0.0000 
      7 C7         50.2320   21.0370    1.9670 C.ar      1 3512001     0.0000 
      8 C8         49.3810   21.7150    1.1260 C.ar      1 3512001     0.0000 
      9 C9         50.7740   20.0450    4.1230 C.ar      1 3512001     0.0000 
     10 C10        52.1310   20.1630    3.9150 C.ar      1 3512001     0.0000 
     11 N11        53.0960   19.5590    4.6090 N.ar      1 3512001     0.0000 
     12 C12        52.5920   18.7810    5.5670 C.ar      1 3512001     0.0000 
     13 N13        53.3510   18.0440    6.4250 N.pl3     1 3512001     0.0000 
     14 C14        52.5480   17.3600    7.2870 C.2       1 3512001     0.0000 
     15 C15        51.2410   17.6650    6.9820 C.2       1 3512001     0.0000 
     16 C16        50.1400   17.0960    7.7170 C.ar      1 3512001     0.0000 
     17 C17        48.9600   17.7920    7.8470 C.ar      1 3512001     0.0000 
     18 C18        47.9150   17.2340    8.5470 C.ar      1 3512001     0.0000 
     19 C19        48.0410   15.9840    9.1120 C.ar      1 3512001     0.0000 
     20 C20        49.2170   15.2800    8.9870 C.ar      1 3512001     0.0000 
     21 N21        49.3130   14.0090    9.5860 N.am      1 3512001     0.0000 
     22 C22        49.9640   12.9370    9.0090 C.2       1 3512001     0.0000 
     23 O23        50.3750   12.9180    7.8550 O.2       1 3512001     0.0000 
     24 N24        50.1000   11.8910    9.9040 N.am      1 3512001     0.0000 
     25 C25        50.4060   10.5710    9.5270 C.ar      1 3512001     0.0000 
     26 C26        51.4680   10.2900    8.6950 C.ar      1 3512001     0.0000 
     27 C27        51.7470    8.9810    8.3540 C.ar      1 3512001     0.0000 
     28 C28        50.9690    7.9490    8.8360 C.ar      1 3512001     0.0000 
     29 C29        49.9070    8.2230    9.6690 C.ar      1 3512001     0.0000 
     30 C30        49.6410    9.5330   10.0140 C.ar      1 3512001     0.0000 
     31 O31        48.5840    9.8530   10.8430 O.3       1 3512001     0.0000 
     32 C32        48.4760    9.1490   12.0280 C.ar      1 3512001     0.0000 
     33 C33        49.5880    8.7210   12.7210 C.ar      1 3512001     0.0000 
     34 C34        49.4130    8.0290   13.9030 C.ar      1 3512001     0.0000 
     35 C35        48.1430    7.7750   14.3800 C.ar      1 3512001     0.0000 
     36 C36        47.0380    8.2080   13.6790 C.ar      1 3512001     0.0000 
     37 C37        47.2050    8.9000   12.4990 C.ar      1 3512001     0.0000 
     38 C38        50.2680   15.8450    8.2890 C.ar      1 3512001     0.0000 
     39 C39        51.2650   18.5700    5.8850 C.ar      1 3512001     0.0000 
     40 C40        50.3070   19.2300    5.1340 C.ar      1 3512001     0.0000 
     41 H          46.7410   23.6557    1.2112 H         1 3512001     0.0000 
     42 H          47.8127   23.2853   -0.1505 H         1 3512001     0.0000 
     43 H          46.8237   22.1201    3.2080 H         1 3512001     0.0000 
     44 H          48.3204   20.9327    4.6780 H         1 3512001     0.0000 
     45 H          51.1635   20.7360    1.6248 H         1 3512001     0.0000 
     46 H          49.6673   21.9248    0.1575 H         1 3512001     0.0000 
     47 H          52.4266   20.8171    3.1007 H         1 3512001     0.0000 
     48 H          54.3213   18.0110    6.4226 H         1 3512001     0.0000 
     49 H          52.8333   16.7711    7.9825 H         1 3512001     0.0000 
     50 H          48.8596   18.7256    7.4226 H         1 3512001     0.0000 
     51 H          47.0266   17.7573    8.6503 H         1 3512001     0.0000 
     52 H          47.2468   15.5725    9.6331 H         1 3512001     0.0000 
     53 H          48.8586   13.8805   10.5277 H         1 3512001     0.0000 
     54 H          49.9682   12.0852   10.9320 H         1 3512001     0.0000 
     55 H          52.0540   11.0544    8.3271 H         1 3512001     0.0000 
     56 H          52.5478    8.7732    7.7307 H         1 3512001     0.0000 
     57 H          51.1827    6.9752    8.5728 H         1 3512001     0.0000 
     58 H          49.3188    7.4626   10.0302 H         1 3512001     0.0000 
     59 H          50.5296    8.9127   12.3657 H         1 3512001     0.0000 
     60 H          50.2373    7.6997   14.4330 H         1 3512001     0.0000 
     61 H          48.0208    7.2577   15.2669 H         1 3512001     0.0000 
     62 H          46.0907    8.0150   14.0360 H         1 3512001     0.0000 
     63 H          46.3837    9.2296   11.9715 H         1 3512001     0.0000 
     64 H          51.1586   15.3258    8.1943 H         1 3512001     0.0000 
     65 H          49.3238   19.1198    5.3174 H         1 3512001     0.0000 
     66 H          46.6629   21.1610   -0.3721 H         1 3512001     0.0000 
     67 H          45.6918   21.4947    0.8655 H         1 3512001     0.0000 
     68 H          45.5965   22.3592   -0.4872 H         1 3512001     0.0000 
@<TRIPOS>BOND
     1    2    1 1    
     2   66    1 1    
     3   67    1 1    
     4   68    1 1    
     5    3    2 1    
     6   41    2 1    
     7   42    2 1    
     8    4    3 ar   
     9    8    3 ar   
    10    5    4 ar   
    11   43    4 1    
    12    6    5 ar   
    13   44    5 1    
    14    7    6 ar   
    15    9    6 1    
    16    8    7 ar   
    17   45    7 1    
    18   46    8 1    
    19   10    9 ar   
    20   40    9 ar   
    21   11   10 ar   
    22   47   10 1    
    23   12   11 ar   
    24   13   12 1    
    25   39   12 ar   
    26   14   13 1    
    27   48   13 1    
    28   15   14 2    
    29   49   14 1    
    30   16   15 1    
    31   39   15 1    
    32   17   16 ar   
    33   38   16 ar   
    34   18   17 ar   
    35   50   17 1    
    36   19   18 ar   
    37   51   18 1    
    38   20   19 ar   
    39   52   19 1    
    40   21   20 1    
    41   38   20 ar   
    42   22   21 am   
    43   53   21 1    
    44   23   22 2    
    45   24   22 am   
    46   25   24 1    
    47   54   24 1    
    48   26   25 ar   
    49   30   25 ar   
    50   27   26 ar   
    51   55   26 1    
    52   28   27 ar   
    53   56   27 1    
    54   29   28 ar   
    55   57   28 1    
    56   30   29 ar   
    57   58   29 1    
    58   31   30 1    
    59   32   31 1    
    60   33   32 ar   
    61   37   32 ar   
    62   34   33 ar   
    63   59   33 1    
    64   35   34 ar   
    65   60   34 1    
    66   36   35 ar   
    67   61   35 1    
    68   37   36 ar   
    69   62   36 1    
    70   63   37 1    
    71   64   38 1    
    72   40   39 ar   
    73   65   40 1    
@<TRIPOS>SUBSTRUCTURE
     1 3512001     1 GROUP   
@<TRIPOS>SET

