#    Name: 3qak_UKA_1_INTS_M
#    Modification time : Tue Mar 25 09:15:00 2014

@<TRIPOS>MOLECULE
3qak_UKA_1_INTS_M
  120     0     9     0     0
SMALL
NO_CHARGES


@<TRIPOS>ATOM
      1 CA         -7.4875  -11.7360   49.7365 C.3       3 GLC5        0.0000 
      2 CA         -5.4030  -11.1280   49.4650 C.3       9 GLL5        0.0000 
      3 CA         -9.5720  -12.3440   50.0080 C.3       6 GLP5        0.0000 
      4 CA         -6.8410   -9.5460   47.1705 C.3       3 GLC5        0.0000 
      5 CA         -5.1080  -10.2300   48.2720 C.3       9 GLL5        0.0000 
      6 CA         -8.5740   -8.8620   46.0690 C.3       6 GLP5        0.0000 
      7 O          -1.8380  -10.1400   45.7925 O.2       1 ALC1        0.0000 
      8 O          -2.1660   -8.9620   46.6600 O.2       7 ALL1        0.0000 
      9 O          -1.5100  -11.3180   44.9250 O.2       4 ALP1        0.0000 
     10 O          -7.1770  -10.3730   46.9075 O.2       1 ALC1        0.0000 
     11 O          -5.7350  -10.6420   47.0650 O.2       7 ALL1        0.0000 
     12 O          -8.6190  -10.1040   46.7500 O.2       4 ALP1        0.0000 
     13 CA         -3.0665  -12.2845   48.2155 C.3       3 GLC5        0.0000 
     14 CA         -3.6080  -10.3080   48.1180 C.3       9 GLL5        0.0000 
     15 CA         -2.5250  -14.2610   48.3130 C.3       6 GLP5        0.0000 
     16 CA         -1.6390  -10.2315   48.6840 C.3       3 GLC5        0.0000 
     17 CA          0.3300  -10.1550   49.2500 C.3       6 GLP5        0.0000 
     18 CA         -3.5655  -11.4325   46.1780 C.3       3 GLC5        0.0000 
     19 CA         -3.5230  -12.5570   44.2380 C.3       6 GLP5        0.0000 
     20 N          -4.2060   -6.3200   52.6770 N.am      2 SEC2        0.0000 
     21 N          -4.2780   -8.0130   52.4550 N.am      8 SEL2        0.0000 
     22 N          -4.1340   -4.6270   52.8990 N.am      5 SEP2        0.0000 
     23 O          -6.3925  -12.9535   48.0380 O.2       1 ALC1        0.0000 
     24 O          -5.5760  -12.5030   49.1070 O.2       7 ALL1        0.0000 
     25 O          -7.2090  -13.4040   46.9690 O.2       4 ALP1        0.0000 
     26 CA         -2.7490  -11.1765   51.6045 C.3       3 GLC5        0.0000 
     27 CA         -4.1610  -11.0010   50.3290 C.3       9 GLL5        0.0000 
     28 CA         -1.3370  -11.3520   52.8800 C.3       6 GLP5        0.0000 
     29 N          -3.5455   -6.4350   48.0935 N.am      2 SEC2        0.0000 
     30 N          -3.4730   -7.9700   48.1990 N.am      8 SEL2        0.0000 
     31 N          -3.6180   -4.9000   47.9880 N.am      5 SEP2        0.0000 
     32 CA         -0.6300   -8.9370   47.6985 C.3       3 GLC5        0.0000 
     33 CA         -1.5900   -7.7190   46.1470 C.3       9 GLL5        0.0000 
     34 CA         -3.4045   -7.7215   45.6700 C.3       3 GLC5        0.0000 
     35 CA         -5.2190   -7.7240   45.1930 C.3       6 GLP5        0.0000 
     36 O          -5.3085   -6.3305   55.0800 O.2       1 ALC1        0.0000 
     37 O          -5.4280   -7.7970   55.3050 O.2       7 ALL1        0.0000 
     38 O          -5.1890   -4.8640   54.8550 O.2       4 ALP1        0.0000 
     39 N         -10.4145  -13.5610   58.6905 N.am      2 SEC2        0.0000 
     40 N          -9.8250  -12.7320   59.6040 N.am      8 SEL2        0.0000 
     41 N         -11.0040  -14.3900   57.7770 N.am      5 SEP2        0.0000 
     42 CA         -1.7530   -9.6640   44.2895 C.3       3 GLC5        0.0000 
     43 CA         -1.0650   -7.8060   44.7330 C.3       9 GLL5        0.0000 
     44 CA         -2.4410  -11.5220   43.8460 C.3       6 GLP5        0.0000 
     45 CA          0.0775   -8.7585   43.2905 C.3       3 GLC5        0.0000 
     46 CA          1.2200   -9.7110   41.8480 C.3       6 GLP5        0.0000 
     47 CA         -1.5295   -7.1235   43.2920 C.3       3 GLC5        0.0000 
     48 CA         -1.9940   -6.4410   41.8510 C.3       6 GLP5        0.0000 
     49 CA         -3.0810   -8.2435   44.4520 C.3       3 GLC5        0.0000 
     50 CA         -5.0970   -8.6810   44.1710 C.3       6 GLP5        0.0000 
     51 O          -6.4825  -11.8955   59.1225 O.2       1 ALC1        0.0000 
     52 O          -7.7270  -12.5110   58.9730 O.2       7 ALL1        0.0000 
     53 O          -5.2380  -11.2800   59.2720 O.2       4 ALP1        0.0000 
     54 O          -6.8420  -11.9645   60.1655 O.2       1 ALC1        0.0000 
     55 O          -5.9570  -11.4180   61.3580 O.2       4 ALP1        0.0000 
     56 O          -7.2560  -11.3775   61.0505 O.2       1 ALC1        0.0000 
     57 O          -8.5550  -11.3370   60.7430 O.2       7 ALL1        0.0000 
     58 CA         -4.1425  -11.3415   54.1815 C.3       3 GLC5        0.0000 
     59 CA         -4.9080  -10.1160   52.5480 C.3       9 GLL5        0.0000 
     60 CA         -3.3770  -12.5670   55.8150 C.3       6 GLP5        0.0000 
     61 CA         -4.4160  -10.7305   55.1670 C.3       3 GLC5        0.0000 
     62 CA         -5.4550   -8.8940   54.5190 C.3       9 GLL5        0.0000 
     63 CA         -4.6865  -11.8685   55.0655 C.3       3 GLC5        0.0000 
     64 CA         -5.9960  -11.1700   54.3160 C.3       9 GLL5        0.0000 
     65 CA         -7.7875  -11.3235   53.6390 C.3       3 GLC5        0.0000 
     66 CA         -9.5790  -11.4770   52.9620 C.3       6 GLP5        0.0000 
     67 CA         -4.1035   -9.1155   55.9460 C.3       3 GLC5        0.0000 
     68 CA         -5.6890   -7.9240   56.7310 C.3       9 GLL5        0.0000 
     69 CA         -2.5180  -10.3070   55.1610 C.3       6 GLP5        0.0000 
     70 CA         -4.3985   -8.6945   58.3025 C.3       3 GLC5        0.0000 
     71 CA         -3.1080   -9.4650   59.8740 C.3       6 GLP5        0.0000 
     72 CA        -12.1710   -9.9405   54.6615 C.3       3 GLC5        0.0000 
     73 CA        -10.3180   -9.3560   55.7170 C.3       9 GLL5        0.0000 
     74 CA        -14.0240  -10.5250   53.6060 C.3       6 GLP5        0.0000 
     75 CA         -9.0810   -5.5560   55.5095 C.3       3 GLC5        0.0000 
     76 CA         -8.6710   -7.6240   55.4440 C.3       9 GLL5        0.0000 
     77 CA         -9.4910   -3.4880   55.5750 C.3       6 GLP5        0.0000 
     78 CA        -10.0225   -7.4510   57.0595 C.3       3 GLC5        0.0000 
     79 CA        -11.3740   -7.2780   58.6750 C.3       6 GLP5        0.0000 
     80 CA         -8.7105  -14.9960   56.3075 C.3       3 GLC5        0.0000 
     81 CA         -8.3970  -12.9590   56.6040 C.3       9 GLL5        0.0000 
     82 CA         -9.0240  -17.0330   56.0110 C.3       6 GLP5        0.0000 
     83 CA         -8.9880  -12.2180   54.7830 C.3       3 GLC5        0.0000 
     84 CA         -7.8405  -15.4235   57.4225 C.3       3 GLC5        0.0000 
     85 CA         -7.8020  -13.4780   57.8910 C.3       9 GLL5        0.0000 
     86 CA         -7.8790  -17.3690   56.9540 C.3       6 GLP5        0.0000 
     87 CA         -7.3480  -14.7210   59.2410 C.3       3 GLC5        0.0000 
     88 CA         -6.8940  -15.9640   60.5910 C.3       6 GLP5        0.0000 
     89 CA        -11.1820   -6.8045   60.8120 C.3       3 GLC5        0.0000 
     90 CA        -10.9900   -6.3310   62.9490 C.3       9 GLL5        0.0000 
     91 CA         -3.6535  -12.6627   49.1050 C.3       3 GLC5        0.0000 
     92 CA         -6.3217   -9.1645   49.1692 C.3       3 GLC5        0.0000 
     93 CA         -7.3880   -7.6500   49.4700 C.3       6 GLP5        0.0000 
     94 CA         -4.7885   -8.9965   46.6940 C.3       3 GLC5        0.0000 
     95 CA         -9.4529   -6.6040   59.1337 C.3       3 GLC5        0.0000 
     96 CA         -7.7260   -5.4920   60.3700 C.3       9 GLL5        0.0000 
     97 CA         -6.5698   -4.3800   60.6974 C.3       3 GLC5        0.0000 
     98 CA         -7.6760   -5.8060   59.0290 C.3       9 GLL5        0.0000 
     99 CA         -5.7430   -2.7910   60.8900 C.3       6 GLP5        0.0000 
    100 CA         -5.1975   -8.8143   60.6030 C.3       3 GLC5        0.0000 
    101 CA         -6.4090   -7.4170   60.9010 C.3       9 GLL5        0.0000 
    102 CA         -4.0090  -10.0510   60.9850 C.3       6 GLP5        0.0000 
    103 CA        -10.2295   -8.1780   57.8389 C.3       3 GLC5        0.0000 
    104 CA         -8.6730   -8.9830   57.4360 C.3       9 GLL5        0.0000 
    105 CA        -11.5135   -7.9440   55.8118 C.3       3 GLC5        0.0000 
    106 CA        -12.9840   -7.0510   56.2860 C.3       6 GLP5        0.0000 
    107 CA         -8.8507   -7.4010   53.3625 C.3       3 GLC5        0.0000 
    108 CA         -9.7680   -8.3180   54.9580 C.3       9 GLL5        0.0000 
    109 CA         -8.4820   -6.8310   51.5240 C.3       6 GLP5        0.0000 
    110 CA         -9.7423  -10.1981   54.3035 C.3       3 GLC5        0.0000 
    111 CA        -10.0108  -13.4492   57.1328 C.3       3 GLC5        0.0000 
    112 CA        -11.9220  -13.6800   57.0180 C.3       6 GLP5        0.0000 
    113 CA        -12.5482  -10.0780   60.8155 C.3       3 GLC5        0.0000 
    114 CA        -10.5270   -9.8930   61.0950 C.3       9 GLL5        0.0000 
    115 CA        -14.1350  -10.6140   60.0160 C.3       6 GLP5        0.0000 
    116 CA        -11.1678   -8.4100   60.1450 C.3       3 GLC5        0.0000 
    117 CA        -11.3960   -9.1910   62.1350 C.3       9 GLL5        0.0000 
    118 CA        -11.6896   -4.2172   64.3090 C.3       3 GLC5        0.0000 
    119 CA         -9.6810   -4.7340   64.1940 C.3       9 GLL5        0.0000 
    120 CA        -13.1180   -3.2340   64.9650 C.3       6 GLP5        0.0000 
@<TRIPOS>BOND
@<TRIPOS>SUBSTRUCTURE
     1 ALC1        7 GROUP        1 X    ALC  0     ROOT ALC X 1
     2 SEC2       20 GROUP        1 X    SEC  0     **** SEC X 2
     3 GLC5        1 GROUP        1 X    GLC  0     **** GLC X 6
     4 ALP1        9 GROUP        1 Y    ALP  0     ROOT ALP Y 8
     5 SEP2       22 GROUP        1 Y    SEP  0     **** SEP Y 9
     6 GLP5        3 GROUP        1 Y    GLP  0     **** GLP Y 13
     7 ALL1        8 GROUP        1 Z    ALL  0     ROOT ALL Z 15
     8 SEL2       21 GROUP        1 Z    SEL  0     **** SEL Z 16
     9 GLL5        2 GROUP        1 Z    GLL  0     **** GLL Z 20
@<TRIPOS>SET

