#    Name: 3qak_UKA_1_ligand
#    Modification time : Tue Mar 25 09:15:00 2014

@<TRIPOS>MOLECULE
3qak_UKA_1_ligand
  104   110     1     0     0
SMALL
NO_CHARGES


@<TRIPOS>ATOM
      1 C1         -5.4030  -11.1280   49.4650 C.3       1 UKA1200     0.0000 
      2 N1         -4.3290   -9.9270   51.3680 N.pl3     1 UKA1200     0.0000 
      3 O1         -3.1030  -10.7160   49.4040 O.3       1 UKA1200     0.0000 
      4 C2         -5.1080  -10.2300   48.2720 C.3       1 UKA1200     0.0000 
      5 N2         -2.1660   -8.9620   46.6600 N.am      1 UKA1200     0.0000 
      6 O2         -5.7350  -10.6420   47.0650 O.3       1 UKA1200     0.0000 
      7 C3         -3.6080  -10.3080   48.1180 C.3       1 UKA1200     0.0000 
      8 N3         -4.2780   -8.0130   52.4550 N.2       1 UKA1200     0.0000 
      9 O3         -5.5760  -12.5030   49.1070 O.3       1 UKA1200     0.0000 
     10 C4         -4.1610  -11.0010   50.3290 C.3       1 UKA1200     0.0000 
     11 N4         -5.9900  -10.0200   55.0120 N.ar      1 UKA1200     0.0000 
     12 O4         -3.4730   -7.9700   48.1990 O.2       1 UKA1200     0.0000 
     13 C5         -3.0710   -8.9830   47.6590 C.2       1 UKA1200     0.0000 
     14 N5         -5.4670  -11.2130   53.0940 N.ar      1 UKA1200     0.0000 
     15 O5         -6.5250  -13.4780   54.4540 O.2       1 UKA1200     0.0000 
     16 C6         -1.5900   -7.7190   46.1470 C.3       1 UKA1200     0.0000 
     17 N6         -5.4280   -7.7970   55.3050 N.pl3     1 UKA1200     0.0000 
     18 O6         -9.8250  -12.7320   59.6040 O.2       1 UKA1200     0.0000 
     19 C7         -1.0650   -7.8060   44.7330 C.3       1 UKA1200     0.0000 
     20 N7         -7.4820  -12.0490   55.9490 N.am      1 UKA1200     0.0000 
     21 C8         -3.9440   -8.6430   51.3090 C.2       1 UKA1200     0.0000 
     22 N8         -7.7270  -12.5110   58.9730 N.am      1 UKA1200     0.0000 
     23 C9         -4.8820   -8.9260   53.2460 C.ar      1 UKA1200     0.0000 
     24 N9         -8.5550  -11.3370   60.7430 N.am      1 UKA1200     0.0000 
     25 C10        -4.9080  -10.1160   52.5480 C.ar      1 UKA1200     0.0000 
     26 N10       -10.5180   -8.7490   63.2270 N.3       1 UKA1200     0.0000 
     27 C11        -5.4550   -8.8940   54.5190 C.ar      1 UKA1200     0.0000 
     28 N11        -9.2950   -7.0630   64.4370 N.ar      1 UKA1200     0.0000 
     29 C12        -5.9960  -11.1700   54.3160 C.ar      1 UKA1200     0.0000 
     30 C13        -5.6890   -7.9240   56.7310 C.3       1 UKA1200     0.0000 
     31 C14        -6.9630   -7.1980   57.1430 C.3       1 UKA1200     0.0000 
     32 C15        -6.9990   -6.9300   58.6010 C.ar      1 UKA1200     0.0000 
     33 C16        -8.1310   -7.9590   56.6810 C.ar      1 UKA1200     0.0000 
     34 C17        -7.6760   -5.8060   59.0290 C.ar      1 UKA1200     0.0000 
     35 C18        -7.7260   -5.4920   60.3700 C.ar      1 UKA1200     0.0000 
     36 C19        -7.0920   -6.2890   61.3100 C.ar      1 UKA1200     0.0000 
     37 C20        -6.4090   -7.4170   60.9010 C.ar      1 UKA1200     0.0000 
     38 C21        -6.3630   -7.7380   59.5410 C.ar      1 UKA1200     0.0000 
     39 C22        -8.6730   -8.9830   57.4360 C.ar      1 UKA1200     0.0000 
     40 C23        -9.7680   -9.6850   56.9470 C.ar      1 UKA1200     0.0000 
     41 C24       -10.3180   -9.3560   55.7170 C.ar      1 UKA1200     0.0000 
     42 C25        -9.7680   -8.3180   54.9580 C.ar      1 UKA1200     0.0000 
     43 C26        -8.6710   -7.6240   55.4440 C.ar      1 UKA1200     0.0000 
     44 C27        -6.6650  -12.3610   54.9290 C.2       1 UKA1200     0.0000 
     45 C28        -8.3970  -12.9590   56.6040 C.3       1 UKA1200     0.0000 
     46 C29        -7.8020  -13.4780   57.8910 C.3       1 UKA1200     0.0000 
     47 C30        -8.7470  -12.2190   59.7700 C.2       1 UKA1200     0.0000 
     48 C31        -9.5870  -10.9340   61.6990 C.3       1 UKA1200     0.0000 
     49 C32       -10.5270   -9.8930   61.0950 C.3       1 UKA1200     0.0000 
     50 C33       -11.3960   -9.1910   62.1350 C.3       1 UKA1200     0.0000 
     51 C34        -9.8660   -9.8300   63.9600 C.3       1 UKA1200     0.0000 
     52 C35        -8.8830  -10.4010   62.9530 C.3       1 UKA1200     0.0000 
     53 C36       -10.9900   -6.3310   62.9490 C.ar      1 UKA1200     0.0000 
     54 C37       -10.6930   -5.0030   63.2750 C.ar      1 UKA1200     0.0000 
     55 C38        -9.6810   -4.7340   64.1940 C.ar      1 UKA1200     0.0000 
     56 C39        -8.9880   -5.8010   64.7720 C.ar      1 UKA1200     0.0000 
     57 C40       -10.2740   -7.3810   63.5420 C.ar      1 UKA1200     0.0000 
     58 H          -6.2203  -10.7242   50.0067 H         1 UKA1200     0.0000 
     59 H          -5.3486   -9.2197   48.5484 H         1 UKA1200     0.0000 
     60 H          -1.8333   -9.8386   46.2044 H         1 UKA1200     0.0000 
     61 H          -3.3989  -11.0626   47.3730 H         1 UKA1200     0.0000 
     62 H          -3.9997  -11.9538   50.8051 H         1 UKA1200     0.0000 
     63 H          -0.7575   -7.3826   46.8067 H         1 UKA1200     0.0000 
     64 H          -2.3465   -6.9020   46.1871 H         1 UKA1200     0.0000 
     65 H          -5.2296   -6.8595   54.9452 H         1 UKA1200     0.0000 
     66 H          -7.4865  -11.0551   56.3386 H         1 UKA1200     0.0000 
     67 H          -3.4906   -8.2236   50.5536 H         1 UKA1200     0.0000 
     68 H          -6.7879  -12.0431   59.0894 H         1 UKA1200     0.0000 
     69 H          -7.6188  -10.8660   60.8818 H         1 UKA1200     0.0000 
     70 H          -4.8539   -7.5106   57.3200 H         1 UKA1200     0.0000 
     71 H          -5.7912   -8.9836   57.0173 H         1 UKA1200     0.0000 
     72 H          -6.9532   -6.2255   56.6104 H         1 UKA1200     0.0000 
     73 H          -8.1480   -5.1967   58.3391 H         1 UKA1200     0.0000 
     74 H          -8.2435   -4.6498   60.6830 H         1 UKA1200     0.0000 
     75 H          -7.1315   -6.0393   62.3070 H         1 UKA1200     0.0000 
     76 H          -5.9368   -8.0194   61.5828 H         1 UKA1200     0.0000 
     77 H          -5.8540   -8.5795   59.2336 H         1 UKA1200     0.0000 
     78 H          -8.2727   -9.2244   58.3488 H         1 UKA1200     0.0000 
     79 H         -10.1728  -10.4540   57.5021 H         1 UKA1200     0.0000 
     80 H         -11.1312   -9.8728   55.3581 H         1 UKA1200     0.0000 
     81 H         -10.1769   -8.0767   54.0504 H         1 UKA1200     0.0000 
     82 H          -8.2555   -6.8622   54.8922 H         1 UKA1200     0.0000 
     83 H          -8.6273  -13.8175   55.9571 H         1 UKA1200     0.0000 
     84 H          -9.3477  -12.4591   56.8379 H         1 UKA1200     0.0000 
     85 H          -8.3967  -14.3694   58.2107 H         1 UKA1200     0.0000 
     86 H          -6.7841  -13.8808   57.6623 H         1 UKA1200     0.0000 
     87 H         -10.1699  -11.8001   61.9936 H         1 UKA1200     0.0000 
     88 H         -11.1773  -10.3836   60.3567 H         1 UKA1200     0.0000 
     89 H          -9.9308   -9.1406   60.5592 H         1 UKA1200     0.0000 
     90 H         -11.8847   -8.3467   61.6649 H         1 UKA1200     0.0000 
     91 H         -12.1393   -9.8915   62.4949 H         1 UKA1200     0.0000 
     92 H         -10.5636  -10.5911   64.2353 H         1 UKA1200     0.0000 
     93 H          -9.3244   -9.4588   64.8030 H         1 UKA1200     0.0000 
     94 H          -8.1726   -9.6232   62.6560 H         1 UKA1200     0.0000 
     95 H          -8.3198  -11.2171   63.4161 H         1 UKA1200     0.0000 
     96 H         -11.7345   -6.5389   62.2734 H         1 UKA1200     0.0000 
     97 H         -11.2155   -4.2389   62.8412 H         1 UKA1200     0.0000 
     98 H          -9.4478   -3.7726   64.4427 H         1 UKA1200     0.0000 
     99 H          -8.2400   -5.5906   65.4578 H         1 UKA1200     0.0000 
    100 H          -0.6787   -6.9362   44.4261 H         1 UKA1200     0.0000 
    101 H          -0.3443   -8.4938   44.6461 H         1 UKA1200     0.0000 
    102 H          -1.7849   -8.0522   44.0840 H         1 UKA1200     0.0000 
    103 H          -6.7008  -10.4112   47.1833 H         1 UKA1200     0.0000 
    104 H          -5.8638  -12.4868   48.1494 H         1 UKA1200     0.0000 
@<TRIPOS>BOND
     1    4    1 1    
     2    9    1 1    
     3   10    1 1    
     4   58    1 1    
     5   10    2 1    
     6   21    2 1    
     7   25    2 1    
     8    7    3 1    
     9   10    3 1    
    10    6    4 1    
    11    7    4 1    
    12   59    4 1    
    13   13    5 am   
    14   16    5 1    
    15   60    5 1    
    16  103    6 1    
    17   13    7 1    
    18   61    7 1    
    19   21    8 2    
    20   23    8 1    
    21  104    9 1    
    22   62   10 1    
    23   27   11 ar   
    24   29   11 ar   
    25   13   12 2    
    26   25   14 ar   
    27   29   14 ar   
    28   44   15 2    
    29   19   16 1    
    30   63   16 1    
    31   64   16 1    
    32   27   17 1    
    33   30   17 1    
    34   65   17 1    
    35   47   18 2    
    36  100   19 1    
    37  101   19 1    
    38  102   19 1    
    39   44   20 am   
    40   45   20 1    
    41   66   20 1    
    42   67   21 1    
    43   46   22 1    
    44   47   22 am   
    45   68   22 1    
    46   25   23 ar   
    47   27   23 ar   
    48   47   24 am   
    49   48   24 1    
    50   69   24 1    
    51   50   26 1    
    52   51   26 1    
    53   57   26 1    
    54   56   28 ar   
    55   57   28 ar   
    56   44   29 1    
    57   31   30 1    
    58   70   30 1    
    59   71   30 1    
    60   32   31 1    
    61   33   31 1    
    62   72   31 1    
    63   34   32 ar   
    64   38   32 ar   
    65   39   33 ar   
    66   43   33 ar   
    67   35   34 ar   
    68   73   34 1    
    69   36   35 ar   
    70   74   35 1    
    71   37   36 ar   
    72   75   36 1    
    73   38   37 ar   
    74   76   37 1    
    75   77   38 1    
    76   40   39 ar   
    77   78   39 1    
    78   41   40 ar   
    79   79   40 1    
    80   42   41 ar   
    81   80   41 1    
    82   43   42 ar   
    83   81   42 1    
    84   82   43 1    
    85   46   45 1    
    86   83   45 1    
    87   84   45 1    
    88   85   46 1    
    89   86   46 1    
    90   49   48 1    
    91   52   48 1    
    92   87   48 1    
    93   50   49 1    
    94   88   49 1    
    95   89   49 1    
    96   90   50 1    
    97   91   50 1    
    98   52   51 1    
    99   92   51 1    
   100   93   51 1    
   101   94   52 1    
   102   95   52 1    
   103   54   53 ar   
   104   57   53 ar   
   105   96   53 1    
   106   55   54 ar   
   107   97   54 1    
   108   56   55 ar   
   109   98   55 1    
   110   99   56 1    
@<TRIPOS>SUBSTRUCTURE
     1 UKA1200     1 GROUP   
@<TRIPOS>SET

