#    Name: 3qtx_X43_1_INTS_M
#    Modification time : Tue Mar 25 10:08:42 2014

@<TRIPOS>MOLECULE
3qtx_X43_1_INTS_M
   52     0     9     0     0
SMALL
NO_CHARGES


@<TRIPOS>ATOM
      1 O         -13.3805  -82.0520  -89.4090 O.2       1 ALC1        0.0000 
      2 O         -13.5540  -81.3820  -88.2410 O.2       7 ALL1        0.0000 
      3 O         -13.2070  -82.7220  -90.5770 O.2       4 ALP1        0.0000 
      4 CA        -12.9105  -75.3055  -83.7185 C.3       3 GLC5        0.0000 
      5 CA        -14.1900  -77.0460  -83.1040 C.3       9 GLL5        0.0000 
      6 CA        -11.6310  -73.5650  -84.3330 C.3       6 GLP5        0.0000 
      7 CA        -12.7490  -82.5105  -83.7705 C.3       3 GLC5        0.0000 
      8 CA        -12.3740  -80.7180  -84.5890 C.3       9 GLL5        0.0000 
      9 CA        -13.1240  -84.3030  -82.9520 C.3       6 GLP5        0.0000 
     10 CA        -11.6110  -79.7645  -86.0730 C.3       3 GLC5        0.0000 
     11 CA        -10.8480  -78.8110  -87.5570 C.3       6 GLP5        0.0000 
     12 O          -9.4035  -83.1115  -85.9015 O.2       1 ALC1        0.0000 
     13 O         -10.3370  -82.5560  -85.0840 O.2       7 ALL1        0.0000 
     14 O          -8.4700  -83.6670  -86.7190 O.2       4 ALP1        0.0000 
     15 CA         -8.2805  -79.2840  -82.2250 C.3       3 GLC5        0.0000 
     16 CA         -9.0750  -81.1460  -81.8130 C.3       9 GLL5        0.0000 
     17 CA         -7.4860  -77.4220  -82.6370 C.3       6 GLP5        0.0000 
     18 N          -5.6450  -80.1025  -82.1530 N.am      2 SEC2        0.0000 
     19 N          -5.4890  -81.0910  -80.9540 N.am      8 SEL2        0.0000 
     20 N          -5.8010  -79.1140  -83.3520 N.am      5 SEP2        0.0000 
     21 N          -4.5805  -82.5180  -81.3860 N.am      2 SEC2        0.0000 
     22 N          -3.6720  -83.9450  -81.8180 N.am      5 SEP2        0.0000 
     23 O          -7.7675  -79.3320  -79.8980 O.2       1 ALC1        0.0000 
     24 O          -7.3820  -80.6060  -79.3420 O.2       7 ALL1        0.0000 
     25 O          -8.1530  -78.0580  -80.4540 O.2       4 ALP1        0.0000 
     26 CA        -14.1580  -82.3880  -86.7028 C.3       3 GLC5        0.0000 
     27 CA        -13.3910  -80.4840  -85.9640 C.3       9 GLL5        0.0000 
     28 CA        -15.1300  -83.8780  -86.9150 C.3       6 GLP5        0.0000 
     29 CA        -12.0170  -79.8545  -87.0238 C.3       3 GLC5        0.0000 
     30 CA        -12.9810  -81.3120  -87.0170 C.3       9 GLL5        0.0000 
     31 CA        -16.1013  -80.4115  -83.9013 C.3       3 GLC5        0.0000 
     32 CA        -14.8280  -78.7200  -84.8240 C.3       9 GLL5        0.0000 
     33 CA        -16.7050  -82.1050  -83.2310 C.3       6 GLP5        0.0000 
     34 CA        -13.7520  -77.1813  -86.2240 C.3       3 GLC5        0.0000 
     35 CA        -13.1680  -76.0650  -87.9330 C.3       6 GLP5        0.0000 
     36 CA        -16.0678  -76.7495  -84.9158 C.3       3 GLC5        0.0000 
     37 CA        -16.6380  -74.7810  -85.2600 C.3       6 GLP5        0.0000 
     38 CA        -16.6298  -79.0002  -82.1183 C.3       3 GLC5        0.0000 
     39 CA        -16.5410  -77.8800  -83.1970 C.3       9 GLL5        0.0000 
     40 CA        -17.2300  -80.5370  -81.3370 C.3       6 GLP5        0.0000 
     41 CA        -16.3338  -76.1223  -84.0798 C.3       3 GLC5        0.0000 
     42 CA        -15.3275  -76.1208  -84.4575 C.3       3 GLC5        0.0000 
     43 CA        -11.4430  -83.0750  -83.1930 C.3       3 GLC5        0.0000 
     44 CA         -9.9070  -81.3360  -82.9420 C.3       9 GLL5        0.0000 
     45 CA         -9.5855  -80.0440  -84.5070 C.3       3 GLC5        0.0000 
     46 CA         -9.6170  -82.3580  -83.9260 C.3       9 GLL5        0.0000 
     47 CA         -9.4090  -78.2410  -85.5800 C.3       6 GLP5        0.0000 
     48 CA         -6.9408  -83.6958  -84.7237 C.3       3 GLC5        0.0000 
     49 CA         -8.4620  -83.1730  -83.7230 C.3       9 GLL5        0.0000 
     50 CA         -5.8350  -84.3200  -86.2870 C.3       6 GLP5        0.0000 
     51 CA         -6.5014  -81.8876  -83.3024 C.3       3 GLC5        0.0000 
     52 CA         -5.0150  -81.2600  -84.1990 C.3       6 GLP5        0.0000 
@<TRIPOS>BOND
@<TRIPOS>SUBSTRUCTURE
     1 ALC1        1 GROUP        1 X    ALC  0     ROOT ALC X 1
     2 SEC2       18 GROUP        1 X    SEC  0     **** SEC X 2
     3 GLC5        4 GROUP        1 X    GLC  0     **** GLC X 6
     4 ALP1        3 GROUP        1 Y    ALP  0     ROOT ALP Y 8
     5 SEP2       20 GROUP        1 Y    SEP  0     **** SEP Y 9
     6 GLP5        6 GROUP        1 Y    GLP  0     **** GLP Y 13
     7 ALL1        2 GROUP        1 Z    ALL  0     ROOT ALL Z 15
     8 SEL2       19 GROUP        1 Z    SEL  0     **** SEL Z 16
     9 GLL5        5 GROUP        1 Z    GLL  0     **** GLL Z 20
@<TRIPOS>SET

