#    Name: 3qtx_X43_1_ligand
#    Modification time : Tue Mar 25 10:08:42 2014

@<TRIPOS>MOLECULE
3qtx_X43_1_ligand
   41    43     1     0     0
SMALL
NO_CHARGES


@<TRIPOS>ATOM
      1 N1        -11.9140  -82.0730  -86.7360 N.2       1 X43299      0.0000 
      2 C2        -12.9810  -81.3120  -87.0170 C.2       1 X43299      0.0000 
      3 N3        -13.5540  -81.3820  -88.2410 N.pl3     1 X43299      0.0000 
      4 C4        -13.3910  -80.4840  -85.9640 C.2       1 X43299      0.0000 
      5 C5        -14.4480  -79.5900  -85.9840 C.2       1 X43299      0.0000 
      6 C6        -14.8280  -78.7200  -84.8240 C.ar      1 X43299      0.0000 
      7 C7        -16.1670  -78.7160  -84.3190 C.ar      1 X43299      0.0000 
      8 C8        -16.5410  -77.8800  -83.1970 C.ar      1 X43299      0.0000 
      9 C9        -15.5180  -77.0470  -82.6020 C.ar      1 X43299      0.0000 
     10 C10       -14.1900  -77.0460  -83.1040 C.ar      1 X43299      0.0000 
     11 C11       -13.8440  -77.8750  -84.2060 C.ar      1 X43299      0.0000 
     12 O12       -15.2080  -79.4480  -87.1010 O.2       1 X43299      0.0000 
     13 S13       -12.3740  -80.7180  -84.5890 S.3       1 X43299      0.0000 
     14 C14       -11.4500  -81.8600  -85.5010 C.2       1 X43299      0.0000 
     15 N15       -10.3370  -82.5560  -85.0840 N.pl3     1 X43299      0.0000 
     16 C16        -9.6170  -82.3580  -83.9260 C.ar      1 X43299      0.0000 
     17 N17       -17.7950  -77.8880  -82.7260 N.pl3     1 X43299      0.0000 
     18 O18       -18.7360  -78.6530  -83.2720 O.2       1 X43299      0.0000 
     19 O19       -18.1250  -77.1980  -81.7830 O.2       1 X43299      0.0000 
     20 C20        -8.4620  -83.1730  -83.7230 C.ar      1 X43299      0.0000 
     21 C21        -7.6310  -82.9700  -82.5980 C.ar      1 X43299      0.0000 
     22 C22        -7.9290  -81.9590  -81.6510 C.ar      1 X43299      0.0000 
     23 C23        -9.0750  -81.1460  -81.8130 C.ar      1 X43299      0.0000 
     24 C24        -9.9070  -81.3360  -82.9420 C.ar      1 X43299      0.0000 
     25 S25        -6.8560  -81.7170  -80.3010 S.o2      1 X43299      0.0000 
     26 O26        -5.4890  -81.0910  -80.9540 O.2       1 X43299      0.0000 
     27 O27        -6.5040  -83.0140  -79.6120 O.2       1 X43299      0.0000 
     28 N28        -7.3820  -80.6060  -79.3420 N.pl3     1 X43299      0.0000 
     29 H         -13.1073  -81.9848  -88.9021 H         1 X43299      0.0000 
     30 H         -14.3733  -80.8247  -88.3758 H         1 X43299      0.0000 
     31 H         -16.8752  -79.3092  -84.7513 H         1 X43299      0.0000 
     32 H         -15.7674  -76.4540  -81.8080 H         1 X43299      0.0000 
     33 H         -13.4833  -76.4508  -82.6746 H         1 X43299      0.0000 
     34 H         -12.8897  -77.8745  -84.5662 H         1 X43299      0.0000 
     35 H          -9.9892  -83.3461  -85.7383 H         1 X43299      0.0000 
     36 H          -8.2405  -83.9059  -84.3992 H         1 X43299      0.0000 
     37 H          -6.8032  -83.5598  -82.4642 H         1 X43299      0.0000 
     38 H          -9.2991  -80.4324  -81.1258 H         1 X43299      0.0000 
     39 H         -10.7331  -80.7467  -83.0783 H         1 X43299      0.0000 
     40 H          -7.5703  -80.8894  -78.4017 H         1 X43299      0.0000 
     41 H          -7.4906  -79.6955  -79.7410 H         1 X43299      0.0000 
@<TRIPOS>BOND
     1    2    1 1    
     2   14    1 2    
     3    3    2 1    
     4    4    2 2    
     5   29    3 1    
     6   30    3 1    
     7    5    4 1    
     8   13    4 1    
     9    6    5 1    
    10   12    5 2    
    11    7    6 ar   
    12   11    6 ar   
    13    8    7 ar   
    14   31    7 1    
    15    9    8 ar   
    16   17    8 1    
    17   10    9 ar   
    18   32    9 1    
    19   11   10 ar   
    20   33   10 1    
    21   34   11 1    
    22   14   13 1    
    23   15   14 1    
    24   16   15 1    
    25   35   15 1    
    26   20   16 ar   
    27   24   16 ar   
    28   18   17 2    
    29   19   17 2    
    30   21   20 ar   
    31   36   20 1    
    32   22   21 ar   
    33   37   21 1    
    34   23   22 ar   
    35   25   22 1    
    36   24   23 ar   
    37   38   23 1    
    38   39   24 1    
    39   26   25 2    
    40   27   25 2    
    41   28   25 1    
    42   40   28 1    
    43   41   28 1    
@<TRIPOS>SUBSTRUCTURE
     1 X43299      1 GROUP   
@<TRIPOS>SET

