#    Name: 4ao4_PLK_2_INTS_M
#    Modification time : Tue Mar 25 05:53:42 2014

@<TRIPOS>MOLECULE
4ao4_PLK_2_INTS_M
   92     0     9     0     0
SMALL
NO_CHARGES


@<TRIPOS>ATOM
      1 CA         37.1435   87.7805   23.4125 C.3       3 GLC5        0.0000 
      2 CA         38.8850   87.0240   22.3000 C.3       9 GLL5        0.0000 
      3 CA         35.4020   88.5370   24.5250 C.3       6 GLP5        0.0000 
      4 CA         37.5750   85.7925   18.6810 C.3       3 GLC5        0.0000 
      5 CA         37.7700   85.5820   20.5490 C.3       9 GLL5        0.0000 
      6 CA         37.3800   86.0030   16.8130 C.3       6 GLP5        0.0000 
      7 CA         37.0035   84.5060   19.0770 C.3       3 GLC5        0.0000 
      8 CA         36.9720   84.4720   21.2740 C.3       9 GLL5        0.0000 
      9 CA         37.0350   84.5400   16.8800 C.3       6 GLP5        0.0000 
     10 CA         36.6760   82.6755   20.3620 C.3       3 GLC5        0.0000 
     11 CA         36.3800   80.8790   19.4500 C.3       6 GLP5        0.0000 
     12 CA         35.5905   86.8370   23.2955 C.3       3 GLC5        0.0000 
     13 CA         35.7790   85.1370   22.0660 C.3       9 GLL5        0.0000 
     14 CA         33.9620   85.3870   23.2380 C.3       3 GLC5        0.0000 
     15 CA         32.1450   85.6370   24.4100 C.3       6 GLP5        0.0000 
     16 CA         33.7880   84.6325   21.5045 C.3       3 GLC5        0.0000 
     17 CA         31.7970   84.1280   20.9430 C.3       6 GLP5        0.0000 
     18 NZ         33.9075   86.2740   18.9435 N.4       2 LYC4        0.0000 
     19 NZ         34.8850   85.7880   19.8750 N.4       8 LYL4        0.0000 
     20 NZ         31.9310   87.4520   18.5380 N.4       5 LYP4        0.0000 
     21 NZ         35.4670   84.0600   19.6145 N.4       2 LYC4        0.0000 
     22 NZ         36.0490   82.3320   19.3540 N.4       5 LYP4        0.0000 
     23 N          33.9075   86.2740   18.9435 N.am      1 SEC2        0.0000 
     24 N          34.8850   85.7880   19.8750 N.am      7 SEL2        0.0000 
     25 N          32.9300   86.7600   18.0120 N.am      4 SEP2        0.0000 
     26 NZ         33.0945   87.3755   20.7480 N.4       2 LYC4        0.0000 
     27 NZ         34.1360   86.8560   21.7150 N.4       8 LYL4        0.0000 
     28 N          33.5945   86.8175   23.0360 N.am      1 SEC2        0.0000 
     29 N          34.1360   86.8560   21.7150 N.am      7 SEL2        0.0000 
     30 N          33.0530   86.7790   24.3570 N.am      4 SEP2        0.0000 
     31 N          33.0945   87.3755   20.7480 N.am      1 SEC2        0.0000 
     32 N          32.0530   87.8950   19.7810 N.am      4 SEP2        0.0000 
     33 CA         37.9275   83.4825   24.0025 C.3       3 GLC5        0.0000 
     34 CA         37.1620   82.4620   22.7480 C.3       9 GLL5        0.0000 
     35 CA         38.6930   84.5030   25.2570 C.3       6 GLP5        0.0000 
     36 CA         39.9390   80.3070   20.8995 C.3       3 GLC5        0.0000 
     37 CA         39.2990   80.9480   22.9560 C.3       9 GLL5        0.0000 
     38 CA         40.5790   79.6660   18.8430 C.3       6 GLP5        0.0000 
     39 CA         43.1995   79.0245   23.7320 C.3       3 GLC5        0.0000 
     40 CA         41.4060   79.4710   23.0680 C.3       9 GLL5        0.0000 
     41 CA         44.9930   78.5780   24.3960 C.3       6 GLP5        0.0000 
     42 CA         40.9925   79.5685   20.9555 C.3       3 GLC5        0.0000 
     43 N          40.3435   78.5625   25.4885 N.am      1 SEC2        0.0000 
     44 N          39.5220   79.4050   24.7340 N.am      7 SEL2        0.0000 
     45 N          41.1650   77.7200   26.2430 N.am      4 SEP2        0.0000 
     46 CA         39.4035   80.3170   26.6615 C.3       3 GLC5        0.0000 
     47 CA         38.3260   79.7700   25.2190 C.3       9 GLL5        0.0000 
     48 CA         40.4810   80.8640   28.1040 C.3       6 GLP5        0.0000 
     49 CA         37.9860   77.9980   24.5600 C.3       3 GLC5        0.0000 
     50 CA         37.6460   76.2260   23.9010 C.3       6 GLP5        0.0000 
     51 CA         35.2685   80.5495   27.0365 C.3       3 GLC5        0.0000 
     52 CA         36.1820   81.1010   25.2190 C.3       9 GLL5        0.0000 
     53 CA         34.3550   79.9980   28.8540 C.3       6 GLP5        0.0000 
     54 CA         37.4375   82.8020   25.2380 C.3       3 GLC5        0.0000 
     55 N          33.0315   83.6145   23.1020 N.am      1 SEC2        0.0000 
     56 N          34.0280   82.9020   23.8240 N.am      7 SEL2        0.0000 
     57 N          32.0350   84.3270   22.3800 N.am      4 SEP2        0.0000 
     58 N          33.8460   82.7410   22.3635 N.am      1 SEC2        0.0000 
     59 N          33.6640   82.5800   20.9030 N.am      4 SEP2        0.0000 
     60 N          32.8590   79.4690   24.3295 N.am      1 SEC2        0.0000 
     61 N          32.7960   80.7030   23.3990 N.am      7 SEL2        0.0000 
     62 N          32.9220   78.2350   25.2600 N.am      4 SEP2        0.0000 
     63 N          33.7355   80.5155   26.6635 N.am      1 SEC2        0.0000 
     64 N          33.3230   81.5610   25.8460 N.am      7 SEL2        0.0000 
     65 N          34.1480   79.4700   27.4810 N.am      4 SEP2        0.0000 
     66 N          33.7805   81.9415   27.0065 N.am      1 SEC2        0.0000 
     67 N          34.2380   82.3220   28.1670 N.am      4 SEP2        0.0000 
     68 N          32.3265   82.3925   26.2735 N.am      1 SEC2        0.0000 
     69 N          31.3300   83.2240   26.7010 N.am      4 SEP2        0.0000 
     70 CA         38.8415   85.4958   23.5138 C.3       3 GLC5        0.0000 
     71 CA         39.1340   86.3145   18.7580 C.3       3 GLC5        0.0000 
     72 CA         39.0950   85.9530   21.2410 C.3       9 GLL5        0.0000 
     73 CA         38.7070   86.4100   16.8080 C.3       6 GLP5        0.0000 
     74 CA         39.3638   88.2024   20.4609 C.3       3 GLC5        0.0000 
     75 CA         40.0270   86.4850   20.1750 C.3       9 GLL5        0.0000 
     76 CA         39.2190   89.9180   19.9490 C.3       6 GLP5        0.0000 
     77 CA         41.1497   86.1819   21.5014 C.3       3 GLC5        0.0000 
     78 CA         42.7910   85.8770   22.0300 C.3       6 GLP5        0.0000 
     79 CA         39.5613   84.1953   19.6768 C.3       3 GLC5        0.0000 
     80 CA         40.4570   82.4900   18.7250 C.3       6 GLP5        0.0000 
     81 CA         37.5343   84.6538   23.4635 C.3       3 GLC5        0.0000 
     82 CA         36.9930   81.4005   21.2707 C.3       3 GLC5        0.0000 
     83 CA         39.4903   78.2918   22.9810 C.3       3 GLC5        0.0000 
     84 CA         40.0290   79.9560   23.6180 C.3       9 GLL5        0.0000 
     85 CA         38.2630   76.8700   22.6190 C.3       6 GLP5        0.0000 
     86 CA         37.6991   79.4207   22.9329 C.3       3 GLC5        0.0000 
     87 CA         37.5600   80.7540   24.5920 C.3       9 GLL5        0.0000 
     88 CA         37.2810   77.8820   21.9720 C.3       6 GLP5        0.0000 
     89 CA         35.6842   79.2698   25.3596 C.3       3 GLC5        0.0000 
     90 CA         34.3060   77.8580   25.6570 C.3       6 GLP5        0.0000 
     91 CA         37.1528   81.7762   26.6161 C.3       3 GLC5        0.0000 
     92 CA         37.2430   82.8710   28.1700 C.3       6 GLP5        0.0000 
@<TRIPOS>BOND
@<TRIPOS>SUBSTRUCTURE
     1 SEC2       23 GROUP        1 X    SEC  0     ROOT SEC X 2
     2 LYC4       18 GROUP        1 X    LYC  0     **** LYC X 4
     3 GLC5        1 GROUP        1 X    GLC  0     **** GLC X 6
     4 SEP2       25 GROUP        1 Y    SEP  0     ROOT SEP Y 9
     5 LYP4       20 GROUP        1 Y    LYP  0     **** LYP Y 11
     6 GLP5        3 GROUP        1 Y    GLP  0     **** GLP Y 13
     7 SEL2       24 GROUP        1 Z    SEL  0     ROOT SEL Z 16
     8 LYL4       19 GROUP        1 Z    LYL  0     **** LYL Z 18
     9 GLL5        2 GROUP        1 Z    GLL  0     **** GLL Z 20
@<TRIPOS>SET

