#    Name: 4ao4_PLK_2_ligand
#    Modification time : Tue Mar 25 05:53:42 2014

@<TRIPOS>MOLECULE
4ao4_PLK_2_ligand
   46    46     1     0     0
SMALL
NO_CHARGES


@<TRIPOS>ATOM
      1 C11        38.8850   87.0240   22.3000 C.3       1 PLK1445     0.0000 
      2 C12        39.0950   85.9530   21.2410 C.3       1 PLK1445     0.0000 
      3 C13        40.0270   86.4850   20.1750 C.3       1 PLK1445     0.0000 
      4 C14        37.7700   85.5820   20.5490 C.3       1 PLK1445     0.0000 
      5 C15        36.9720   84.4720   21.2740 C.3       1 PLK1445     0.0000 
      6 C16        35.7790   85.1370   22.0660 C.3       1 PLK1445     0.0000 
      7 C17        34.8490   85.9940   21.1400 C.2       1 PLK1445     0.0000 
      8 O11        34.8850   85.7880   19.8750 O.co2     1 PLK1445     0.0000 
      9 O12        34.1360   86.8560   21.7150 O.co2     1 PLK1445     0.0000 
     10 N11        37.8840   83.5500   22.0830 N.4       1 PLK1445     0.0000 
     11 C21        37.1620   82.4620   22.7480 C.3       1 PLK1445     0.0000 
     12 C22        38.0500   81.3820   23.4350 C.ar      1 PLK1445     0.0000 
     13 C23        39.2990   80.9480   22.9560 C.ar      1 PLK1445     0.0000 
     14 O21        39.8490   81.4910   21.8640 O.3       1 PLK1445     0.0000 
     15 C24        40.0290   79.9560   23.6180 C.ar      1 PLK1445     0.0000 
     16 C25        41.4060   79.4710   23.0680 C.3       1 PLK1445     0.0000 
     17 N21        39.5220   79.4050   24.7340 N.ar      1 PLK1445     0.0000 
     18 C26        38.3260   79.7700   25.2190 C.ar      1 PLK1445     0.0000 
     19 C27        37.5600   80.7540   24.5920 C.ar      1 PLK1445     0.0000 
     20 C28        36.1820   81.1010   25.2190 C.3       1 PLK1445     0.0000 
     21 O22        35.1240   80.6860   24.2550 O.3       1 PLK1445     0.0000 
     22 P          33.7230   81.4720   24.3840 P.3       1 PLK1445     0.0000 
     23 O1P        34.0280   82.9020   23.8240 O.co2     1 PLK1445     0.0000 
     24 O2P        32.7960   80.7030   23.3990 O.co2     1 PLK1445     0.0000 
     25 O3P        33.3230   81.5610   25.8460 O.co2     1 PLK1445     0.0000 
     26 H          39.5170   85.0813   21.6764 H         1 PLK1445     0.0000 
     27 H          37.9838   85.2489   19.5239 H         1 PLK1445     0.0000 
     28 H          37.1401   86.4797   20.4796 H         1 PLK1445     0.0000 
     29 H          36.4982   83.8668   20.4642 H         1 PLK1445     0.0000 
     30 H          36.1928   85.7766   22.8400 H         1 PLK1445     0.0000 
     31 H          35.1897   84.3498   22.5270 H         1 PLK1445     0.0000 
     32 H          36.5024   81.9293   22.0248 H         1 PLK1445     0.0000 
     33 H          36.4772   82.8655   23.5291 H         1 PLK1445     0.0000 
     34 H          37.9396   79.3237   26.0808 H         1 PLK1445     0.0000 
     35 H          36.1471   82.1643   25.3928 H         1 PLK1445     0.0000 
     36 H          36.0873   80.5624   26.1481 H         1 PLK1445     0.0000 
     37 H          39.7454   87.2908   22.7341 H         1 PLK1445     0.0000 
     38 H          38.4817   87.8538   21.9142 H         1 PLK1445     0.0000 
     39 H          38.2740   86.7121   23.0276 H         1 PLK1445     0.0000 
     40 H          40.9172   86.7390   20.5531 H         1 PLK1445     0.0000 
     41 H          40.1953   85.8088   19.4577 H         1 PLK1445     0.0000 
     42 H          39.6549   87.2990   19.7289 H         1 PLK1445     0.0000 
     43 H          42.0702   80.2170   23.0195 H         1 PLK1445     0.0000 
     44 H          41.8064   78.7591   23.6449 H         1 PLK1445     0.0000 
     45 H          41.3248   79.0906   22.1468 H         1 PLK1445     0.0000 
     46 H          40.7761   81.7446   22.1401 H         1 PLK1445     0.0000 
@<TRIPOS>BOND
     1    2    1 1    
     2   37    1 1    
     3   38    1 1    
     4   39    1 1    
     5    3    2 1    
     6    4    2 1    
     7   26    2 1    
     8   40    3 1    
     9   41    3 1    
    10   42    3 1    
    11    5    4 1    
    12   27    4 1    
    13   28    4 1    
    14    6    5 1    
    15   10    5 1    
    16   29    5 1    
    17    7    6 1    
    18   30    6 1    
    19   31    6 1    
    20    8    7 ar   
    21    9    7 ar   
    22   11   10 1    
    23   12   11 1    
    24   32   11 1    
    25   33   11 1    
    26   13   12 ar   
    27   19   12 ar   
    28   14   13 1    
    29   15   13 ar   
    30   46   14 1    
    31   16   15 1    
    32   17   15 ar   
    33   43   16 1    
    34   44   16 1    
    35   45   16 1    
    36   18   17 ar   
    37   19   18 ar   
    38   34   18 1    
    39   20   19 1    
    40   21   20 1    
    41   35   20 1    
    42   36   20 1    
    43   22   21 1    
    44   23   22 ar   
    45   24   22 ar   
    46   25   22 ar   
@<TRIPOS>SUBSTRUCTURE
     1 PLK1445     1 GROUP   
@<TRIPOS>SET

