#    Name: 2i1r_VXR_1_INTS_M
#    Modification time : Tue Mar 25 17:22:39 2014

@<TRIPOS>MOLECULE
2i1r_VXR_1_INTS_M
   62     0     6     0     0
SMALL
NO_CHARGES


@<TRIPOS>ATOM
      1 CA          7.9905   30.6615   70.2570 C.3       2 GLC5        0.0000 
      2 CA          9.0670   31.3960   71.8640 C.3       6 GLL5        0.0000 
      3 CA          6.9140   29.9270   68.6500 C.3       4 GLP5        0.0000 
      4 CA         12.9850   29.2005   68.8045 C.3       2 GLC5        0.0000 
      5 CA         12.2520   30.6740   70.1590 C.3       6 GLL5        0.0000 
      6 CA         13.7180   27.7270   67.4500 C.3       4 GLP5        0.0000 
      7 CA         12.8555   32.4715   67.5670 C.3       2 GLC5        0.0000 
      8 CA         12.5220   31.8070   69.1720 C.3       6 GLL5        0.0000 
      9 CA         13.1890   33.1360   65.9620 C.3       4 GLP5        0.0000 
     10 CA         13.4975   30.2820   67.8915 C.3       2 GLC5        0.0000 
     11 CA         14.4730   28.7570   66.6110 C.3       4 GLP5        0.0000 
     12 CA         14.5080   32.2225   68.6080 C.3       2 GLC5        0.0000 
     13 CA         16.4940   32.6380   68.0440 C.3       4 GLP5        0.0000 
     14 CA          6.8720   30.5770   70.8340 C.3       2 GLC5        0.0000 
     15 CA          7.6590   31.7860   71.8670 C.3       6 GLL5        0.0000 
     16 CA          6.0850   29.3680   69.8010 C.3       4 GLP5        0.0000 
     17 CA          6.2595   34.0935   70.9450 C.3       2 GLC5        0.0000 
     18 CA          7.1470   32.8490   72.5030 C.3       6 GLL5        0.0000 
     19 CA          5.3720   35.3380   69.3870 C.3       4 GLP5        0.0000 
     20 CA          8.7585   35.0700   71.7515 C.3       2 GLC5        0.0000 
     21 CA          7.8420   34.0640   73.4660 C.3       6 GLL5        0.0000 
     22 CA          9.6750   36.0760   70.0370 C.3       4 GLP5        0.0000 
     23 CA          9.8045   33.8590   74.4685 C.3       2 GLC5        0.0000 
     24 CA         11.7670   33.6540   75.4710 C.3       4 GLP5        0.0000 
     25 CA          7.2340   39.6785   75.7165 C.3       2 GLC5        0.0000 
     26 CA          6.6440   37.7210   76.2150 C.3       6 GLL5        0.0000 
     27 CA          7.8240   41.6360   75.2180 C.3       4 GLP5        0.0000 
     28 N           5.7300   40.1105   78.3720 N.am      1 SEC2        0.0000 
     29 N           5.3130   39.2250   77.1170 N.am      5 SEL2        0.0000 
     30 N           6.1470   40.9960   79.6270 N.am      3 SEP2        0.0000 
     31 N           6.1585   39.9015   78.8250 N.am      1 SEC2        0.0000 
     32 N           6.1700   38.8070   78.0230 N.am      5 SEL2        0.0000 
     33 N           8.5455   37.0495   77.6555 N.am      1 SEC2        0.0000 
     34 N           7.0170   37.8580   77.4710 N.am      5 SEL2        0.0000 
     35 N          10.0740   36.2410   77.8400 N.am      3 SEP2        0.0000 
     36 CA         10.6770   41.0645   72.5680 C.3       2 GLC5        0.0000 
     37 CA         10.0880   39.8350   71.2820 C.3       6 GLL5        0.0000 
     38 CA         11.2660   42.2940   73.8540 C.3       4 GLP5        0.0000 
     39 N           3.9335   32.8375   70.8920 N.am      1 SEC2        0.0000 
     40 N           4.8650   32.5680   71.9020 N.am      5 SEL2        0.0000 
     41 N           3.0020   33.1070   69.8820 N.am      3 SEP2        0.0000 
     42 CA         10.2308   29.5107   69.7297 C.3       2 GLC5        0.0000 
     43 CA         11.0790   30.9090   71.0880 C.3       6 GLL5        0.0000 
     44 CA          8.7960   28.2300   68.8360 C.3       4 GLP5        0.0000 
     45 CA         11.1290   32.2700   74.0813 C.3       2 GLC5        0.0000 
     46 CA         11.1420   30.7290   72.4440 C.3       6 GLL5        0.0000 
     47 CA          8.9975   32.7840   70.2632 C.3       2 GLC5        0.0000 
     48 CA          9.6320   33.9770   68.6610 C.3       4 GLP5        0.0000 
     49 CA         10.8629   32.6381   69.2794 C.3       2 GLC5        0.0000 
     50 CA          7.7465   39.8488   74.4655 C.3       2 GLC5        0.0000 
     51 CA          8.0200   37.6100   74.1440 C.3       6 GLL5        0.0000 
     52 CA          8.2745   40.4153   73.7340 C.3       2 GLC5        0.0000 
     53 CA          9.4290   39.1230   72.1890 C.3       6 GLL5        0.0000 
     54 CA          9.8658   40.8930   70.4892 C.3       2 GLC5        0.0000 
     55 CA          9.9730   42.3070   69.2430 C.3       4 GLP5        0.0000 
     56 CA          9.7245   36.9640   71.7808 C.3       2 GLC5        0.0000 
     57 CA         10.1260   38.2300   73.0370 C.3       6 GLL5        0.0000 
     58 CA         11.3260   36.8400   74.1993 C.3       2 GLC5        0.0000 
     59 CA         12.8780   35.8280   74.8740 C.3       4 GLP5        0.0000 
     60 CA          9.5407   37.7954   70.9015 C.3       2 GLC5        0.0000 
     61 CA         11.5939   38.9239   71.2878 C.3       2 GLC5        0.0000 
     62 CA         13.2550   38.5920   70.6280 C.3       4 GLP5        0.0000 
@<TRIPOS>BOND
@<TRIPOS>SUBSTRUCTURE
     1 SEC2       28 GROUP        1 X    SEC  0     ROOT SEC X 2
     2 GLC5        1 GROUP        1 X    GLC  0     **** GLC X 6
     3 SEP2       30 GROUP        1 Y    SEP  0     ROOT SEP Y 9
     4 GLP5        3 GROUP        1 Y    GLP  0     **** GLP Y 13
     5 SEL2       29 GROUP        1 Z    SEL  0     ROOT SEL Z 16
     6 GLL5        2 GROUP        1 Z    GLL  0     **** GLL Z 20
@<TRIPOS>SET

