#    Name: 2i1r_VXR_1_ligand
#    Modification time : Tue Mar 25 17:22:40 2014

@<TRIPOS>MOLECULE
2i1r_VXR_1_ligand
   42    45     1     0     0
SMALL
NO_CHARGES


@<TRIPOS>ATOM
      1 C1         11.0790   30.9090   71.0880 C.2       1 VXR600      0.0000 
      2 C2         11.1420   30.7290   72.4440 C.2       1 VXR600      0.0000 
      3 C3          9.8400   31.0430   72.9390 C.2       1 VXR600      0.0000 
      4 C4          9.0670   31.3960   71.8640 C.2       1 VXR600      0.0000 
      5 O5          9.8340   31.3110   70.7360 O.3       1 VXR600      0.0000 
      6 C6         12.2520   30.6740   70.1590 C.3       1 VXR600      0.0000 
      7 C7         12.5220   31.8070   69.1720 C.3       1 VXR600      0.0000 
      8 C8          7.6590   31.7860   71.8670 C.2       1 VXR600      0.0000 
      9 C9          7.1470   32.8490   72.5030 C.2       1 VXR600      0.0000 
     10 S10         7.8420   34.0640   73.4660 S.3       1 VXR600      0.0000 
     11 C11         6.4420   34.9050   73.8070 C.2       1 VXR600      0.0000 
     12 N12         5.5230   34.2860   73.2140 N.am      1 VXR600      0.0000 
     13 C13         5.7310   33.1860   72.4890 C.2       1 VXR600      0.0000 
     14 N14         6.2600   35.9920   74.5230 N.2       1 VXR600      0.0000 
     15 C15         7.2710   36.7960   75.1970 C.3       1 VXR600      0.0000 
     16 C16         8.0200   37.6100   74.1440 C.ar      1 VXR600      0.0000 
     17 C17         6.6440   37.7210   76.2150 C.ar      1 VXR600      0.0000 
     18 N18         5.5880   38.5590   75.9720 N.ar      1 VXR600      0.0000 
     19 N19         5.3130   39.2250   77.1170 N.ar      1 VXR600      0.0000 
     20 N20         6.1700   38.8070   78.0230 N.ar      1 VXR600      0.0000 
     21 N21         7.0170   37.8580   77.4710 N.ar      1 VXR600      0.0000 
     22 C22         7.3180   38.5130   73.2820 C.ar      1 VXR600      0.0000 
     23 C23         8.0210   39.2660   72.3110 C.ar      1 VXR600      0.0000 
     24 C24         9.4290   39.1230   72.1890 C.ar      1 VXR600      0.0000 
     25 C25        10.1260   38.2300   73.0370 C.ar      1 VXR600      0.0000 
     26 C26         9.4220   37.4740   74.0120 C.ar      1 VXR600      0.0000 
     27 F          10.0880   39.8350   71.2820 F         1 VXR600      0.0000 
     28 O28         4.8650   32.5680   71.9020 O.2       1 VXR600      0.0000 
     29 H          11.8632   30.4600   72.9658 H         1 VXR600      0.0000 
     30 H           9.5915   31.0042   73.8448 H         1 VXR600      0.0000 
     31 H          12.0811   29.7407   69.5882 H         1 VXR600      0.0000 
     32 H          13.1648   30.5058   70.7630 H         1 VXR600      0.0000 
     33 H           7.0242   31.1420   71.3033 H         1 VXR600      0.0000 
     34 H           4.5011   34.6368   73.2745 H         1 VXR600      0.0000 
     35 H           7.9874   36.1596   75.6935 H         1 VXR600      0.0000 
     36 H           6.3072   38.6088   73.3738 H         1 VXR600      0.0000 
     37 H           7.5207   39.9090   71.7006 H         1 VXR600      0.0000 
     38 H          11.1377   38.1271   72.9497 H         1 VXR600      0.0000 
     39 H           9.9322   36.8304   74.6189 H         1 VXR600      0.0000 
     40 H          12.7242   32.6671   69.6402 H         1 VXR600      0.0000 
     41 H          13.3019   31.6054   68.5795 H         1 VXR600      0.0000 
     42 H          11.7369   31.9753   68.5760 H         1 VXR600      0.0000 
@<TRIPOS>BOND
     1    2    1 2    
     2    5    1 1    
     3    6    1 1    
     4    3    2 1    
     5   29    2 1    
     6    4    3 2    
     7   30    3 1    
     8    5    4 1    
     9    8    4 1    
    10    7    6 1    
    11   31    6 1    
    12   32    6 1    
    13   40    7 1    
    14   41    7 1    
    15   42    7 1    
    16    9    8 2    
    17   33    8 1    
    18   10    9 1    
    19   13    9 1    
    20   11   10 1    
    21   12   11 1    
    22   14   11 2    
    23   13   12 am   
    24   34   12 1    
    25   28   13 2    
    26   15   14 1    
    27   16   15 1    
    28   17   15 1    
    29   35   15 1    
    30   22   16 ar   
    31   26   16 ar   
    32   18   17 ar   
    33   21   17 ar   
    34   19   18 ar   
    35   20   19 ar   
    36   21   20 ar   
    37   23   22 ar   
    38   36   22 1    
    39   24   23 ar   
    40   37   23 1    
    41   25   24 ar   
    42   27   24 1    
    43   26   25 ar   
    44   38   25 1    
    45   39   26 1    
@<TRIPOS>SUBSTRUCTURE
     1 VXR600      1 GROUP   
@<TRIPOS>SET

