#    Name: 3F18_1_CAVITY_N1_6.mol2
#    Modification time : Mon Mar 10 15:14:00 2014

@<TRIPOS>MOLECULE
3F18_1_CAVITY_N1_6.mol2
   78     0     6     0     0
SMALL
NO_CHARGES


@<TRIPOS>ATOM
      1 N         -11.4263   -5.0626  -22.9838 N.2       1 ALA2        0.0000 
      2 O         -11.0353   -9.2070  -20.7098 O.2       1 ALA2        0.0000 
      3 N         -11.6230   -7.9752  -21.3320 N.2       1 ALA2        0.0000 
      4 N         -12.2107   -6.7433  -21.9542 N.2       1 ALA2        0.0000 
      5 N         -12.7984   -5.5114  -22.5764 N.2       1 ALA2        0.0000 
      6 DU        -13.3860   -4.2796  -23.1986 H         6 CUB7        0.0000 
      7 O         -12.4074   -9.6558  -20.3024 O.2       1 ALA2        0.0000 
      8 N         -12.9951   -8.4240  -20.9246 N.2       1 ALA2        0.0000 
      9 N         -13.5828   -7.1921  -21.5468 N.2       1 ALA2        0.0000 
     10 CA        -14.1704   -5.9603  -22.1690 C.3       5 GLY6        0.0000 
     11 CA        -14.7581   -4.7284  -22.7912 C.3       5 GLY6        0.0000 
     12 N         -13.7795  -10.1046  -19.8950 N.2       1 ALA2        0.0000 
     13 N         -11.2779   -4.3339  -21.6811 N.2       1 ALA2        0.0000 
     14 N         -11.8656   -3.1020  -22.3033 N.2       1 ALA2        0.0000 
     15 N         -11.4746   -7.2464  -20.0293 N.2       1 ALA2        0.0000 
     16 N         -12.0623   -6.0145  -20.6515 N.2       1 ALA2        0.0000 
     17 N         -12.6500   -4.7827  -21.2738 N.2       1 ALA2        0.0000 
     18 DU        -13.2377   -3.5508  -21.8960 H         6 CUB7        0.0000 
     19 CA        -12.2590   -8.9271  -18.9997 C.3       5 GLY6        0.0000 
     20 CA        -12.8467   -7.6952  -19.6220 C.3       5 GLY6        0.0000 
     21 O         -13.4344   -6.4634  -20.2442 O.2       1 ALA2        0.0000 
     22 CA        -14.0221   -5.2315  -20.8664 C.3       5 GLY6        0.0000 
     23 CA        -14.6097   -3.9996  -21.4886 C.3       5 GLY6        0.0000 
     24 CA        -15.1974   -2.7678  -22.1108 C.3       5 GLY6        0.0000 
     25 N         -14.2188   -8.1440  -19.2146 N.2       1 ALA2        0.0000 
     26 O         -14.8064   -6.9122  -19.8368 O.2       1 ALA2        0.0000 
     27 O          -9.3664   -7.3007  -18.5119 O.2       1 ALA2        0.0000 
     28 N          -9.9541   -6.0688  -19.1341 N.2       1 ALA2        0.0000 
     29 N         -10.5418   -4.8370  -19.7563 N.2       1 ALA2        0.0000 
     30 CA        -10.7385   -7.7495  -18.1045 C.3       5 GLY6        0.0000 
     31 N         -11.3262   -6.5177  -18.7267 N.2       1 ALA2        0.0000 
     32 N         -11.9139   -5.2858  -19.3489 N.2       1 ALA2        0.0000 
     33 OD1       -12.5016   -4.0539  -19.9711 O.3       2 ASP3        0.0000 
     34 OD1       -13.0893   -2.8221  -20.5933 O.3       2 ASP3        0.0000 
     35 N         -13.6770   -1.5902  -21.2155 N.2       1 ALA2        0.0000 
     36 CA        -12.6983   -6.9665  -18.3193 C.3       5 GLY6        0.0000 
     37 O         -13.2860   -5.7346  -18.9415 O.2       1 ALA2        0.0000 
     38 N         -13.8737   -4.5027  -19.5637 N.2       1 ALA2        0.0000 
     39 N         -14.4613   -3.2709  -20.1859 N.2       1 ALA2        0.0000 
     40 N         -15.0490   -2.0390  -20.8081 N.2       1 ALA2        0.0000 
     41 N          -4.7108   -9.3699  -16.1574 N.2       1 ALA2        0.0000 
     42 N          -5.2985   -8.1380  -16.7796 N.2       1 ALA2        0.0000 
     43 O          -6.0829   -9.8187  -15.7500 O.2       1 ALA2        0.0000 
     44 N          -6.6706   -8.5869  -16.3722 N.2       1 ALA2        0.0000 
     45 N          -7.2583   -7.3550  -16.9944 N.2       1 ALA2        0.0000 
     46 O          -7.8460   -6.1231  -17.6166 O.2       1 ALA2        0.0000 
     47 CA         -8.6304   -7.8038  -16.5870 C.3       5 GLY6        0.0000 
     48 O          -9.2181   -6.5719  -17.2092 O.2       1 ALA2        0.0000 
     49 N          -9.8057   -5.3401  -17.8314 N.2       1 ALA2        0.0000 
     50 CA        -10.5901   -7.0208  -16.8018 C.3       5 GLY6        0.0000 
     51 CA        -11.1778   -5.7889  -17.4240 C.3       5 GLY6        0.0000 
     52 NZ        -11.7655   -4.5570  -18.0462 N.2       3 LYS4        0.0000 
     53 NZ        -12.3532   -3.3252  -18.6685 N.2       3 LYS4        0.0000 
     54 N         -12.9409   -2.0933  -19.2907 N.2       1 ALA2        0.0000 
     55 CA        -11.9622   -7.4696  -16.3944 C.3       5 GLY6        0.0000 
     56 CA        -12.5499   -6.2377  -17.0167 C.3       5 GLY6        0.0000 
     57 N         -13.1376   -5.0058  -17.6389 N.2       1 ALA2        0.0000 
     58 N          -4.5624   -8.6411  -14.8547 N.2       1 ALA2        0.0000 
     59 N          -5.1501   -7.4093  -15.4769 N.2       1 ALA2        0.0000 
     60 N          -5.9345   -9.0900  -14.4473 N.2       1 ALA2        0.0000 
     61 N          -6.5222   -7.8581  -15.0695 N.2       1 ALA2        0.0000 
     62 N          -7.1099   -6.6262  -15.6917 N.2       1 ALA2        0.0000 
     63 CZ         -7.3066   -9.5388  -14.0399 C.ar      4 PHE5        0.0000 
     64 CZ         -7.8943   -8.3069  -14.6621 C.ar      4 PHE5        0.0000 
     65 CZ         -8.4820   -7.0750  -15.2844 C.ar      4 PHE5        0.0000 
     66 CA         -9.0697   -5.8432  -15.9066 C.3       5 GLY6        0.0000 
     67 CZ         -9.8541   -7.5239  -14.8770 C.ar      4 PHE5        0.0000 
     68 CA        -10.4417   -6.2920  -15.4992 C.3       5 GLY6        0.0000 
     69 NZ        -11.0294   -5.0601  -16.1214 N.2       3 LYS4        0.0000 
     70 CA        -11.8138   -6.7408  -15.0918 C.3       5 GLY6        0.0000 
     71 CA        -12.4015   -5.5090  -15.7140 C.3       5 GLY6        0.0000 
     72 CA         -4.4141   -7.9124  -13.5521 C.3       5 GLY6        0.0000 
     73 CA         -5.7861   -8.3612  -13.1447 C.3       5 GLY6        0.0000 
     74 N          -6.3738   -7.1293  -13.7669 N.2       1 ALA2        0.0000 
     75 CA         -6.9615   -5.8975  -14.3891 C.3       5 GLY6        0.0000 
     76 CA         -7.1582   -8.8100  -12.7373 C.3       5 GLY6        0.0000 
     77 N          -7.7459   -7.5782  -13.3595 N.2       1 ALA2        0.0000 
     78 N          -8.3336   -6.3463  -13.9817 N.2       1 ALA2        0.0000 
@<TRIPOS>BOND
@<TRIPOS>SUBSTRUCTURE
     1 ALA2        1 GROUP   
     2 ASP3       33 GROUP   
     3 LYS4       52 GROUP   
     4 PHE5       63 GROUP   
     5 GLY6       10 GROUP   
     6 CUB7        6 GROUP   
@<TRIPOS>SET

