#    Name: 3f18_HS5_1_INTS_M
#    Modification time : Tue Mar 25 03:03:44 2014

@<TRIPOS>MOLECULE
3f18_HS5_1_INTS_M
   43     0     9     0     0
SMALL
NO_CHARGES


@<TRIPOS>ATOM
      1 N         -15.5575   -6.3530  -18.5370 N.am      1 SEC2        0.0000 
      2 N         -14.4130   -5.7650  -18.9460 N.am      7 SEL2        0.0000 
      3 N         -16.7020   -6.9410  -18.1280 N.am      4 SEP2        0.0000 
      4 N         -15.4295   -5.2505  -17.7265 N.am      1 SEC2        0.0000 
      5 N         -16.4460   -4.7360  -16.5070 N.am      4 SEP2        0.0000 
      6 Zn        -11.5815   -3.4680  -20.1590 Zn        2 ZIC7        0.0000 
      7 Zn        -13.1280   -5.3070  -20.8620 Zn        8 ZIL7        0.0000 
      8 Zn        -10.0350   -1.6290  -19.4560 Zn        5 ZIP7        0.0000 
      9 Zn        -10.6600   -2.2480  -20.0055 Zn        2 ZIC7        0.0000 
     10 Zn        -11.2850   -2.8670  -20.5550 Zn        8 ZIL7        0.0000 
     11 Zn        -10.9850   -1.5900  -18.9295 Zn        2 ZIC7        0.0000 
     12 Zn        -11.9350   -1.5510  -18.4030 Zn        8 ZIL7        0.0000 
     13 CA         -9.6845   -5.8405  -23.2510 C.3       3 GLC5        0.0000 
     14 CA        -11.6870   -6.2990  -22.9950 C.3       9 GLL5        0.0000 
     15 CA         -7.6820   -5.3820  -23.5070 C.3       6 GLP5        0.0000 
     16 CA        -12.8235   -7.8180  -17.4530 C.3       3 GLC5        0.0000 
     17 CA        -11.9460   -6.0970  -18.4820 C.3       9 GLL5        0.0000 
     18 CA        -13.7010   -9.5390  -16.4240 C.3       6 GLP5        0.0000 
     19 CA        -13.8020   -6.5795  -16.7390 C.3       3 GLC5        0.0000 
     20 CA        -12.1220   -5.3690  -17.2960 C.3       9 GLL5        0.0000 
     21 CA        -15.4820   -7.7900  -16.1820 C.3       6 GLP5        0.0000 
     22 CA        -10.1265   -8.1720  -16.6950 C.3       3 GLC5        0.0000 
     23 CA         -9.9130   -6.0090  -16.5300 C.3       9 GLL5        0.0000 
     24 CA        -10.3400  -10.3350  -16.8600 C.3       6 GLP5        0.0000 
     25 CA         -9.7845   -5.9160  -13.6955 C.3       3 GLC5        0.0000 
     26 CA         -8.9370   -5.9700  -15.6000 C.3       9 GLL5        0.0000 
     27 CA        -10.6320   -5.8620  -11.7910 C.3       6 GLP5        0.0000 
     28 CA         -8.4120   -4.6505  -15.1020 C.3       3 GLC5        0.0000 
     29 CA         -7.8870   -3.3310  -14.6040 C.3       6 GLP5        0.0000 
     30 CA         -9.3340   -8.5590  -17.5920 C.3       3 GLC5        0.0000 
     31 CA         -9.7280   -6.7410  -17.7030 C.3       9 GLL5        0.0000 
     32 CA         -8.9400  -10.3770  -17.4810 C.3       6 GLP5        0.0000 
     33 CA        -10.5405   -8.5605  -17.7625 C.3       3 GLC5        0.0000 
     34 CA        -10.7410   -6.7860  -18.6650 C.3       9 GLL5        0.0000 
     35 CA        -12.2395   -5.5217  -14.8695 C.3       3 GLC5        0.0000 
     36 CA        -11.1120   -5.3240  -16.3320 C.3       9 GLL5        0.0000 
     37 CA        -12.8620   -5.6970  -12.9250 C.3       6 GLP5        0.0000 
     38 CA        -10.3750   -3.9187  -16.7680 C.3       3 GLC5        0.0000 
     39 CA         -9.1330   -2.4910  -16.7220 C.3       6 GLP5        0.0000 
     40 CA         -8.9668   -4.7325  -16.5917 C.3       3 GLC5        0.0000 
     41 CA         -8.1130   -3.0900  -16.0670 C.3       6 GLP5        0.0000 
     42 CA         -9.1058   -8.0017  -19.5785 C.3       3 GLC5        0.0000 
     43 CA         -7.9770   -9.2400  -20.9730 C.3       6 GLP5        0.0000 
@<TRIPOS>BOND
@<TRIPOS>SUBSTRUCTURE
     1 SEC2        1 GROUP        1 X    SEC  0     ROOT SEC X 2
     2 ZIC7        6 GROUP        1 X    ZIC  0     **** ZIC X 5
     3 GLC5       13 GROUP        1 X    GLC  0     **** GLC X 6
     4 SEP2        3 GROUP        1 Y    SEP  0     ROOT SEP Y 9
     5 ZIP7        8 GROUP        1 Y    ZIP  0     **** ZIP Y 12
     6 GLP5       15 GROUP        1 Y    GLP  0     **** GLP Y 13
     7 SEL2        2 GROUP        1 Z    SEL  0     ROOT SEL Z 16
     8 ZIL7        7 GROUP        1 Z    ZIL  0     **** ZIL Z 19
     9 GLL5       14 GROUP        1 Z    GLL  0     **** GLL Z 20
@<TRIPOS>SET

