#    Name: 3f18_HS5_1_ligand
#    Modification time : Tue Mar 25 03:03:44 2014

@<TRIPOS>MOLECULE
3f18_HS5_1_ligand
   30    30     1     0     0
SMALL
NO_CHARGES


@<TRIPOS>ATOM
      1 O5        -12.8890   -7.3620  -20.2950 O.2       1 HS50        0.0000 
      2 S1        -13.1520   -6.1480  -19.5660 S.o2      1 HS50        0.0000 
      3 O4        -14.4130   -5.7650  -18.9460 O.2       1 HS50        0.0000 
      4 N2        -13.1280   -5.3070  -20.8620 N.pl3     1 HS50        0.0000 
      5 C10       -13.4540   -3.8770  -20.8320 C.3       1 HS50        0.0000 
      6 C9        -12.4370   -2.9860  -20.1520 C.2       1 HS50        0.0000 
      7 O3        -11.2850   -2.8670  -20.5550 O.2       1 HS50        0.0000 
      8 N1        -12.8670   -2.3080  -19.0940 N.2       1 HS50        0.0000 
      9 O2        -11.9350   -1.5510  -18.4030 O.2       1 HS50        0.0000 
     10 C8        -12.9110   -5.9410  -22.1610 C.3       1 HS50        0.0000 
     11 C6        -11.6870   -6.2990  -22.9950 C.3       1 HS50        0.0000 
     12 O1        -11.7070   -7.7230  -23.1600 O.3       1 HS50        0.0000 
     13 C3        -11.9460   -6.0970  -18.4820 C.ar      1 HS50        0.0000 
     14 C5        -12.1220   -5.3690  -17.2960 C.ar      1 HS50        0.0000 
     15 C7        -11.1120   -5.3240  -16.3320 C.ar      1 HS50        0.0000 
     16 C4         -9.9130   -6.0090  -16.5300 C.ar      1 HS50        0.0000 
     17 F1         -8.9370   -5.9700  -15.6000 F         1 HS50        0.0000 
     18 C2         -9.7280   -6.7410  -17.7030 C.ar      1 HS50        0.0000 
     19 C1        -10.7410   -6.7860  -18.6650 C.ar      1 HS50        0.0000 
     20 H         -14.4408   -3.7228  -20.3287 H         1 HS50        0.0000 
     21 H         -13.6032   -3.4994  -21.8741 H         1 HS50        0.0000 
     22 H         -13.6457   -5.3722  -22.9432 H         1 HS50        0.0000 
     23 H         -13.5740   -6.9586  -22.1569 H         1 HS50        0.0000 
     24 H         -10.8048   -5.9662  -22.4623 H         1 HS50        0.0000 
     25 H         -11.7598   -5.7812  -23.9434 H         1 HS50        0.0000 
     26 H         -13.0050   -4.8638  -17.1368 H         1 HS50        0.0000 
     27 H         -11.2545   -4.7806  -15.4686 H         1 HS50        0.0000 
     28 H          -8.8491   -7.2466  -17.8607 H         1 HS50        0.0000 
     29 H         -10.5989   -7.3378  -19.5277 H         1 HS50        0.0000 
     30 H         -11.8576   -8.0878  -22.2412 H         1 HS50        0.0000 
@<TRIPOS>BOND
     1    2    1 2    
     2    3    2 2    
     3    4    2 1    
     4   13    2 1    
     5    5    4 1    
     6   10    4 1    
     7    6    5 1    
     8   20    5 1    
     9   21    5 1    
    10    7    6 2    
    11    8    6 1    
    12    9    8 2    
    13   11   10 1    
    14   22   10 1    
    15   23   10 1    
    16   12   11 1    
    17   24   11 1    
    18   25   11 1    
    19   30   12 1    
    20   14   13 ar   
    21   19   13 ar   
    22   15   14 ar   
    23   26   14 1    
    24   16   15 ar   
    25   27   15 1    
    26   17   16 1    
    27   18   16 ar   
    28   19   18 ar   
    29   28   18 1    
    30   29   19 1    
@<TRIPOS>SUBSTRUCTURE
     1 HS50        1 GROUP   
@<TRIPOS>SET

