#    Name: 3JQE_4_CAVITY_N1_6.mol2
#    Modification time : Tue Mar 11 04:16:24 2014

@<TRIPOS>MOLECULE
3JQE_4_CAVITY_N1_6.mol2
   82     0     5     0     0
SMALL
NO_CHARGES


@<TRIPOS>ATOM
      1 O         -25.3607  -10.5763   25.4595 O.2       1 ALA2        0.0000 
      2 O         -24.6630  -11.8475   25.0758 O.2       1 ALA2        0.0000 
      3 NZ        -26.5603   -9.1563   24.4374 N.2       2 LYS4        0.0000 
      4 CZ        -25.8626  -10.4275   24.0538 C.ar      3 PHE5        0.0000 
      5 CZ        -25.1649  -11.6987   23.6701 C.ar      3 PHE5        0.0000 
      6 O         -26.5901  -11.3585   25.8156 O.2       1 ALA2        0.0000 
      7 CA        -25.8924  -12.6297   25.4320 C.3       4 GLY6        0.0000 
      8 NZ        -27.0920  -11.2097   24.4099 N.2       2 LYS4        0.0000 
      9 CA        -26.3943  -12.4809   24.0263 C.3       4 GLY6        0.0000 
     10 CZ        -27.5939  -11.0609   23.0042 C.ar      3 PHE5        0.0000 
     11 CA        -24.8030  -16.1459   21.4696 C.3       4 GLY6        0.0000 
     12 CA        -23.5737  -15.3636   21.1135 C.3       4 GLY6        0.0000 
     13 CZ        -24.0756  -15.2149   19.7078 C.ar      3 PHE5        0.0000 
     14 N         -23.4337  -11.0653   24.7197 N.2       1 ALA2        0.0000 
     15 N         -22.7360  -12.3365   24.3360 N.2       1 ALA2        0.0000 
     16 CA        -22.0383  -13.6078   23.9524 C.3       4 GLY6        0.0000 
     17 CZ        -24.6333   -9.6453   23.6977 C.ar      3 PHE5        0.0000 
     18 CZ        -23.9355  -10.9165   23.3140 C.ar      3 PHE5        0.0000 
     19 CZ        -23.2378  -12.1878   22.9303 C.ar      3 PHE5        0.0000 
     20 CZ        -22.5401  -13.4590   22.5467 C.ar      3 PHE5        0.0000 
     21 CA        -21.8424  -14.7302   22.1630 C.3       4 GLY6        0.0000 
     22 CZ        -22.3443  -14.5814   20.7573 C.ar      3 PHE5        0.0000 
     23 CA        -21.6466  -15.8527   20.3737 C.3       4 GLY6        0.0000 
     24 CZ        -22.8462  -14.4327   19.3516 C.ar      3 PHE5        0.0000 
     25 N         -33.1495   -8.5141   22.0561 N.2       1 ALA2        0.0000 
     26 CA        -32.4517   -9.7853   21.6724 C.3       4 GLY6        0.0000 
     27 NZ        -32.6773  -10.8651   24.8400 N.2       2 LYS4        0.0000 
     28 NZ        -31.9796  -12.1363   24.4563 N.2       2 LYS4        0.0000 
     29 DU        -31.2819  -13.4076   24.0727 H         5 CUB7        0.0000 
     30 O         -30.5842  -14.6788   23.6890 O.2       1 ALA2        0.0000 
     31 N         -21.5066  -11.5543   23.9799 N.2       1 ALA2        0.0000 
     32 CA        -20.8089  -12.8256   23.5962 C.3       4 GLY6        0.0000 
     33 CZ        -20.1112  -14.0968   23.2126 C.ar      3 PHE5        0.0000 
     34 CZ        -22.7062  -10.1343   22.9579 C.ar      3 PHE5        0.0000 
     35 CZ        -22.0085  -11.4056   22.5742 C.ar      3 PHE5        0.0000 
     36 CZ        -21.3108  -12.6768   22.1905 C.ar      3 PHE5        0.0000 
     37 CA        -20.6131  -13.9480   21.8069 C.3       4 GLY6        0.0000 
     38 CA        -21.1150  -13.7992   20.4012 C.3       4 GLY6        0.0000 
     39 CA        -20.4173  -15.0705   20.0175 C.3       4 GLY6        0.0000 
     40 O         -19.7196  -16.3417   19.6339 O.2       1 ALA2        0.0000 
     41 CA        -20.9192  -14.9217   18.6119 C.3       4 GLY6        0.0000 
     42 NZ        -28.3213  -11.9919   24.7661 N.2       2 LYS4        0.0000 
     43 NZ        -28.8232  -11.8431   23.3604 N.2       2 LYS4        0.0000 
     44 CZ        -28.1255  -13.1144   22.9767 C.ar      3 PHE5        0.0000 
     45 NZ        -30.0228  -10.4231   22.3383 N.2       2 LYS4        0.0000 
     46 N         -29.3251  -11.6944   21.9547 N.2       1 ALA2        0.0000 
     47 CZ        -28.6274  -12.9656   21.5710 C.ar      3 PHE5        0.0000 
     48 CZ        -27.9297  -14.2368   21.1874 C.ar      3 PHE5        0.0000 
     49 NZ        -29.5507  -12.7741   25.1222 N.2       2 LYS4        0.0000 
     50 NZ        -30.0526  -12.6253   23.7165 N.2       2 LYS4        0.0000 
     51 CA        -29.3549  -13.8966   23.3329 C.3       4 GLY6        0.0000 
     52 N         -32.6476   -8.6629   23.4618 N.2       1 ALA2        0.0000 
     53 NZ        -31.9499   -9.9341   23.0781 N.2       2 LYS4        0.0000 
     54 NZ        -31.2522  -11.2053   22.6945 N.2       2 LYS4        0.0000 
     55 N         -30.5545  -12.4766   22.3108 N.2       1 ALA2        0.0000 
     56 N         -29.8568  -13.7478   21.9272 N.2       1 ALA2        0.0000 
     57 CA        -29.1591  -15.0190   21.5435 C.3       4 GLY6        0.0000 
     58 N         -17.8483  -11.4099   24.2897 N.2       1 ALA2        0.0000 
     59 N         -19.0479   -9.9899   23.2676 N.2       1 ALA2        0.0000 
     60 N         -18.3502  -11.2612   22.8840 N.2       1 ALA2        0.0000 
     61 CZ        -17.6525  -12.5324   22.5003 C.ar      3 PHE5        0.0000 
     62 NZ        -19.5498   -9.8412   21.8619 N.2       2 LYS4        0.0000 
     63 CA        -18.8521  -11.1124   21.4783 C.3       4 GLY6        0.0000 
     64 CZ        -18.1544  -12.3836   21.0946 C.ar      3 PHE5        0.0000 
     65 NZ        -20.0517   -9.6924   20.4562 N.2       2 LYS4        0.0000 
     66 CA        -20.5535   -9.5436   19.0505 C.3       4 GLY6        0.0000 
     67 CA        -18.3204   -9.0589   21.5058 C.3       4 GLY6        0.0000 
     68 CA        -17.6227  -10.3302   21.1221 C.3       4 GLY6        0.0000 
     69 NZ        -18.8223   -8.9102   20.1001 N.2       2 LYS4        0.0000 
     70 CA        -18.1246  -10.1814   19.7164 C.3       4 GLY6        0.0000 
     71 O         -19.3242   -8.7614   18.6944 O.2       1 ALA2        0.0000 
     72 N         -20.2772  -10.7721   23.6238 N.2       1 ALA2        0.0000 
     73 CA        -19.5795  -12.0434   23.2401 C.3       4 GLY6        0.0000 
     74 CZ        -18.8818  -13.3146   22.8564 C.ar      3 PHE5        0.0000 
     75 NZ        -21.4768   -9.3521   22.6017 N.2       2 LYS4        0.0000 
     76 DU        -20.7791  -10.6234   22.2181 H         5 CUB7        0.0000 
     77 CA        -20.0814  -11.8946   21.8344 C.3       4 GLY6        0.0000 
     78 CA        -19.3837  -13.1658   21.4508 C.3       4 GLY6        0.0000 
     79 CZ        -21.2810  -10.4746   20.8124 C.ar      3 PHE5        0.0000 
     80 CA        -18.9921  -15.4107   17.8721 C.3       4 GLY6        0.0000 
     81 NZ        -31.4777  -12.2851   25.8620 N.2       2 LYS4        0.0000 
     82 O         -30.7800  -13.5563   25.4784 O.2       1 ALA2        0.0000 
@<TRIPOS>BOND
@<TRIPOS>SUBSTRUCTURE
     1 ALA2        1 GROUP   
     2 LYS4        3 GROUP   
     3 PHE5        4 GROUP   
     4 GLY6        7 GROUP   
     5 CUB7       29 GROUP   
@<TRIPOS>SET

