#    Name: 3jqe_DX8_4_INTS_M
#    Modification time : Tue Mar 25 17:47:26 2014

@<TRIPOS>MOLECULE
3jqe_DX8_4_INTS_M
   42     0     6     0     0
SMALL
NO_CHARGES


@<TRIPOS>ATOM
      1 CA        -15.9300  -12.0935   18.7350 C.3       2 GLC5        0.0000 
      2 CA        -17.0760  -10.7910   19.7030 C.3       6 GLL5        0.0000 
      3 CA        -14.7840  -13.3960   17.7670 C.3       4 GLP5        0.0000 
      4 CA        -16.3775   -9.4840   20.5040 C.3       2 GLC5        0.0000 
      5 CA        -15.6790   -8.1770   21.3050 C.3       4 GLP5        0.0000 
      6 CA        -16.7815   -9.8825   17.9265 C.3       2 GLC5        0.0000 
      7 CA        -16.4870   -8.9740   16.1500 C.3       4 GLP5        0.0000 
      8 CA        -18.2925  -11.7060   19.2375 C.3       2 GLC5        0.0000 
      9 CA        -19.5090  -12.6210   18.7720 C.3       4 GLP5        0.0000 
     10 CA        -16.7385  -12.5965   20.4965 C.3       2 GLC5        0.0000 
     11 CA        -16.4010  -14.4020   21.2900 C.3       4 GLP5        0.0000 
     12 CA        -19.3595  -12.0190   20.6605 C.3       2 GLC5        0.0000 
     13 CA        -19.2100  -11.4170   22.5490 C.3       6 GLL5        0.0000 
     14 O         -23.3150   -7.6155   22.0350 O.2       1 ALC1        0.0000 
     15 O         -23.3130   -8.8210   22.5910 O.2       5 ALL1        0.0000 
     16 O         -23.3170   -6.4100   21.4790 O.2       3 ALP1        0.0000 
     17 CA        -25.0330   -7.2715   24.1285 C.3       2 GLC5        0.0000 
     18 CA        -24.5370   -8.9260   23.1110 C.3       6 GLL5        0.0000 
     19 CA        -25.5290   -5.6170   25.1460 C.3       4 GLP5        0.0000 
     20 O         -27.8815   -6.3665   22.7170 O.2       1 ALC1        0.0000 
     21 O         -27.7720   -7.5340   23.4650 O.2       5 ALL1        0.0000 
     22 O         -27.9910   -5.1990   21.9690 O.2       3 ALP1        0.0000 
     23 O         -28.7035   -8.5250   24.2800 O.2       1 ALC1        0.0000 
     24 O         -29.6350   -9.5160   25.0950 O.2       3 ALP1        0.0000 
     25 O         -28.2760   -9.5410   24.7210 O.2       1 ALC1        0.0000 
     26 O         -26.9170   -9.5660   24.3470 O.2       5 ALL1        0.0000 
     27 CA        -23.4595  -12.0095   22.2985 C.3       2 GLC5        0.0000 
     28 CA        -22.8980  -11.9650   24.2670 C.3       6 GLL5        0.0000 
     29 CA        -24.0210  -12.0540   20.3300 C.3       4 GLP5        0.0000 
     30 CA        -23.8770  -13.5675   24.7285 C.3       2 GLC5        0.0000 
     31 CA        -24.8560  -15.1700   25.1900 C.3       4 GLP5        0.0000 
     32 CA        -22.2455  -10.2455   25.1285 C.3       2 GLC5        0.0000 
     33 CA        -21.5930   -8.5260   25.9900 C.3       4 GLP5        0.0000 
     34 CA        -17.3618   -9.1382   21.2865 C.3       2 GLC5        0.0000 
     35 CA        -19.4230   -9.5710   21.0030 C.3       6 GLL5        0.0000 
     36 CA        -19.6929  -11.1689   20.0757 C.3       2 GLC5        0.0000 
     37 CA        -18.6660  -10.6280   21.5330 C.3       6 GLL5        0.0000 
     38 CA        -19.1262  -12.3457   24.5062 C.3       2 GLC5        0.0000 
     39 CA        -18.4020  -13.3990   26.2210 C.3       4 GLP5        0.0000 
     40 CA        -26.0960   -9.5783   22.0180 C.3       2 GLC5        0.0000 
     41 CA        -24.6190  -10.1310   23.8370 C.3       6 GLL5        0.0000 
     42 CA        -27.6140   -9.6280   20.5620 C.3       4 GLP5        0.0000 
@<TRIPOS>BOND
@<TRIPOS>SUBSTRUCTURE
     1 ALC1       14 GROUP        1 X    ALC  0     ROOT ALC X 1
     2 GLC5        1 GROUP        1 X    GLC  0     **** GLC X 6
     3 ALP1       16 GROUP        1 Y    ALP  0     ROOT ALP Y 8
     4 GLP5        3 GROUP        1 Y    GLP  0     **** GLP Y 13
     5 ALL1       15 GROUP        1 Z    ALL  0     ROOT ALL Z 15
     6 GLL5        2 GROUP        1 Z    GLL  0     **** GLL Z 20
@<TRIPOS>SET

