#    Name: 3jqe_DX8_4_ligand
#    Modification time : Tue Mar 25 17:47:26 2014

@<TRIPOS>MOLECULE
3jqe_DX8_4_ligand
   32    34     1     0     0
SMALL
NO_CHARGES


@<TRIPOS>ATOM
      1 CAA       -17.0760  -10.7910   19.7030 C.3       1 DX8270      0.0000 
      2 OAM       -17.3830  -10.9080   21.1170 O.3       1 DX8270      0.0000 
      3 CAO       -18.6660  -10.6280   21.5330 C.ar      1 DX8270      0.0000 
      4 CAG       -19.4230   -9.5710   21.0030 C.ar      1 DX8270      0.0000 
      5 CAI       -20.7090   -9.3340   21.4910 C.ar      1 DX8270      0.0000 
      6 CAF       -19.2100  -11.4170   22.5490 C.ar      1 DX8270      0.0000 
      7 CAH       -20.4910  -11.1680   23.0340 C.ar      1 DX8270      0.0000 
      8 CAP       -21.2450  -10.1120   22.5330 C.ar      1 DX8270      0.0000 
      9 CAR       -22.5560   -9.8650   22.9420 C.2       1 DX8270      0.0000 
     10 NAL       -23.3130   -8.8210   22.5910 N.pl3     1 DX8270      0.0000 
     11 CAT       -24.5370   -8.9260   23.1110 C.2       1 DX8270      0.0000 
     12 NAJ       -25.5890   -8.0930   23.0060 N.2       1 DX8270      0.0000 
     13 CAN       -26.7660   -8.3760   23.5930 C.2       1 DX8270      0.0000 
     14 NAC       -27.7720   -7.5340   23.4650 N.pl3     1 DX8270      0.0000 
     15 NAK       -26.9170   -9.5660   24.3470 N.am      1 DX8270      0.0000 
     16 CAS       -25.8340  -10.4620   24.4710 C.2       1 DX8270      0.0000 
     17 OAD       -25.9860  -11.4940   25.1240 O.2       1 DX8270      0.0000 
     18 CAU       -24.6190  -10.1310   23.8370 C.2       1 DX8270      0.0000 
     19 CAQ       -23.3520  -10.7210   23.7110 C.2       1 DX8270      0.0000 
     20 CAE       -22.8980  -11.9650   24.2670 C.1       1 DX8270      0.0000 
     21 NAB       -22.4880  -12.9380   24.6870 N.1       1 DX8270      0.0000 
     22 H         -19.0320   -8.9817   20.2655 H         1 DX8270      0.0000 
     23 H         -21.2799   -8.5764   21.0836 H         1 DX8270      0.0000 
     24 H         -18.6548  -12.1925   22.9432 H         1 DX8270      0.0000 
     25 H         -20.8843  -11.7729   23.7721 H         1 DX8270      0.0000 
     26 H         -23.0067   -8.0741   22.0238 H         1 DX8270      0.0000 
     27 H         -27.5802   -6.6930   22.9592 H         1 DX8270      0.0000 
     28 H         -28.6354   -7.8129   23.8854 H         1 DX8270      0.0000 
     29 H         -27.8078   -9.7723   24.7983 H         1 DX8270      0.0000 
     30 H         -16.1203  -11.0139   19.5108 H         1 DX8270      0.0000 
     31 H         -17.6375  -11.4056   19.1490 H         1 DX8270      0.0000 
     32 H         -17.2346   -9.8637   19.3640 H         1 DX8270      0.0000 
@<TRIPOS>BOND
     1    2    1 1    
     2   30    1 1    
     3   31    1 1    
     4   32    1 1    
     5    3    2 1    
     6    4    3 ar   
     7    6    3 ar   
     8    5    4 ar   
     9   22    4 1    
    10    8    5 ar   
    11   23    5 1    
    12    7    6 ar   
    13   24    6 1    
    14    8    7 ar   
    15   25    7 1    
    16    9    8 1    
    17   10    9 1    
    18   19    9 2    
    19   11   10 1    
    20   26   10 1    
    21   12   11 1    
    22   18   11 2    
    23   13   12 2    
    24   14   13 1    
    25   15   13 1    
    26   27   14 1    
    27   28   14 1    
    28   16   15 am   
    29   29   15 1    
    30   17   16 2    
    31   18   16 1    
    32   19   18 1    
    33   20   19 1    
    34   21   20 3    
@<TRIPOS>SUBSTRUCTURE
     1 DX8270      1 GROUP   
@<TRIPOS>SET

