#    Name: 1hvi_A77_1_INTS_M
#    Modification time : Tue Mar 25 06:16:46 2014

@<TRIPOS>MOLECULE
1hvi_A77_1_INTS_M
  112     0     9     0     0
SMALL
NO_CHARGES


@<TRIPOS>ATOM
      1 N           2.4975    4.8660   12.6700 N.am      2 SEC2        0.0000 
      2 N           3.3360    4.0240   11.7300 N.am      8 SEL2        0.0000 
      3 N           1.6590    5.7080   13.6100 N.am      5 SEP2        0.0000 
      4 CA         10.3245    5.0815   10.4525 C.3       3 GLC5        0.0000 
      5 CA          8.5250    6.0770    9.7510 C.3       9 GLL5        0.0000 
      6 CA         12.1240    4.0860   11.1540 C.3       6 GLP5        0.0000 
      7 O           3.1140    1.1815    9.5390 O.2       1 ALC1        0.0000 
      8 O           3.1650    2.0470   10.7480 O.2       7 ALL1        0.0000 
      9 O           3.0630    0.3160    8.3300 O.2       4 ALP1        0.0000 
     10 CA         -1.1405   -0.1135   12.5655 C.3       3 GLC5        0.0000 
     11 CA          1.0410   -0.2680   12.9880 C.3       9 GLL5        0.0000 
     12 CA         -3.3220    0.0410   12.1430 C.3       6 GLP5        0.0000 
     13 CA         -1.4940    0.7490   11.7180 C.3       3 GLC5        0.0000 
     14 CA          0.3340    1.4570   11.2930 C.3       9 GLL5        0.0000 
     15 O           4.9285    2.2430   14.0645 O.2       1 ALC1        0.0000 
     16 O           4.8470    0.9370   13.1830 O.2       7 ALL1        0.0000 
     17 O           5.0100    3.5490   14.9460 O.2       4 ALP1        0.0000 
     18 CA          7.9880    2.8800   14.3135 C.3       3 GLC5        0.0000 
     19 CA          7.2770    1.2140   13.0810 C.3       9 GLL5        0.0000 
     20 CA          8.6990    4.5460   15.5460 C.3       6 GLP5        0.0000 
     21 CA          9.1805    0.4920   13.6235 C.3       3 GLC5        0.0000 
     22 CA         11.0840   -0.2300   14.1660 C.3       6 GLP5        0.0000 
     23 CA          9.6600    0.9525    7.9005 C.3       3 GLC5        0.0000 
     24 CA          8.1290    0.9290    8.8970 C.3       9 GLL5        0.0000 
     25 CA         11.1910    0.9760    6.9040 C.3       6 GLP5        0.0000 
     26 CA         10.2800   -0.0310    8.7640 C.3       3 GLC5        0.0000 
     27 CA          8.5340   -0.0800    9.7830 C.3       9 GLL5        0.0000 
     28 CA         12.0260    0.0180    7.7450 C.3       6 GLP5        0.0000 
     29 CA          9.6695   -0.1065   12.6565 C.3       3 GLC5        0.0000 
     30 CA          8.2550    0.0170   11.1470 C.3       9 GLL5        0.0000 
     31 O           7.6815    0.1550   16.5030 O.2       1 ALC1        0.0000 
     32 O           7.4730   -0.4920   15.3580 O.2       7 ALL1        0.0000 
     33 O           7.8900    0.8020   17.6480 O.2       4 ALP1        0.0000 
     34 N           4.3980    0.6345   17.9980 N.am      2 SEC2        0.0000 
     35 N           5.1290   -0.1720   17.2130 N.am      8 SEL2        0.0000 
     36 N           3.6670    1.4410   18.7830 N.am      5 SEP2        0.0000 
     37 O           6.5095    0.3150   17.4305 O.2       1 ALC1        0.0000 
     38 O           5.1290   -0.1720   17.2130 O.2       7 ALL1        0.0000 
     39 CA          2.3455   -3.7190   18.9120 C.3       3 GLC5        0.0000 
     40 CA          3.2530   -4.6130   17.2380 C.3       9 GLL5        0.0000 
     41 CA          1.4380   -2.8250   20.5860 C.3       6 GLP5        0.0000 
     42 CA          2.3490   -5.7500   12.7980 C.3       3 GLC5        0.0000 
     43 CA          2.4420   -5.8380   14.8450 C.3       9 GLL5        0.0000 
     44 CA          2.2560   -5.6620   10.7510 C.3       6 GLP5        0.0000 
     45 CA          2.1325   -4.3470   12.8160 C.3       3 GLC5        0.0000 
     46 CA          2.6580   -4.4490   14.8990 C.3       9 GLL5        0.0000 
     47 CA          1.6070   -4.2450   10.7330 C.3       6 GLP5        0.0000 
     48 O           7.0430   -6.8115   15.3895 O.2       1 ALC1        0.0000 
     49 O           6.9100   -5.9190   16.6840 O.2       7 ALL1        0.0000 
     50 O           7.1760   -7.7040   14.0950 O.2       4 ALP1        0.0000 
     51 CA          7.6400   -3.6315   18.2375 C.3       3 GLC5        0.0000 
     52 CA          7.4180   -4.5880   16.4020 C.3       9 GLL5        0.0000 
     53 CA          7.8620   -2.6750   20.0730 C.3       6 GLP5        0.0000 
     54 CA          9.2070   -2.6060   17.4335 C.3       3 GLC5        0.0000 
     55 CA          9.3660   -3.2530   15.4630 C.3       9 GLL5        0.0000 
     56 CA          9.0480   -1.9590   19.4040 C.3       6 GLP5        0.0000 
     57 CA         11.5270   -3.7605   15.5585 C.3       3 GLC5        0.0000 
     58 CA         13.6880   -4.2680   15.6540 C.3       6 GLP5        0.0000 
     59 CA         10.2250   -1.7415   14.8145 C.3       3 GLC5        0.0000 
     60 CA         11.2955   -5.8190   18.1685 C.3       3 GLC5        0.0000 
     61 CA          9.8170   -5.4220   16.5890 C.3       9 GLL5        0.0000 
     62 CA         12.7740   -6.2160   19.7480 C.3       6 GLP5        0.0000 
     63 CA         11.7525   -4.8450   16.1215 C.3       3 GLC5        0.0000 
     64 CA         10.8620   -6.4050   14.9345 C.3       3 GLC5        0.0000 
     65 CA         11.9070   -7.3880   13.2800 C.3       6 GLP5        0.0000 
     66 N           7.7485   -5.2520   20.0800 N.am      2 SEC2        0.0000 
     67 N           7.1430   -5.7640   18.9010 N.am      8 SEL2        0.0000 
     68 N           8.3540   -4.7400   21.2590 N.am      5 SEP2        0.0000 
     69 CA          7.4260   -7.5735   20.8750 C.3       3 GLC5        0.0000 
     70 CA          5.9940   -8.2530   19.3450 C.3       9 GLL5        0.0000 
     71 CA          8.8580   -6.8940   22.4050 C.3       6 GLP5        0.0000 
     72 CA          0.2085   -6.5985   20.3295 C.3       3 GLC5        0.0000 
     73 CA          2.2110   -7.0980   20.9010 C.3       9 GLL5        0.0000 
     74 CA         -1.7940   -6.0990   19.7580 C.3       6 GLP5        0.0000 
     75 CA          7.5512    7.6027   11.2763 C.3       3 GLC5        0.0000 
     76 CA          7.7020    5.9660   10.8620 C.3       9 GLL5        0.0000 
     77 CA          6.9890    9.1840   12.2460 C.3       6 GLP5        0.0000 
     78 CA          0.3220   -1.4550   11.7645 C.3       3 GLC5        0.0000 
     79 CA          1.4690    0.5260   11.7400 C.3       9 GLL5        0.0000 
     80 CA         -0.6110   -3.0390   11.1650 C.3       6 GLP5        0.0000 
     81 CA          1.4036    1.6410   13.9395 C.3       3 GLC5        0.0000 
     82 CA          1.2230    2.9600   15.4600 C.3       6 GLP5        0.0000 
     83 CA          9.2560    2.3168   11.3397 C.3       3 GLC5        0.0000 
     84 CA          7.1840    2.1490   10.7610 C.3       9 GLL5        0.0000 
     85 CA         11.1300    2.9940   11.4880 C.3       6 GLP5        0.0000 
     86 CA          6.4383    0.0012    8.9215 C.3       3 GLC5        0.0000 
     87 CA          7.4540    2.0420    9.3930 C.3       9 GLL5        0.0000 
     88 CA          5.0850   -1.4830    8.6980 C.3       6 GLP5        0.0000 
     89 CA          9.4608    2.2397   10.3165 C.3       3 GLC5        0.0000 
     90 CA          6.7397   -0.7573    9.5815 C.3       3 GLC5        0.0000 
     91 CA          8.7398   -1.8058   10.9480 C.3       3 GLC5        0.0000 
     92 CA          9.0850   -3.5800   11.4310 C.3       6 GLP5        0.0000 
     93 CA          9.7623    1.4813   10.9765 C.3       3 GLC5        0.0000 
     94 CA          1.3037   -4.9997   17.1520 C.3       3 GLC5        0.0000 
     95 CA          3.0720   -3.8220   16.0900 C.3       9 GLL5        0.0000 
     96 CA         -0.5550   -5.7820   17.6400 C.3       6 GLP5        0.0000 
     97 CA          1.1445   -6.0457   17.1107 C.3       3 GLC5        0.0000 
     98 CA          3.0440   -6.0000   17.1780 C.3       9 GLL5        0.0000 
     99 CA          1.4585   -7.5347   14.4105 C.3       3 GLC5        0.0000 
    100 CA          2.6440   -6.6190   15.9850 C.3       9 GLL5        0.0000 
    101 CA          0.3740   -8.8410   13.4060 C.3       6 GLP5        0.0000 
    102 CA          0.9975   -5.4627   16.2560 C.3       3 GLC5        0.0000 
    103 CA          4.0130   -5.9097   13.6005 C.3       3 GLC5        0.0000 
    104 CA          5.4760   -6.6760   12.3290 C.3       6 GLP5        0.0000 
    105 CA          1.3354   -3.2292   16.6406 C.3       3 GLC5        0.0000 
    106 CA         -0.2740   -2.3120   17.4950 C.3       6 GLP5        0.0000 
    107 CA          9.0862   -3.7683   13.5142 C.3       3 GLC5        0.0000 
    108 CA          8.8090   -4.6600   15.7320 C.3       9 GLL5        0.0000 
    109 CA          2.9517   -7.1557   22.5126 C.3       3 GLC5        0.0000 
    110 CA          3.3550   -6.2960   20.9830 C.3       9 GLL5        0.0000 
    111 CA          3.0940   -7.3030   24.2380 C.3       6 GLP5        0.0000 
    112 CA          2.1105   -4.7610   20.7640 C.3       3 GLC5        0.0000 
@<TRIPOS>BOND
@<TRIPOS>SUBSTRUCTURE
     1 ALC1        7 GROUP        1 X    ALC  0     ROOT ALC X 1
     2 SEC2        1 GROUP        1 X    SEC  0     **** SEC X 2
     3 GLC5        4 GROUP        1 X    GLC  0     **** GLC X 6
     4 ALP1        9 GROUP        1 Y    ALP  0     ROOT ALP Y 8
     5 SEP2        3 GROUP        1 Y    SEP  0     **** SEP Y 9
     6 GLP5        6 GROUP        1 Y    GLP  0     **** GLP Y 13
     7 ALL1        8 GROUP        1 Z    ALL  0     ROOT ALL Z 15
     8 SEL2        2 GROUP        1 Z    SEL  0     **** SEL Z 16
     9 GLL5        5 GROUP        1 Z    GLL  0     **** GLL Z 20
@<TRIPOS>SET

