#    Name: 1hvi_A77_1_ligand
#    Modification time : Tue Mar 25 06:16:46 2014

@<TRIPOS>MOLECULE
1hvi_A77_1_ligand
  116   119     1     0     0
SMALL
NO_CHARGES


@<TRIPOS>ATOM
      1 C1          3.4840    3.3320   10.7440 C.2       1 A77800      0.0000 
      2 O2          3.3360    4.0240   11.7300 O.2       1 A77800      0.0000 
      3 N3          3.9860    3.8340    9.5980 N.am      1 A77800      0.0000 
      4 C4          4.1860    3.0150    8.3970 C.3       1 A77800      0.0000 
      5 C5          4.3660    5.2480    9.5330 C.3       1 A77800      0.0000 
      6 C6          5.8600    5.4890    9.5740 C.ar      1 A77800      0.0000 
      7 C7          6.5950    5.5550    8.3900 C.ar      1 A77800      0.0000 
      8 N8          6.4040    5.6810   10.7780 N.ar      1 A77800      0.0000 
      9 C9          7.9510    5.8620    8.4900 C.ar      1 A77800      0.0000 
     10 C10         7.7020    5.9660   10.8620 C.ar      1 A77800      0.0000 
     11 C11         8.5250    6.0770    9.7510 C.ar      1 A77800      0.0000 
     12 N21         3.1650    2.0470   10.7480 N.am      1 A77800      0.0000 
     13 C22         2.7860    1.2980   11.9600 C.3       1 A77800      0.0000 
     14 C23         3.9320    0.3780   12.3800 C.2       1 A77800      0.0000 
     15 O24         4.0280   -0.7680   11.9740 O.2       1 A77800      0.0000 
     16 C25         1.4690    0.5260   11.7400 C.3       1 A77800      0.0000 
     17 C26         1.0410   -0.2680   12.9880 C.3       1 A77800      0.0000 
     18 C27         0.3340    1.4570   11.2930 C.3       1 A77800      0.0000 
     19 N37         4.8470    0.9370   13.1830 N.am      1 A77800      0.0000 
     20 C38         6.1390    0.2940   13.5540 C.3       1 A77800      0.0000 
     21 C39         7.2770    1.2140   13.0810 C.3       1 A77800      0.0000 
     22 C40         7.5800    1.1300   11.6220 C.ar      1 A77800      0.0000 
     23 C41         7.1840    2.1490   10.7610 C.ar      1 A77800      0.0000 
     24 C42         7.4540    2.0420    9.3930 C.ar      1 A77800      0.0000 
     25 C43         8.1290    0.9290    8.8970 C.ar      1 A77800      0.0000 
     26 C44         8.5340   -0.0800    9.7830 C.ar      1 A77800      0.0000 
     27 C45         8.2550    0.0170   11.1470 C.ar      1 A77800      0.0000 
     28 C46         6.2460    0.1640   15.0760 C.3       1 A77800      0.0000 
     29 O47         7.4730   -0.4920   15.3580 O.3       1 A77800      0.0000 
     30 O48         5.1290   -0.1720   17.2130 O.3       1 A77800      0.0000 
     31 C49         5.0120   -0.4270   15.8130 C.3       1 A77800      0.0000 
     32 N50         5.7540   -2.8020   16.2090 N.am      1 A77800      0.0000 
     33 C51         4.7380   -1.9260   15.5940 C.3       1 A77800      0.0000 
     34 C52         3.3490   -2.3270   16.1270 C.3       1 A77800      0.0000 
     35 C53         3.0720   -3.8220   16.0900 C.ar      1 A77800      0.0000 
     36 C54         3.2530   -4.6130   17.2380 C.ar      1 A77800      0.0000 
     37 C55         3.0440   -6.0000   17.1780 C.ar      1 A77800      0.0000 
     38 C56         2.6440   -6.6190   15.9850 C.ar      1 A77800      0.0000 
     39 C57         2.4420   -5.8380   14.8450 C.ar      1 A77800      0.0000 
     40 C58         2.6580   -4.4490   14.8990 C.ar      1 A77800      0.0000 
     41 N81         6.9100   -5.9190   16.6840 N.am      1 A77800      0.0000 
     42 C82         7.4180   -4.5880   16.4020 C.3       1 A77800      0.0000 
     43 C83         6.4320   -3.7550   15.5590 C.2       1 A77800      0.0000 
     44 O84         6.3130   -3.9440   14.3650 O.2       1 A77800      0.0000 
     45 C85         8.8090   -4.6600   15.7320 C.3       1 A77800      0.0000 
     46 C86         9.3660   -3.2530   15.4630 C.3       1 A77800      0.0000 
     47 C87         9.8170   -5.4220   16.5890 C.3       1 A77800      0.0000 
     48 C97         6.7680   -6.3930   17.9220 C.2       1 A77800      0.0000 
     49 O98         7.1430   -5.7640   18.9010 O.2       1 A77800      0.0000 
     50 N99         6.2260   -7.6350   18.0230 N.am      1 A77800      0.0000 
     51 C2          5.7910   -8.3920   16.8390 C.3       1 A77800      0.0000 
     52 C3          5.9940   -8.2530   19.3450 C.3       1 A77800      0.0000 
     53 C8          4.6440   -7.8700   19.9060 C.ar      1 A77800      0.0000 
     54 C12         3.5550   -8.7340   19.7710 C.ar      1 A77800      0.0000 
     55 N10         4.5550   -6.6680   20.5110 N.ar      1 A77800      0.0000 
     56 C13         2.3170   -8.3440   20.2820 C.ar      1 A77800      0.0000 
     57 C14         3.3550   -6.2960   20.9830 C.ar      1 A77800      0.0000 
     58 C15         2.2110   -7.0980   20.9010 C.ar      1 A77800      0.0000 
     59 H           3.9007    5.8079   10.3728 H         1 A77800      0.0000 
     60 H           3.9651    5.7093    8.6047 H         1 A77800      0.0000 
     61 H           6.1604    5.3866    7.4944 H         1 A77800      0.0000 
     62 H           8.5292    5.9311    7.6474 H         1 A77800      0.0000 
     63 H           8.1488    6.1192   11.8108 H         1 A77800      0.0000 
     64 H           9.5060    6.3048    9.8400 H         1 A77800      0.0000 
     65 H           3.1636    1.4716    9.8636 H         1 A77800      0.0000 
     66 H           2.6167    2.0097   12.7773 H         1 A77800      0.0000 
     67 H           1.6366   -0.1990   10.9309 H         1 A77800      0.0000 
     68 H           4.7009    1.8880   13.6088 H         1 A77800      0.0000 
     69 H           6.2450   -0.6486   13.1023 H         1 A77800      0.0000 
     70 H           8.1842    0.9669   13.6679 H         1 A77800      0.0000 
     71 H           7.0102    2.2556   13.3499 H         1 A77800      0.0000 
     72 H           6.6974    2.9738   11.1240 H         1 A77800      0.0000 
     73 H           7.1524    2.7882    8.7535 H         1 A77800      0.0000 
     74 H           8.3290    0.8445    7.8992 H         1 A77800      0.0000 
     75 H           9.0421   -0.8993    9.4205 H         1 A77800      0.0000 
     76 H           8.5473   -0.7272   11.7849 H         1 A77800      0.0000 
     77 H           6.3454    1.2361   15.4497 H         1 A77800      0.0000 
     78 H           4.1231    0.1227   15.4316 H         1 A77800      0.0000 
     79 H           5.9186   -2.6208   17.2385 H         1 A77800      0.0000 
     80 H           4.7200   -2.1076   14.5089 H         1 A77800      0.0000 
     81 H           2.5819   -1.8002   15.5344 H         1 A77800      0.0000 
     82 H           3.2553   -1.9653   17.1651 H         1 A77800      0.0000 
     83 H           3.5379   -4.1758   18.1195 H         1 A77800      0.0000 
     84 H           3.1870   -6.5715   18.0243 H         1 A77800      0.0000 
     85 H           2.5028   -7.6288   15.9528 H         1 A77800      0.0000 
     86 H           2.1371   -6.2715   13.9689 H         1 A77800      0.0000 
     87 H           2.5108   -3.8797   14.0523 H         1 A77800      0.0000 
     88 H           6.6575   -6.4943   15.8434 H         1 A77800      0.0000 
     89 H           7.5612   -4.0424   17.3552 H         1 A77800      0.0000 
     90 H           8.7110   -5.1681   14.7818 H         1 A77800      0.0000 
     91 H           6.7736   -7.9369   20.0522 H         1 A77800      0.0000 
     92 H           6.0461   -9.3479   19.2649 H         1 A77800      0.0000 
     93 H           3.6638   -9.6345   19.3066 H         1 A77800      0.0000 
     94 H           1.5076   -8.9556   20.2050 H         1 A77800      0.0000 
     95 H           3.2433   -5.3499   21.4462 H         1 A77800      0.0000 
     96 H           1.3266   -6.7792   21.2831 H         1 A77800      0.0000 
     97 H           4.5692    3.5487    7.6431 H         1 A77800      0.0000 
     98 H           4.8130    2.2546    8.5662 H         1 A77800      0.0000 
     99 H           3.3276    2.6199    8.0697 H         1 A77800      0.0000 
    100 H           1.7285   -0.9446   13.2516 H         1 A77800      0.0000 
    101 H           0.8996    0.3291   13.7776 H         1 A77800      0.0000 
    102 H           0.1852   -0.7630   12.8378 H         1 A77800      0.0000 
    103 H           0.1465    2.1666   11.9722 H         1 A77800      0.0000 
    104 H           0.5516    1.9225   10.4351 H         1 A77800      0.0000 
    105 H          -0.5202    0.9578   11.1472 H         1 A77800      0.0000 
    106 H          10.2645   -3.2867   15.0252 H         1 A77800      0.0000 
    107 H           8.7665   -2.7250   14.8615 H         1 A77800      0.0000 
    108 H           9.4708   -2.7274   16.3072 H         1 A77800      0.0000 
    109 H          10.7171   -5.4633   16.1553 H         1 A77800      0.0000 
    110 H           9.9423   -4.9939   17.4840 H         1 A77800      0.0000 
    111 H           9.5272   -6.3649   16.7531 H         1 A77800      0.0000 
    112 H           6.5466   -8.5561   16.2049 H         1 A77800      0.0000 
    113 H           5.4167   -9.2857   17.0865 H         1 A77800      0.0000 
    114 H           5.0802   -7.9076   16.3290 H         1 A77800      0.0000 
    115 H           7.7651   -0.1256   16.2414 H         1 A77800      0.0000 
    116 H           6.0595    0.1731   17.3362 H         1 A77800      0.0000 
@<TRIPOS>BOND
     1    2    1 2    
     2    3    1 am   
     3   12    1 am   
     4    4    3 1    
     5    5    3 1    
     6   97    4 1    
     7   98    4 1    
     8   99    4 1    
     9    6    5 1    
    10   59    5 1    
    11   60    5 1    
    12    7    6 ar   
    13    8    6 ar   
    14    9    7 ar   
    15   61    7 1    
    16   10    8 ar   
    17   11    9 ar   
    18   62    9 1    
    19   11   10 ar   
    20   63   10 1    
    21   64   11 1    
    22   13   12 1    
    23   65   12 1    
    24   14   13 1    
    25   16   13 1    
    26   66   13 1    
    27   15   14 2    
    28   19   14 am   
    29   17   16 1    
    30   18   16 1    
    31   67   16 1    
    32  100   17 1    
    33  101   17 1    
    34  102   17 1    
    35  103   18 1    
    36  104   18 1    
    37  105   18 1    
    38   20   19 1    
    39   68   19 1    
    40   21   20 1    
    41   28   20 1    
    42   69   20 1    
    43   22   21 1    
    44   70   21 1    
    45   71   21 1    
    46   23   22 ar   
    47   27   22 ar   
    48   24   23 ar   
    49   72   23 1    
    50   25   24 ar   
    51   73   24 1    
    52   26   25 ar   
    53   74   25 1    
    54   27   26 ar   
    55   75   26 1    
    56   76   27 1    
    57   29   28 1    
    58   31   28 1    
    59   77   28 1    
    60  115   29 1    
    61   31   30 1    
    62  116   30 1    
    63   33   31 1    
    64   78   31 1    
    65   33   32 1    
    66   43   32 am   
    67   79   32 1    
    68   34   33 1    
    69   80   33 1    
    70   35   34 1    
    71   81   34 1    
    72   82   34 1    
    73   36   35 ar   
    74   40   35 ar   
    75   37   36 ar   
    76   83   36 1    
    77   38   37 ar   
    78   84   37 1    
    79   39   38 ar   
    80   85   38 1    
    81   40   39 ar   
    82   86   39 1    
    83   87   40 1    
    84   42   41 1    
    85   48   41 am   
    86   88   41 1    
    87   43   42 1    
    88   45   42 1    
    89   89   42 1    
    90   44   43 2    
    91   46   45 1    
    92   47   45 1    
    93   90   45 1    
    94  106   46 1    
    95  107   46 1    
    96  108   46 1    
    97  109   47 1    
    98  110   47 1    
    99  111   47 1    
   100   49   48 2    
   101   50   48 am   
   102   51   50 1    
   103   52   50 1    
   104  112   51 1    
   105  113   51 1    
   106  114   51 1    
   107   53   52 1    
   108   91   52 1    
   109   92   52 1    
   110   54   53 ar   
   111   55   53 ar   
   112   56   54 ar   
   113   93   54 1    
   114   57   55 ar   
   115   58   56 ar   
   116   94   56 1    
   117   58   57 ar   
   118   95   57 1    
   119   96   58 1    
@<TRIPOS>SUBSTRUCTURE
     1 A77800      1 GROUP   
@<TRIPOS>SET

