#    Name: 3s7a_684_1_INTS_M
#    Modification time : Tue Mar 25 12:15:45 2014

@<TRIPOS>MOLECULE
3s7a_684_1_INTS_M
   76     0     9     0     0
SMALL
NO_CHARGES


@<TRIPOS>ATOM
      1 N          19.3255   12.2455   11.1705 N.am      2 SEC2        0.0000 
      2 N          19.2600   11.0930   10.4420 N.am      8 SEL2        0.0000 
      3 N          19.3910   13.3980   11.8990 N.am      5 SEP2        0.0000 
      4 CA         17.5445   10.8660    7.6490 C.3       3 GLC5        0.0000 
      5 CA         18.8350   11.1060    9.1620 C.3       9 GLL5        0.0000 
      6 CA         16.2540   10.6260    6.1360 C.3       6 GLP5        0.0000 
      7 CA         19.7920   10.7710    7.3235 C.3       3 GLC5        0.0000 
      8 CA         20.7490   10.4360    5.4850 C.3       6 GLP5        0.0000 
      9 CA         20.5110   12.0805    9.2525 C.3       3 GLC5        0.0000 
     10 CA         22.1870   13.0550    9.3430 C.3       6 GLP5        0.0000 
     11 CA         17.2055   10.6635   10.2690 C.3       3 GLC5        0.0000 
     12 CA         15.5760   10.2210   11.3760 C.3       6 GLP5        0.0000 
     13 O          18.3900   13.3935    9.4920 O.2       1 ALC1        0.0000 
     14 O          18.3190   12.2490    8.7120 O.2       7 ALL1        0.0000 
     15 O          18.4610   14.5380   10.2720 O.2       4 ALP1        0.0000 
     16 O          17.9140   13.1325    7.4325 O.2       1 ALC1        0.0000 
     17 O          17.5090   14.0160    6.1530 O.2       4 ALP1        0.0000 
     18 CA         20.0915    9.6405    7.1705 C.3       3 GLC5        0.0000 
     19 CA         19.4340    8.8450    8.8560 C.3       9 GLL5        0.0000 
     20 O          19.3150    7.9695    6.5965 O.2       1 ALC1        0.0000 
     21 O          19.5370    7.7490    8.0710 O.2       7 ALL1        0.0000 
     22 O          19.0930    8.1900    5.1220 O.2       4 ALP1        0.0000 
     23 CA         23.0610    7.6795   12.7235 C.3       3 GLC5        0.0000 
     24 CA         21.4410    6.4140   12.5490 C.3       9 GLL5        0.0000 
     25 CA         24.6810    8.9450   12.8980 C.3       6 GLP5        0.0000 
     26 CA         20.9930    4.2940   12.9645 C.3       3 GLC5        0.0000 
     27 CA         20.5450    2.1740   13.3800 C.3       6 GLP5        0.0000 
     28 CA         20.9810   11.5125   10.1580 C.3       3 GLC5        0.0000 
     29 CA         19.7750    9.9700   10.9730 C.3       9 GLL5        0.0000 
     30 CA         17.6755   10.0955   11.1745 C.3       3 GLC5        0.0000 
     31 CA         24.9710    2.5770   14.3630 C.3       3 GLC5        0.0000 
     32 CA         24.3750    4.4490   14.8080 C.3       9 GLL5        0.0000 
     33 CA         25.5670    0.7050   13.9180 C.3       6 GLP5        0.0000 
     34 CA         22.9375    2.9675   15.2125 C.3       3 GLC5        0.0000 
     35 CA         21.5000    1.4860   15.6170 C.3       6 GLP5        0.0000 
     36 CA         22.9405    8.4385   15.9935 C.3       3 GLC5        0.0000 
     37 CA         21.8740    7.1090   16.7810 C.3       9 GLL5        0.0000 
     38 CA         24.0070    9.7680   15.2060 C.3       6 GLP5        0.0000 
     39 CA         16.2065    9.4660   16.9845 C.3       3 GLC5        0.0000 
     40 CA         15.3880    7.4320   17.4260 C.3       9 GLL5        0.0000 
     41 CA         17.0250   11.5000   16.5430 C.3       6 GLP5        0.0000 
     42 CA         15.7870    4.4080   17.8875 C.3       3 GLC5        0.0000 
     43 CA         15.8610    6.0410   17.0080 C.3       9 GLL5        0.0000 
     44 CA         15.7130    2.7750   18.7670 C.3       6 GLP5        0.0000 
     45 CA         17.4545    9.4180   18.4270 C.3       3 GLC5        0.0000 
     46 CA         16.0200    7.8510   18.7600 C.3       9 GLL5        0.0000 
     47 CA         18.8890   10.9850   18.0940 C.3       6 GLP5        0.0000 
     48 CA         22.7242    8.6265   12.6500 C.3       3 GLC5        0.0000 
     49 CA         20.8180    7.7240   12.0160 C.3       9 GLL5        0.0000 
     50 CA         26.5945    4.9207   15.5175 C.3       3 GLC5        0.0000 
     51 CA         28.6850    5.1660   15.5800 C.3       6 GLP5        0.0000 
     52 CA         24.7245    6.7707   14.9150 C.3       3 GLC5        0.0000 
     53 CA         24.6330    4.9020   16.1020 C.3       9 GLL5        0.0000 
     54 CA         24.9450    8.8660   14.3750 C.3       6 GLP5        0.0000 
     55 CA         22.5375    4.4318   17.0783 C.3       3 GLC5        0.0000 
     56 CA         20.8710    3.5110   17.7420 C.3       6 GLP5        0.0000 
     57 CA         18.2858    3.8247   15.0433 C.3       3 GLC5        0.0000 
     58 CA         17.4000    6.0190   15.2080 C.3       9 GLL5        0.0000 
     59 CA         18.9640    1.8910   15.4930 C.3       6 GLP5        0.0000 
     60 CA         16.1988    4.1288   14.4312 C.3       3 GLC5        0.0000 
     61 CA         17.8150    5.4980   13.9790 C.3       9 GLL5        0.0000 
     62 CA         14.7900    2.4990   14.2690 C.3       6 GLP5        0.0000 
     63 CA         24.0805    7.4435   15.3753 C.3       3 GLC5        0.0000 
     64 CA         22.6570    6.2390   16.0240 C.3       9 GLL5        0.0000 
     65 CA         23.8773    7.1040   14.3998 C.3       3 GLC5        0.0000 
     66 CA         22.3840    5.7940   14.7330 C.3       9 GLL5        0.0000 
     67 CA         21.6773    3.7580   13.9023 C.3       3 GLC5        0.0000 
     68 CA         20.0795    4.0145   13.7127 C.3       3 GLC5        0.0000 
     69 CA         20.0750    6.1490   14.4800 C.3       9 GLL5        0.0000 
     70 CA         21.1665    9.0162   17.0182 C.3       3 GLC5        0.0000 
     71 CA         20.4960    7.2700   16.6420 C.3       9 GLL5        0.0000 
     72 CA         21.1480   10.8430   17.3250 C.3       6 GLP5        0.0000 
     73 CA         21.0280    5.3502   17.2267 C.3       3 GLC5        0.0000 
     74 CA         21.6957    4.7637   16.5603 C.3       3 GLC5        0.0000 
     75 CA         20.2064    4.9455   16.4616 C.3       3 GLC5        0.0000 
     76 CA         19.6830    6.6390   15.6960 C.3       9 GLL5        0.0000 
@<TRIPOS>BOND
@<TRIPOS>SUBSTRUCTURE
     1 ALC1       13 GROUP        1 X    ALC  0     ROOT ALC X 1
     2 SEC2        1 GROUP        1 X    SEC  0     **** SEC X 2
     3 GLC5        4 GROUP        1 X    GLC  0     **** GLC X 6
     4 ALP1       15 GROUP        1 Y    ALP  0     ROOT ALP Y 8
     5 SEP2        3 GROUP        1 Y    SEP  0     **** SEP Y 9
     6 GLP5        6 GROUP        1 Y    GLP  0     **** GLP Y 13
     7 ALL1       14 GROUP        1 Z    ALL  0     ROOT ALL Z 15
     8 SEL2        2 GROUP        1 Z    SEL  0     **** SEL Z 16
     9 GLL5        5 GROUP        1 Z    GLL  0     **** GLL Z 20
@<TRIPOS>SET

