#    Name: 3s7a_684_1_ligand
#    Modification time : Tue Mar 25 12:15:45 2014

@<TRIPOS>MOLECULE
3s7a_684_1_ligand
   57    61     1     0     0
SMALL
NO_CHARGES


@<TRIPOS>ATOM
      1 N1         19.2600   11.0930   10.4420 N.ar      1 684192      0.0000 
      2 C2         18.8350   11.1060    9.1620 C.ar      1 684192      0.0000 
      3 N2         18.3190   12.2490    8.7120 N.pl3     1 684192      0.0000 
      4 N3         18.9410    9.9970    8.3760 N.ar      1 684192      0.0000 
      5 C4         19.4340    8.8450    8.8560 C.ar      1 684192      0.0000 
      6 N4         19.5370    7.7490    8.0710 N.pl3     1 684192      0.0000 
      7 N5         20.4160    7.7370   10.7340 N.ar      1 684192      0.0000 
      8 C6         20.8180    7.7240   12.0160 C.ar      1 684192      0.0000 
      9 C7         20.7170    8.8920   12.7880 C.ar      1 684192      0.0000 
     10 N8         20.1960    9.9830   12.2580 N.ar      1 684192      0.0000 
     11 C9         21.4410    6.4140   12.5490 C.3       1 684192      0.0000 
     12 N10        21.3050    6.1550   13.9820 N.3       1 684192      0.0000 
     13 C4A        19.8620    8.8280   10.2080 C.ar      1 684192      0.0000 
     14 C8A        19.7750    9.9700   10.9730 C.ar      1 684192      0.0000 
     15 OAC        13.8550    8.0600   19.6610 O.co2     1 684192      0.0000 
     16 OAD        15.2870    9.7210   20.0480 O.co2     1 684192      0.0000 
     17 CAE        24.6330    4.9020   16.1020 C.ar      1 684192      0.0000 
     18 CAF        24.3750    4.4490   14.8080 C.ar      1 684192      0.0000 
     19 CAG        17.8150    5.4980   13.9790 C.ar      1 684192      0.0000 
     20 CAH        23.7750    5.8030   16.7270 C.ar      1 684192      0.0000 
     21 CAI        23.2350    4.8900   14.1160 C.ar      1 684192      0.0000 
     22 CAJ        19.1530    5.5610   13.6110 C.ar      1 684192      0.0000 
     23 CAK        21.8740    7.1090   16.7810 C.2       1 684192      0.0000 
     24 CAL        20.4960    7.2700   16.6420 C.2       1 684192      0.0000 
     25 CAN        18.3340    6.5830   16.0690 C.ar      1 684192      0.0000 
     26 CAO        15.3880    7.4320   17.4260 C.3       1 684192      0.0000 
     27 CAP        15.8610    6.0410   17.0080 C.3       1 684192      0.0000 
     28 CAQ        16.0200    7.8510   18.7600 C.3       1 684192      0.0000 
     29 OAW        16.0760    5.9330   15.5610 O.3       1 684192      0.0000 
     30 CAX        14.9770    8.5960   19.5890 C.2       1 684192      0.0000 
     31 CBA        17.4000    6.0190   15.2080 C.ar      1 684192      0.0000 
     32 CBC        22.6570    6.2390   16.0240 C.ar      1 684192      0.0000 
     33 CBD        19.6830    6.6390   15.6960 C.ar      1 684192      0.0000 
     34 CBF        22.3840    5.7940   14.7330 C.ar      1 684192      0.0000 
     35 CBG        20.0750    6.1490   14.4800 C.ar      1 684192      0.0000 
     36 H          18.0590   12.2644    7.7465 H         1 684192      0.0000 
     37 H          18.2382   12.9885    9.3803 H         1 684192      0.0000 
     38 H          19.4527    6.8666    8.5340 H         1 684192      0.0000 
     39 H          19.6884    7.9180    7.0970 H         1 684192      0.0000 
     40 H          21.0605    8.8593   13.7653 H         1 684192      0.0000 
     41 H          22.5226    6.4205   12.2557 H         1 684192      0.0000 
     42 H          20.9953    5.5729   11.9576 H         1 684192      0.0000 
     43 H          25.4716    4.5640   16.6018 H         1 684192      0.0000 
     44 H          25.0197    3.7893   14.3551 H         1 684192      0.0000 
     45 H          17.1255    5.0681   13.3489 H         1 684192      0.0000 
     46 H          23.9608    6.1319   17.6689 H         1 684192      0.0000 
     47 H          23.0438    4.5461   13.1759 H         1 684192      0.0000 
     48 H          19.4635    5.1815   12.7133 H         1 684192      0.0000 
     49 H          22.3643    7.6939   17.5200 H         1 684192      0.0000 
     50 H          20.0137    7.9399   17.3236 H         1 684192      0.0000 
     51 H          18.0407    6.9591   16.9774 H         1 684192      0.0000 
     52 H          14.3042    7.4281   17.5313 H         1 684192      0.0000 
     53 H          15.6653    8.1532   16.6587 H         1 684192      0.0000 
     54 H          15.1080    5.3080   17.3427 H         1 684192      0.0000 
     55 H          16.7921    5.8169   17.5549 H         1 684192      0.0000 
     56 H          16.8609    8.5009   18.5673 H         1 684192      0.0000 
     57 H          16.3439    6.9694   19.2933 H         1 684192      0.0000 
@<TRIPOS>BOND
     1    2    1 ar   
     2   14    1 ar   
     3    3    2 1    
     4    4    2 ar   
     5   36    3 1    
     6   37    3 1    
     7    5    4 ar   
     8    6    5 1    
     9   13    5 ar   
    10   38    6 1    
    11   39    6 1    
    12    8    7 ar   
    13   13    7 ar   
    14    9    8 ar   
    15   11    8 1    
    16   10    9 ar   
    17   40    9 1    
    18   14   10 ar   
    19   12   11 1    
    20   41   11 1    
    21   42   11 1    
    22   34   12 1    
    23   35   12 1    
    24   14   13 ar   
    25   30   15 ar   
    26   30   16 ar   
    27   18   17 ar   
    28   20   17 ar   
    29   43   17 1    
    30   21   18 ar   
    31   44   18 1    
    32   22   19 ar   
    33   31   19 ar   
    34   45   19 1    
    35   32   20 ar   
    36   46   20 1    
    37   34   21 ar   
    38   47   21 1    
    39   35   22 ar   
    40   48   22 1    
    41   24   23 2    
    42   32   23 1    
    43   49   23 1    
    44   33   24 1    
    45   50   24 1    
    46   31   25 ar   
    47   33   25 ar   
    48   51   25 1    
    49   27   26 1    
    50   28   26 1    
    51   52   26 1    
    52   53   26 1    
    53   29   27 1    
    54   54   27 1    
    55   55   27 1    
    56   30   28 1    
    57   56   28 1    
    58   57   28 1    
    59   31   29 1    
    60   34   32 ar   
    61   35   33 ar   
@<TRIPOS>SUBSTRUCTURE
     1 684192      1 GROUP   
@<TRIPOS>SET

