#    Name: 1m2r_MNY_1_INTS_M
#    Modification time : Tue Mar 25 11:23:45 2014

@<TRIPOS>MOLECULE
1m2r_MNY_1_INTS_M
   53     0     9     0     0
SMALL
NO_CHARGES


@<TRIPOS>ATOM
      1 CA         22.8015    9.6620   20.4220 C.3       3 GLC5        0.0000 
      2 CA         22.0260    7.7570   20.2360 C.3       9 GLL5        0.0000 
      3 CA         23.5770   11.5670   20.6080 C.3       6 GLP5        0.0000 
      4 CA         21.4120    6.7485   18.1515 C.3       3 GLC5        0.0000 
      5 CA         23.0600    7.9470   17.4510 C.3       9 GLL5        0.0000 
      6 CA         19.7640    5.5500   18.8520 C.3       6 GLP5        0.0000 
      7 CA         19.5485   10.7215   17.2650 C.3       3 GLC5        0.0000 
      8 CA         21.6190    9.9200   16.9970 C.3       9 GLL5        0.0000 
      9 CA         17.4780   11.5230   17.5330 C.3       6 GLP5        0.0000 
     10 N          18.9005    8.6010   22.5375 N.am      2 SEC2        0.0000 
     11 N          20.5630    8.5850   22.0650 N.am      8 SEL2        0.0000 
     12 N          17.2380    8.6170   23.0100 N.am      5 SEP2        0.0000 
     13 O          20.6725   12.3710   16.9945 O.2       1 ALC1        0.0000 
     14 O          20.6610   10.8750   17.3780 O.2       7 ALL1        0.0000 
     15 O          20.6840   13.8670   16.6110 O.2       4 ALP1        0.0000 
     16 CA         23.5738    8.0267   21.8507 C.3       3 GLC5        0.0000 
     17 CA         25.3780    8.3390   22.7930 C.3       6 GLP5        0.0000 
     18 CA         19.8210    6.8600   21.9572 C.3       3 GLC5        0.0000 
     19 CA         21.5130    7.6720   21.5810 C.3       9 GLL5        0.0000 
     20 CA         17.8970    6.5530   21.9000 C.3       6 GLP5        0.0000 
     21 CA         20.7668    6.6322   19.8803 C.3       3 GLC5        0.0000 
     22 CA         24.3028    7.3135   21.5155 C.3       3 GLC5        0.0000 
     23 CA         23.0010    6.7960   19.7840 C.3       9 GLL5        0.0000 
     24 CA         24.8372    7.3190   19.7980 C.3       3 GLC5        0.0000 
     25 CA         23.4540    5.7800   20.6920 C.3       9 GLL5        0.0000 
     26 CA         26.4470    8.3500   19.3580 C.3       6 GLP5        0.0000 
     27 CA         21.4958    5.9190   19.5450 C.3       3 GLC5        0.0000 
     28 CA         25.1175    5.0593   21.7680 C.3       3 GLC5        0.0000 
     29 CA         27.0410    4.3680   22.1870 C.3       6 GLP5        0.0000 
     30 CA         23.6833    7.0198   23.1915 C.3       3 GLC5        0.0000 
     31 CA         22.9340    5.7210   22.0060 C.3       9 GLL5        0.0000 
     32 CA         24.9110    7.8480   24.1560 C.3       6 GLP5        0.0000 
     33 CA         21.1097    5.8708   20.5395 C.3       3 GLC5        0.0000 
     34 CA         21.9770    6.6620   22.4480 C.3       9 GLL5        0.0000 
     35 CA         24.8822    8.1723   18.0688 C.3       3 GLC5        0.0000 
     36 CA         24.1657    9.5712   17.3912 C.3       3 GLC5        0.0000 
     37 CA         25.0140   11.1480   18.0030 C.3       6 GLP5        0.0000 
     38 CA         22.6017    6.3697   16.2267 C.3       3 GLC5        0.0000 
     39 CA         21.8860    4.7450   15.6740 C.3       6 GLP5        0.0000 
     40 CA         22.4600   10.7598   18.3618 C.3       3 GLC5        0.0000 
     41 CA         22.0770    8.9050   17.9020 C.3       9 GLL5        0.0000 
     42 CA         23.0720   12.1070   19.2740 C.3       6 GLP5        0.0000 
     43 CA         20.3870    7.9027   17.4772 C.3       3 GLC5        0.0000 
     44 CA         18.9260    6.3930   17.5050 C.3       6 GLP5        0.0000 
     45 CA         23.8205   10.3325   16.7357 C.3       3 GLC5        0.0000 
     46 CA         22.1450    9.9810   15.6890 C.3       9 GLL5        0.0000 
     47 CA         23.0245   11.3325   14.8283 C.3       3 GLC5        0.0000 
     48 CA         23.4220   13.1480   14.1880 C.3       6 GLP5        0.0000 
     49 CA         21.5392   10.1549   14.2987 C.3       3 GLC5        0.0000 
     50 CA         23.1090    9.0530   15.2480 C.3       9 GLL5        0.0000 
     51 CA         20.5830   10.8080   12.8020 C.3       6 GLP5        0.0000 
     52 CA         21.2957    8.2334   15.0113 C.3       3 GLC5        0.0000 
     53 CA         20.0960    6.9650   14.2270 C.3       6 GLP5        0.0000 
@<TRIPOS>BOND
@<TRIPOS>SUBSTRUCTURE
     1 ALC1       13 GROUP        1 X    ALC  0     ROOT ALC X 1
     2 SEC2       10 GROUP        1 X    SEC  0     **** SEC X 2
     3 GLC5        1 GROUP        1 X    GLC  0     **** GLC X 6
     4 ALP1       15 GROUP        1 Y    ALP  0     ROOT ALP Y 8
     5 SEP2       12 GROUP        1 Y    SEP  0     **** SEP Y 9
     6 GLP5        3 GROUP        1 Y    GLP  0     **** GLP Y 13
     7 ALL1       14 GROUP        1 Z    ALL  0     ROOT ALL Z 15
     8 SEL2       11 GROUP        1 Z    SEL  0     **** SEL Z 16
     9 GLL5        2 GROUP        1 Z    GLL  0     **** GLL Z 20
@<TRIPOS>SET

