#    Name: 1m2r_MNY_1_ligand
#    Modification time : Tue Mar 25 11:23:45 2014

@<TRIPOS>MOLECULE
1m2r_MNY_1_ligand
   30    32     1     0     0
SMALL
NO_CHARGES


@<TRIPOS>ATOM
      1 C1         21.5130    7.6720   21.5810 C.ar      1 MNY351      0.0000 
      2 C2         22.0260    7.7570   20.2360 C.ar      1 MNY351      0.0000 
      3 C3         23.0010    6.7960   19.7840 C.ar      1 MNY351      0.0000 
      4 C4         23.4540    5.7800   20.6920 C.ar      1 MNY351      0.0000 
      5 C5         22.9340    5.7210   22.0060 C.ar      1 MNY351      0.0000 
      6 C6         21.9770    6.6620   22.4480 C.ar      1 MNY351      0.0000 
      7 C13        23.5400    6.8830   18.3890 C.2       1 MNY351      0.0000 
      8 C14        23.0600    7.9470   17.4510 C.ar      1 MNY351      0.0000 
      9 C15        22.0770    8.9050   17.9020 C.ar      1 MNY351      0.0000 
     10 C16        21.5390    8.8170   19.2950 C.2       1 MNY351      0.0000 
     11 C22        21.6190    9.9200   16.9970 C.ar      1 MNY351      0.0000 
     12 C23        22.1450    9.9810   15.6890 C.ar      1 MNY351      0.0000 
     13 C24        23.1090    9.0530   15.2480 C.ar      1 MNY351      0.0000 
     14 C25        23.5750    8.0420   16.1080 C.ar      1 MNY351      0.0000 
     15 O16        20.6980    9.6380   19.6810 O.2       1 MNY351      0.0000 
     16 O13        24.3850    6.0580   17.9990 O.2       1 MNY351      0.0000 
     17 O1         20.5630    8.5850   22.0650 O.3       1 MNY351      0.0000 
     18 N22        20.6610   10.8750   17.3780 N.pl3     1 MNY351      0.0000 
     19 N25        24.5640    7.1190   15.6050 N.pl3     1 MNY351      0.0000 
     20 O4         24.4300    4.7990   20.2930 O.3       1 MNY351      0.0000 
     21 H          23.2559    4.9859   22.6455 H         1 MNY351      0.0000 
     22 H          21.6184    6.6085   23.4067 H         1 MNY351      0.0000 
     23 H          21.8181   10.7165   15.0467 H         1 MNY351      0.0000 
     24 H          23.4740    9.1159   14.2905 H         1 MNY351      0.0000 
     25 H          20.7082   11.7570   16.9091 H         1 MNY351      0.0000 
     26 H          20.0139   10.5911   18.0855 H         1 MNY351      0.0000 
     27 H          24.8655    7.2673   14.6631 H         1 MNY351      0.0000 
     28 H          24.8655    6.4079   16.2402 H         1 MNY351      0.0000 
     29 H          20.3464    9.1712   21.2843 H         1 MNY351      0.0000 
     30 H          24.6762    5.0454   19.3556 H         1 MNY351      0.0000 
@<TRIPOS>BOND
     1    2    1 ar   
     2    6    1 ar   
     3   17    1 1    
     4    3    2 ar   
     5   10    2 1    
     6    4    3 ar   
     7    7    3 1    
     8    5    4 ar   
     9   20    4 1    
    10    6    5 ar   
    11   21    5 1    
    12   22    6 1    
    13    8    7 1    
    14   16    7 2    
    15    9    8 ar   
    16   14    8 ar   
    17   10    9 1    
    18   11    9 ar   
    19   15   10 2    
    20   12   11 ar   
    21   18   11 1    
    22   13   12 ar   
    23   23   12 1    
    24   14   13 ar   
    25   24   13 1    
    26   19   14 1    
    27   29   17 1    
    28   25   18 1    
    29   26   18 1    
    30   27   19 1    
    31   28   19 1    
    32   30   20 1    
@<TRIPOS>SUBSTRUCTURE
     1 MNY351      1 GROUP   
@<TRIPOS>SET

