#    Name: 3h0a_9RA_1_INTS_M
#    Modification time : Tue Mar 25 13:21:07 2014

@<TRIPOS>MOLECULE
3h0a_9RA_1_INTS_M
   86     0     6     0     0
SMALL
NO_CHARGES


@<TRIPOS>ATOM
      1 N          55.5350    7.8815   40.5525 N.am      1 SEC2        0.0000 
      2 N          57.0810    7.4250   40.5310 N.am      5 SEL2        0.0000 
      3 N          53.9890    8.3380   40.5740 N.am      3 SEP2        0.0000 
      4 CA         59.2360    4.9570   38.5295 C.3       2 GLC5        0.0000 
      5 CA         59.2580    6.7940   38.7300 C.3       6 GLL5        0.0000 
      6 CA         59.2140    3.1200   38.3290 C.3       4 GLP5        0.0000 
      7 CA         60.4535    4.9655   38.3125 C.3       2 GLC5        0.0000 
      8 CA         60.2220    6.6360   37.7340 C.3       6 GLL5        0.0000 
      9 CA         60.6850    3.2950   38.8910 C.3       4 GLP5        0.0000 
     10 CA         60.1270    8.1470   35.7305 C.3       2 GLC5        0.0000 
     11 CA         62.0530    7.5640   36.3160 C.3       6 GLL5        0.0000 
     12 CA         58.2010    8.7300   35.1450 C.3       4 GLP5        0.0000 
     13 CA         62.9475    4.7050   36.3810 C.3       2 GLC5        0.0000 
     14 CA         62.0740    6.4320   35.6440 C.3       6 GLL5        0.0000 
     15 CA         63.8210    2.9780   37.1180 C.3       4 GLP5        0.0000 
     16 CA         60.8765    6.0150   33.9345 C.3       2 GLC5        0.0000 
     17 CA         59.6790    5.5980   32.2250 C.3       4 GLP5        0.0000 
     18 CA         63.7700    6.6910   38.6195 C.3       2 GLC5        0.0000 
     19 CA         64.9360    7.2790   36.9530 C.3       6 GLL5        0.0000 
     20 CA         62.6040    6.1030   40.2860 C.3       4 GLP5        0.0000 
     21 CA         65.0035    5.3180   36.7815 C.3       2 GLC5        0.0000 
     22 CA         65.0710    3.3570   36.6100 C.3       4 GLP5        0.0000 
     23 CA         66.3575    6.5530   36.4750 C.3       2 GLC5        0.0000 
     24 CA         67.7790    5.8270   35.9970 C.3       4 GLP5        0.0000 
     25 CA         60.0305   13.1985   36.3270 C.3       2 GLC5        0.0000 
     26 CA         61.9750   12.8400   35.2590 C.3       6 GLL5        0.0000 
     27 CA         58.0860   13.5570   37.3950 C.3       4 GLP5        0.0000 
     28 CA         60.9940   14.4855   34.9835 C.3       2 GLC5        0.0000 
     29 CA         60.0130   16.1310   34.7080 C.3       4 GLP5        0.0000 
     30 CA         62.9620   11.5495   31.4560 C.3       2 GLC5        0.0000 
     31 CA         62.2250   11.7790   32.9850 C.3       6 GLL5        0.0000 
     32 CA         63.6990   11.3200   29.9270 C.3       4 GLP5        0.0000 
     33 CA         60.5715   11.8245   31.7260 C.3       2 GLC5        0.0000 
     34 CA         58.9180   11.8700   30.4670 C.3       4 GLP5        0.0000 
     35 CA         65.4230   14.7280   33.6055 C.3       2 GLC5        0.0000 
     36 CA         64.0560   13.0850   33.9810 C.3       6 GLL5        0.0000 
     37 CA         66.7900   16.3710   33.2300 C.3       4 GLP5        0.0000 
     38 CA         64.5150   13.4010   31.9360 C.3       2 GLC5        0.0000 
     39 CA         64.9740   13.7170   29.8910 C.3       4 GLP5        0.0000 
     40 CA         62.4120   14.5985   33.7630 C.3       2 GLC5        0.0000 
     41 CA         60.7680   16.1120   33.5450 C.3       4 GLP5        0.0000 
     42 CA         64.9995   11.4160   31.6930 C.3       2 GLC5        0.0000 
     43 CA         66.3000   11.5120   33.4590 C.3       6 GLL5        0.0000 
     44 CA         65.4860    9.5960   33.1940 C.3       2 GLC5        0.0000 
     45 CA         64.6720    7.6800   32.9290 C.3       4 GLP5        0.0000 
     46 CA         67.8210   11.0440   32.5255 C.3       2 GLC5        0.0000 
     47 CA         69.3420   10.5760   31.5920 C.3       4 GLP5        0.0000 
     48 CA         67.7780    9.9430   36.1460 C.3       2 GLC5        0.0000 
     49 CA         67.0690   11.7170   35.8430 C.3       6 GLL5        0.0000 
     50 CA         68.4870    8.1690   36.4490 C.3       4 GLP5        0.0000 
     51 CA         68.7370   12.5605   35.2790 C.3       2 GLC5        0.0000 
     52 CA         70.4050   13.4040   34.7150 C.3       4 GLP5        0.0000 
     53 CA         61.0523    7.3340   39.7460 C.3       2 GLC5        0.0000 
     54 CA         59.9040    9.1060   39.0310 C.3       6 GLL5        0.0000 
     55 CA         58.6453    6.1890   40.5957 C.3       2 GLC5        0.0000 
     56 CA         59.0970    8.0240   39.3810 C.3       6 GLL5        0.0000 
     57 CA         58.1130    4.9690   42.1360 C.3       4 GLP5        0.0000 
     58 CA         57.2812    8.1225   38.4013 C.3       2 GLC5        0.0000 
     59 CA         55.3850    8.8360   37.7470 C.3       4 GLP5        0.0000 
     60 CA         61.9240   10.2055   38.5620 C.3       2 GLC5        0.0000 
     61 CA         63.4650   11.3850   38.5880 C.3       4 GLP5        0.0000 
     62 CA         59.8405   10.7130   39.4795 C.3       2 GLC5        0.0000 
     63 CA         60.8620    8.9460   38.0410 C.3       6 GLL5        0.0000 
     64 CA         59.2980   12.4000   40.4230 C.3       4 GLP5        0.0000 
     65 CA         61.1720    6.4090   39.2590 C.3       2 GLC5        0.0000 
     66 CA         62.0512    7.0255   38.6520 C.3       2 GLC5        0.0000 
     67 CA         61.0260    7.7180   37.3990 C.3       6 GLL5        0.0000 
     68 CA         63.3678    7.3390   34.4545 C.3       2 GLC5        0.0000 
     69 CA         63.5970    9.9965   37.3555 C.3       2 GLC5        0.0000 
     70 CA         63.0070    8.6860   35.9780 C.3       6 GLL5        0.0000 
     71 CA         66.6915    8.6017   36.2680 C.3       2 GLC5        0.0000 
     72 CA         64.4510    8.5300   36.2680 C.3       6 GLL5        0.0000 
     73 CA         64.5023    7.8117   34.7335 C.3       2 GLC5        0.0000 
     74 CA         64.2900   10.7523   37.0907 C.3       2 GLC5        0.0000 
     75 CA         65.3410    9.5390   35.9060 C.3       6 GLL5        0.0000 
     76 CA         64.8935    8.8998   34.2613 C.3       2 GLC5        0.0000 
     77 CA         64.8890   10.7000   35.2810 C.3       6 GLL5        0.0000 
     78 CA         63.2325   10.8712   36.8727 C.3       2 GLC5        0.0000 
     79 CA         63.4400   10.8670   34.9740 C.3       6 GLL5        0.0000 
     80 CA         63.8360    9.0188   34.0433 C.3       2 GLC5        0.0000 
     81 CA         62.9582   11.9343   36.6833 C.3       2 GLC5        0.0000 
     82 CA         62.9280   12.1270   34.2980 C.3       6 GLL5        0.0000 
     83 CA         64.5040   11.9210   36.7537 C.3       2 GLC5        0.0000 
     84 CA         65.2130   13.1420   34.9420 C.3       6 GLL5        0.0000 
     85 CA         66.8722   13.6088   33.6446 C.3       2 GLC5        0.0000 
     86 CA         67.8230   15.2330   33.1000 C.3       4 GLP5        0.0000 
@<TRIPOS>BOND
@<TRIPOS>SUBSTRUCTURE
     1 SEC2        1 GROUP        1 X    SEC  0     ROOT SEC X 2
     2 GLC5        4 GROUP        1 X    GLC  0     **** GLC X 6
     3 SEP2        3 GROUP        1 Y    SEP  0     ROOT SEP Y 9
     4 GLP5        6 GROUP        1 Y    GLP  0     **** GLP Y 13
     5 SEL2        2 GROUP        1 Z    SEL  0     ROOT SEL Z 16
     6 GLL5        5 GROUP        1 Z    GLL  0     **** GLL Z 20
@<TRIPOS>SET

