#    Name: 3h0a_9RA_1_ligand
#    Modification time : Tue Mar 25 13:21:07 2014

@<TRIPOS>MOLECULE
3h0a_9RA_1_ligand
   51    53     1     0     0
SMALL
NO_CHARGES


@<TRIPOS>ATOM
      1 O53        57.0810    7.4250   40.5310 O.co2     1 9RA500      0.0000 
      2 C51        58.0500    8.2040   40.4470 C.2       1 9RA500      0.0000 
      3 O52        58.1550    9.1540   41.2350 O.co2     1 9RA500      0.0000 
      4 C11        59.0970    8.0240   39.3810 C.ar      1 9RA500      0.0000 
      5 C10        59.9040    9.1060   39.0310 C.ar      1 9RA500      0.0000 
      6 C12        59.2580    6.7940   38.7300 C.ar      1 9RA500      0.0000 
      7 C13        60.2220    6.6360   37.7340 C.ar      1 9RA500      0.0000 
      8 C14        61.0260    7.7180   37.3990 C.ar      1 9RA500      0.0000 
      9 C9         60.8620    8.9460   38.0410 C.ar      1 9RA500      0.0000 
     10 C47        62.0530    7.5640   36.3160 C.2       1 9RA500      0.0000 
     11 C48        62.0740    6.4320   35.6440 C.2       1 9RA500      0.0000 
     12 C4         63.0070    8.6860   35.9780 C.ar      1 9RA500      0.0000 
     13 C3         64.4510    8.5300   36.2680 C.ar      1 9RA500      0.0000 
     14 C43        64.9360    7.2790   36.9530 C.3       1 9RA500      0.0000 
     15 C2         65.3410    9.5390   35.9060 C.ar      1 9RA500      0.0000 
     16 C5         62.5600    9.8480   35.3410 C.ar      1 9RA500      0.0000 
     17 C6         63.4400   10.8670   34.9740 C.ar      1 9RA500      0.0000 
     18 C19        62.9280   12.1270   34.2980 C.3       1 9RA500      0.0000 
     19 C27        61.9750   12.8400   35.2590 C.3       1 9RA500      0.0000 
     20 C31        62.2250   11.7790   32.9850 C.3       1 9RA500      0.0000 
     21 C20        64.0560   13.0850   33.9810 C.3       1 9RA500      0.0000 
     22 C21        65.2130   13.1420   34.9420 C.3       1 9RA500      0.0000 
     23 C22        65.8730   11.7720   34.8970 C.3       1 9RA500      0.0000 
     24 C1         64.8890   10.7000   35.2810 C.ar      1 9RA500      0.0000 
     25 C39        66.3000   11.5120   33.4590 C.3       1 9RA500      0.0000 
     26 C35        67.0690   11.7170   35.8430 C.3       1 9RA500      0.0000 
     27 H          59.7879   10.0072   39.5017 H         1 9RA500      0.0000 
     28 H          58.6565    5.9988   38.9915 H         1 9RA500      0.0000 
     29 H          60.3325    5.7388   37.2608 H         1 9RA500      0.0000 
     30 H          61.4629    9.7428   37.7731 H         1 9RA500      0.0000 
     31 H          66.3488    9.4255   36.1032 H         1 9RA500      0.0000 
     32 H          61.5480    9.9540   35.1366 H         1 9RA500      0.0000 
     33 H          63.6254   14.1163   33.8740 H         1 9RA500      0.0000 
     34 H          64.4493   12.8430   32.9576 H         1 9RA500      0.0000 
     35 H          64.8579   13.3353   35.9363 H         1 9RA500      0.0000 
     36 H          65.9173   13.8886   34.6280 H         1 9RA500      0.0000 
     37 H          65.9261    7.2921   37.0927 H         1 9RA500      0.0000 
     38 H          64.5147    7.1608   37.8522 H         1 9RA500      0.0000 
     39 H          64.7259    6.4589   36.4208 H         1 9RA500      0.0000 
     40 H          62.4305   13.0969   36.1113 H         1 9RA500      0.0000 
     41 H          61.6045   13.6789   34.8603 H         1 9RA500      0.0000 
     42 H          61.1959   12.2635   35.5053 H         1 9RA500      0.0000 
     43 H          62.8398   11.3172   32.3456 H         1 9RA500      0.0000 
     44 H          61.4442   11.1716   33.1314 H         1 9RA500      0.0000 
     45 H          61.8789   12.5947   32.5215 H         1 9RA500      0.0000 
     46 H          66.9506   12.1988   33.1348 H         1 9RA500      0.0000 
     47 H          66.7407   10.6200   33.3579 H         1 9RA500      0.0000 
     48 H          65.5212   11.5269   32.8319 H         1 9RA500      0.0000 
     49 H          67.5139   10.8215   35.8275 H         1 9RA500      0.0000 
     50 H          67.7645   12.3940   35.6022 H         1 9RA500      0.0000 
     51 H          66.8019   11.8953   36.7900 H         1 9RA500      0.0000 
@<TRIPOS>BOND
     1    2    1 ar   
     2    3    2 ar   
     3    4    2 1    
     4    5    4 ar   
     5    6    4 ar   
     6    9    5 ar   
     7   27    5 1    
     8    7    6 ar   
     9   28    6 1    
    10    8    7 ar   
    11   29    7 1    
    12    9    8 ar   
    13   10    8 1    
    14   30    9 1    
    15   11   10 2    
    16   12   10 1    
    17   13   12 ar   
    18   16   12 ar   
    19   14   13 1    
    20   15   13 ar   
    21   37   14 1    
    22   38   14 1    
    23   39   14 1    
    24   24   15 ar   
    25   31   15 1    
    26   17   16 ar   
    27   32   16 1    
    28   18   17 1    
    29   24   17 ar   
    30   19   18 1    
    31   20   18 1    
    32   21   18 1    
    33   40   19 1    
    34   41   19 1    
    35   42   19 1    
    36   43   20 1    
    37   44   20 1    
    38   45   20 1    
    39   22   21 1    
    40   33   21 1    
    41   34   21 1    
    42   23   22 1    
    43   35   22 1    
    44   36   22 1    
    45   24   23 1    
    46   25   23 1    
    47   26   23 1    
    48   46   25 1    
    49   47   25 1    
    50   48   25 1    
    51   49   26 1    
    52   50   26 1    
    53   51   26 1    
@<TRIPOS>SUBSTRUCTURE
     1 9RA500      1 GROUP   
@<TRIPOS>SET

