#    Name: 3g11_P9C_1_INTS_M
#    Modification time : Tue Mar 25 06:59:12 2014

@<TRIPOS>MOLECULE
3g11_P9C_1_INTS_M
   58     0     9     0     0
SMALL
NO_CHARGES


@<TRIPOS>ATOM
      1 N          62.9965   37.8505   42.3670 N.am      2 SEC2        0.0000 
      2 N          62.7990   37.4710   43.7220 N.am      8 SEL2        0.0000 
      3 N          63.1940   38.2300   41.0120 N.am      5 SEP2        0.0000 
      4 N          58.3310   37.5815   49.2610 N.am      2 SEC2        0.0000 
      5 N          59.0270   36.7280   48.2770 N.am      8 SEL2        0.0000 
      6 N          57.6350   38.4350   50.2450 N.am      5 SEP2        0.0000 
      7 N          55.9805   37.9290   46.0435 N.am      2 SEC2        0.0000 
      8 N          56.5480   38.7060   45.0310 N.am      8 SEL2        0.0000 
      9 N          55.4130   37.1520   47.0560 N.am      5 SEP2        0.0000 
     10 O          57.3290   42.5295   41.2245 O.2       1 ALC1        0.0000 
     11 O          57.7000   41.4350   41.8620 O.2       7 ALL1        0.0000 
     12 O          56.9580   43.6240   40.5870 O.2       4 ALP1        0.0000 
     13 N          51.7385   38.6025   40.4465 N.am      2 SEC2        0.0000 
     14 N          52.7080   37.7870   40.0380 N.am      8 SEL2        0.0000 
     15 N          50.7690   39.4180   40.8550 N.am      5 SEP2        0.0000 
     16 N          51.7610   36.8495   39.9115 N.am      2 SEC2        0.0000 
     17 N          50.8140   35.9120   39.7850 N.am      5 SEP2        0.0000 
     18 O          59.1770   39.0080   42.7340 O.2       1 ALC1        0.0000 
     19 O          57.8700   38.9170   43.1510 O.2       7 ALL1        0.0000 
     20 O          60.4840   39.0990   42.3170 O.2       4 ALP1        0.0000 
     21 CA         60.2535   39.7490   44.9415 C.3       3 GLC5        0.0000 
     22 CA         58.9020   38.3010   45.3290 C.3       9 GLL5        0.0000 
     23 CA         61.6050   41.1970   44.5540 C.3       6 GLP5        0.0000 
     24 CA         58.5435   40.3355   45.1640 C.3       3 GLC5        0.0000 
     25 CA         58.1850   42.3700   44.9990 C.3       6 GLP5        0.0000 
     26 CA         59.0120   39.2265   47.2815 C.3       3 GLC5        0.0000 
     27 CA         59.1220   40.1520   49.2340 C.3       6 GLP5        0.0000 
     28 CA         60.2325   38.4970   48.8290 C.3       3 GLC5        0.0000 
     29 CA         61.3430   36.8420   48.4240 C.3       9 GLL5        0.0000 
     30 CA         61.8755   37.4680   42.1025 C.3       3 GLC5        0.0000 
     31 CA         61.7030   36.5690   44.0630 C.3       9 GLL5        0.0000 
     32 CA         62.0480   38.3670   40.1420 C.3       6 GLP5        0.0000 
     33 CA         60.5725   33.8175   43.0980 C.3       3 GLC5        0.0000 
     34 CA         62.2010   35.2010   43.5870 C.3       9 GLL5        0.0000 
     35 CA         58.9440   32.4340   42.6090 C.3       6 GLP5        0.0000 
     36 CA         63.4405   32.6225   45.5465 C.3       3 GLC5        0.0000 
     37 CA         63.2650   34.7510   45.7530 C.3       9 GLL5        0.0000 
     38 CA         63.6160   30.4940   45.3400 C.3       6 GLP5        0.0000 
     39 CA         59.5835   33.0825   44.9545 C.3       3 GLC5        0.0000 
     40 CA         60.0520   34.6220   46.0820 C.3       9 GLL5        0.0000 
     41 CA         59.1150   31.5430   43.8270 C.3       6 GLP5        0.0000 
     42 CA         58.6165   41.0305   42.5190 C.3       3 GLC5        0.0000 
     43 CA         56.6800   40.5280   41.5620 C.3       9 GLL5        0.0000 
     44 CA         60.5530   41.5330   43.4760 C.3       6 GLP5        0.0000 
     45 CA         56.8030   40.7095   38.7550 C.3       3 GLC5        0.0000 
     46 CA         55.6030   40.8450   40.6410 C.3       9 GLL5        0.0000 
     47 CA         58.0030   40.5740   36.8690 C.3       6 GLP5        0.0000 
     48 CA         52.5945   40.0345   41.1785 C.3       3 GLC5        0.0000 
     49 CA         54.6100   39.8660   40.3890 C.3       9 GLL5        0.0000 
     50 CA         50.5790   40.2030   41.9680 C.3       6 GLP5        0.0000 
     51 CA         57.3330   36.6595   46.2683 C.3       3 GLC5        0.0000 
     52 CA         55.7440   35.7720   47.2140 C.3       6 GLP5        0.0000 
     53 CA         57.4498   41.1358   43.4385 C.3       3 GLC5        0.0000 
     54 CA         56.7490   39.2750   42.1940 C.3       9 GLL5        0.0000 
     55 CA         53.6183   41.9248   40.6180 C.3       3 GLC5        0.0000 
     56 CA         52.1300   43.4940   40.7210 C.3       6 GLP5        0.0000 
     57 CA         54.7117   40.9098   38.9145 C.3       3 GLC5        0.0000 
     58 CA         54.3170   41.4640   37.3140 C.3       6 GLP5        0.0000 
@<TRIPOS>BOND
@<TRIPOS>SUBSTRUCTURE
     1 ALC1       10 GROUP        1 X    ALC  0     ROOT ALC X 1
     2 SEC2        1 GROUP        1 X    SEC  0     **** SEC X 2
     3 GLC5       21 GROUP        1 X    GLC  0     **** GLC X 6
     4 ALP1       12 GROUP        1 Y    ALP  0     ROOT ALP Y 8
     5 SEP2        3 GROUP        1 Y    SEP  0     **** SEP Y 9
     6 GLP5       23 GROUP        1 Y    GLP  0     **** GLP Y 13
     7 ALL1       11 GROUP        1 Z    ALL  0     ROOT ALL Z 15
     8 SEL2        2 GROUP        1 Z    SEL  0     **** SEL Z 16
     9 GLL5       22 GROUP        1 Z    GLL  0     **** GLL Z 20
@<TRIPOS>SET

