#    Name: 3g11_P9C_1_ligand
#    Modification time : Tue Mar 25 06:59:12 2014

@<TRIPOS>MOLECULE
3g11_P9C_1_ligand
   70    75     1     0     0
SMALL
NO_CHARGES


@<TRIPOS>ATOM
      1 O16        62.7990   37.4710   43.7220 O.3       1 P9C413      0.0000 
      2 O19        59.0270   36.7280   48.2770 O.2       1 P9C413      0.0000 
      3 O20        56.5480   38.7060   45.0310 O.2       1 P9C413      0.0000 
      4 O30        57.7000   41.4350   41.8620 O.3       1 P9C413      0.0000 
      5 O31        55.9800   37.0530   42.6090 O.3       1 P9C413      0.0000 
      6 O32        53.7920   36.3060   41.3510 O.co2     1 P9C413      0.0000 
      7 O33        52.7080   37.7870   40.0380 O.co2     1 P9C413      0.0000 
      8 N28        57.8700   38.9170   43.1510 N.am      1 P9C413      0.0000 
      9 C1         57.7010   38.6580   44.4670 C.2       1 P9C413      0.0000 
     10 C2         58.9020   38.3010   45.3290 C.3       1 P9C413      0.0000 
     11 C3         58.9420   36.7930   45.3160 C.3       1 P9C413      0.0000 
     12 C4         60.1280   36.1770   46.1680 C.3       1 P9C413      0.0000 
     13 C5         60.0730   36.5950   47.6810 C.2       1 P9C413      0.0000 
     14 C6         61.3430   36.8420   48.4240 C.3       1 P9C413      0.0000 
     15 C7         62.5040   35.9830   47.9060 C.3       1 P9C413      0.0000 
     16 C8         62.7520   36.1400   46.3850 C.3       1 P9C413      0.0000 
     17 C9         61.4630   36.7380   45.6140 C.3       1 P9C413      0.0000 
     18 C10        61.7030   36.5690   44.0630 C.3       1 P9C413      0.0000 
     19 C11        62.2010   35.2010   43.5870 C.3       1 P9C413      0.0000 
     20 C12        63.6180   35.2180   44.2590 C.3       1 P9C413      0.0000 
     21 C13        63.2650   34.7510   45.7530 C.3       1 P9C413      0.0000 
     22 C14        63.8510   37.0930   45.8810 C.3       1 P9C413      0.0000 
     23 C15        63.9380   36.7580   44.3380 C.3       1 P9C413      0.0000 
     24 C17        65.2550   37.3590   43.6230 C.3       1 P9C413      0.0000 
     25 C18        60.0520   34.6220   46.0820 C.3       1 P9C413      0.0000 
     26 C21        53.6510   37.4430   40.7990 C.2       1 P9C413      0.0000 
     27 C22        54.6830   38.5960   41.0070 C.ar      1 P9C413      0.0000 
     28 C23        55.7930   38.2800   41.9340 C.ar      1 P9C413      0.0000 
     29 C24        56.7490   39.2750   42.1940 C.ar      1 P9C413      0.0000 
     30 C25        56.6800   40.5280   41.5620 C.ar      1 P9C413      0.0000 
     31 C26        55.6030   40.8450   40.6410 C.ar      1 P9C413      0.0000 
     32 C27        54.6100   39.8660   40.3890 C.ar      1 P9C413      0.0000 
     33 C34        64.2980   37.3670   49.1840 C.ar      1 P9C413      0.0000 
     34 C35        64.3390   34.9000   49.2500 C.ar      1 P9C413      0.0000 
     35 C36        65.4790   37.4850   50.0400 C.ar      1 P9C413      0.0000 
     36 C37        66.0470   36.2790   50.4600 C.ar      1 P9C413      0.0000 
     37 C38        65.5150   35.0040   50.0880 C.ar      1 P9C413      0.0000 
     38 C39        63.7640   36.0770   48.8250 C.ar      1 P9C413      0.0000 
     39 H          58.8160   38.8850   42.6981 H         1 P9C413      0.0000 
     40 H          58.7483   38.6557   46.3225 H         1 P9C413      0.0000 
     41 H          59.7891   38.6957   44.8889 H         1 P9C413      0.0000 
     42 H          59.0525   36.4236   44.2879 H         1 P9C413      0.0000 
     43 H          58.0052   36.3835   45.7167 H         1 P9C413      0.0000 
     44 H          61.2023   36.6255   49.4927 H         1 P9C413      0.0000 
     45 H          61.6300   37.8999   48.3381 H         1 P9C413      0.0000 
     46 H          62.1353   34.8961   48.0372 H         1 P9C413      0.0000 
     47 H          61.5005   37.8283   45.8200 H         1 P9C413      0.0000 
     48 H          60.8326   36.8499   43.5362 H         1 P9C413      0.0000 
     49 H          62.3161   35.1947   42.5570 H         1 P9C413      0.0000 
     50 H          61.6362   34.4417   44.0097 H         1 P9C413      0.0000 
     51 H          64.2637   34.6819   43.8244 H         1 P9C413      0.0000 
     52 H          62.4777   34.0864   45.7224 H         1 P9C413      0.0000 
     53 H          64.1320   34.4656   46.2319 H         1 P9C413      0.0000 
     54 H          64.7721   36.8578   46.3283 H         1 P9C413      0.0000 
     55 H          63.5467   38.0926   45.9912 H         1 P9C413      0.0000 
     56 H          55.5765   41.7469   40.1983 H         1 P9C413      0.0000 
     57 H          53.8357   40.0805   39.7557 H         1 P9C413      0.0000 
     58 H          63.8536   38.2140   48.8417 H         1 P9C413      0.0000 
     59 H          63.9846   33.9951   49.0083 H         1 P9C413      0.0000 
     60 H          65.8270   38.3729   50.2866 H         1 P9C413      0.0000 
     61 H          66.8904   36.2943   51.0676 H         1 P9C413      0.0000 
     62 H          65.9665   34.1497   50.4149 H         1 P9C413      0.0000 
     63 H          66.0919   36.9354   43.9697 H         1 P9C413      0.0000 
     64 H          65.2403   37.2123   42.6339 H         1 P9C413      0.0000 
     65 H          65.3417   38.3440   43.7720 H         1 P9C413      0.0000 
     66 H          60.1357   34.2976   45.1398 H         1 P9C413      0.0000 
     67 H          60.7813   34.1848   46.6084 H         1 P9C413      0.0000 
     68 H          59.1847   34.2724   46.4364 H         1 P9C413      0.0000 
     69 H          57.4347   42.2835   41.4041 H         1 P9C413      0.0000 
     70 H          55.2174   36.4770   42.3147 H         1 P9C413      0.0000 
@<TRIPOS>BOND
     1   18    1 1    
     2   23    1 1    
     3   13    2 2    
     4    9    3 2    
     5   30    4 1    
     6   69    4 1    
     7   28    5 1    
     8   70    5 1    
     9   26    6 ar   
    10   26    7 ar   
    11    9    8 am   
    12   29    8 1    
    13   39    8 1    
    14   10    9 1    
    15   11   10 1    
    16   40   10 1    
    17   41   10 1    
    18   12   11 1    
    19   42   11 1    
    20   43   11 1    
    21   13   12 1    
    22   17   12 1    
    23   25   12 1    
    24   14   13 1    
    25   15   14 1    
    26   44   14 1    
    27   45   14 1    
    28   16   15 1    
    29   38   15 1    
    30   46   15 1    
    31   17   16 1    
    32   21   16 1    
    33   22   16 1    
    34   18   17 1    
    35   47   17 1    
    36   19   18 1    
    37   48   18 1    
    38   20   19 1    
    39   49   19 1    
    40   50   19 1    
    41   21   20 1    
    42   23   20 1    
    43   51   20 1    
    44   52   21 1    
    45   53   21 1    
    46   23   22 1    
    47   54   22 1    
    48   55   22 1    
    49   24   23 1    
    50   63   24 1    
    51   64   24 1    
    52   65   24 1    
    53   66   25 1    
    54   67   25 1    
    55   68   25 1    
    56   27   26 1    
    57   28   27 ar   
    58   32   27 ar   
    59   29   28 ar   
    60   30   29 ar   
    61   31   30 ar   
    62   32   31 ar   
    63   56   31 1    
    64   57   32 1    
    65   35   33 ar   
    66   38   33 ar   
    67   58   33 1    
    68   37   34 ar   
    69   38   34 ar   
    70   59   34 1    
    71   36   35 ar   
    72   60   35 1    
    73   37   36 ar   
    74   61   36 1    
    75   62   37 1    
@<TRIPOS>SUBSTRUCTURE
     1 P9C413      1 GROUP   
@<TRIPOS>SET

