#    Name: 4jq8_KJ8_1_INTS_M
#    Modification time : Tue Mar 25 06:12:47 2014

@<TRIPOS>MOLECULE
4jq8_KJ8_1_INTS_M
   98     0    12     0     0
SMALL
NO_CHARGES


@<TRIPOS>ATOM
      1 OD1       153.2300  119.8405  197.6500 O.co2     3 ASC3        0.0000 
      2 OD1       154.3330  120.7330  196.5650 O.co2    11 ASL3        0.0000 
      3 OD1       152.1270  118.9480  198.7350 O.co2     7 ASP3        0.0000 
      4 O         154.8875  120.9425  198.1925 O.2       1 ALC1        0.0000 
      5 O         154.3330  120.7330  196.5650 O.2       9 ALL1        0.0000 
      6 O         155.4420  121.1520  199.8200 O.2       5 ALP1        0.0000 
      7 CA        152.6955  120.0465  194.3500 C.3       4 GLC5        0.0000 
      8 CA        153.2940  119.8090  196.0690 C.3      12 GLL5        0.0000 
      9 CA        152.0970  120.2840  192.6310 C.3       8 GLP5        0.0000 
     10 CA        153.1065  121.8940  194.4905 C.3       4 GLC5        0.0000 
     11 CA        154.1330  122.1350  196.1470 C.3      12 GLL5        0.0000 
     12 CA        152.0800  121.6530  192.8340 C.3       8 GLP5        0.0000 
     13 CA        155.5075  123.4795  197.9535 C.3       4 GLC5        0.0000 
     14 CA        153.4990  122.9410  197.2770 C.3      12 GLL5        0.0000 
     15 CA        157.5160  124.0180  198.6300 C.3       8 GLP5        0.0000 
     16 CA        147.9230  123.0760  195.6575 C.3       4 GLC5        0.0000 
     17 CA        149.5380  124.5230  196.0210 C.3      12 GLL5        0.0000 
     18 CA        146.3080  121.6290  195.2940 C.3       8 GLP5        0.0000 
     19 CA        147.6470  125.8170  193.7915 C.3       4 GLC5        0.0000 
     20 CA        148.2850  125.0940  195.7960 C.3      12 GLL5        0.0000 
     21 CA        147.0090  126.5400  191.7870 C.3       8 GLP5        0.0000 
     22 CA        146.7955  123.9150  195.4355 C.3       4 GLC5        0.0000 
     23 CA        145.3060  122.7360  195.0750 C.3       8 GLP5        0.0000 
     24 CA        145.8295  126.3115  196.0950 C.3       4 GLC5        0.0000 
     25 CA        147.4190  125.3870  196.8500 C.3      12 GLL5        0.0000 
     26 CA        144.2400  127.2360  195.3400 C.3       8 GLP5        0.0000 
     27 CA        145.8960  127.7030  196.7460 C.3       4 GLC5        0.0000 
     28 CA        147.5520  128.1700  198.1520 C.3      12 GLL5        0.0000 
     29 CA        143.7720  126.0295  201.0130 C.3       4 GLC5        0.0000 
     30 CA        145.6910  125.1240  200.9760 C.3      12 GLL5        0.0000 
     31 CA        141.8530  126.9350  201.0500 C.3       8 GLP5        0.0000 
     32 CA        145.9315  125.7675  202.8900 C.3       4 GLC5        0.0000 
     33 CA        146.1720  126.4110  204.8040 C.3       8 GLP5        0.0000 
     34 N         144.4540  125.3990  203.0310 N.am      2 SEC2        0.0000 
     35 N         145.0710  124.5160  201.9980 N.am     10 SEL2        0.0000 
     36 N         143.8370  126.2820  204.0640 N.am      6 SEP2        0.0000 
     37 CA        143.9430  122.9925  201.0450 C.3       4 GLC5        0.0000 
     38 CA        145.2770  123.1540  202.2020 C.3      12 GLL5        0.0000 
     39 CA        142.6090  122.8310  199.8880 C.3       8 GLP5        0.0000 
     40 CA        143.4855  124.2130  202.9355 C.3       4 GLC5        0.0000 
     41 CA        141.6940  125.2720  203.6690 C.3       8 GLP5        0.0000 
     42 CA        145.6805  124.1050  203.8445 C.3       4 GLC5        0.0000 
     43 CA        146.0840  125.0560  205.4870 C.3       8 GLP5        0.0000 
     44 CA        146.9480  123.4610  202.5900 C.3       4 GLC5        0.0000 
     45 CA        148.6190  123.7680  202.9780 C.3       8 GLP5        0.0000 
     46 CA        148.2205  122.3720  201.3075 C.3       4 GLC5        0.0000 
     47 CA        147.8220  120.9760  199.6370 C.3      12 GLL5        0.0000 
     48 CA        147.5425  121.0680  196.9300 C.3       4 GLC5        0.0000 
     49 CA        148.7770  120.5070  198.5660 C.3      12 GLL5        0.0000 
     50 CA        147.8670  118.9775  197.4315 C.3       4 GLC5        0.0000 
     51 CA        146.9570  117.4480  196.2970 C.3       8 GLP5        0.0000 
     52 O         151.0985  119.9970  198.7710 O.2       1 ALC1        0.0000 
     53 O         150.0700  121.0460  198.8070 O.2       9 ALL1        0.0000 
     54 O         152.1270  118.9480  198.7350 O.2       5 ALP1        0.0000 
     55 CA        142.3925  119.7715  198.1025 C.3       4 GLC5        0.0000 
     56 CA        144.3500  119.6110  199.1490 C.3      12 GLL5        0.0000 
     57 CA        140.4350  119.9320  197.0560 C.3       8 GLP5        0.0000 
     58 CA        149.1235  125.2952  200.1740 C.3       4 GLC5        0.0000 
     59 CA        149.0610  124.5510  198.3820 C.3      12 GLL5        0.0000 
     60 CA        149.8180  125.7500  202.0700 C.3       8 GLP5        0.0000 
     61 CA        146.1275  124.1872  196.9525 C.3       4 GLC5        0.0000 
     62 CA        147.7970  125.1300  198.1740 C.3      12 GLL5        0.0000 
     63 CA        144.6470  123.1160  196.3930 C.3       8 GLP5        0.0000 
     64 CA        144.8598  126.4067  198.4605 C.3       4 GLC5        0.0000 
     65 CA        146.9610  125.3930  199.2200 C.3      12 GLL5        0.0000 
     66 CA        143.0420  126.8270  197.5370 C.3       8 GLP5        0.0000 
     67 CA        148.2477  125.8682  200.7270 C.3       4 GLC5        0.0000 
     68 CA        144.5670  127.5637  198.4085 C.3       4 GLC5        0.0000 
     69 CA        146.5280  127.8050  199.0400 C.3      12 GLL5        0.0000 
     70 CA        148.1705  129.3328  199.6160 C.3       4 GLC5        0.0000 
     71 CA        148.7430  129.8390  201.3040 C.3       8 GLP5        0.0000 
     72 CA        144.6795  129.6825  197.6003 C.3       4 GLC5        0.0000 
     73 CA        146.7540  130.4470  198.1670 C.3      12 GLL5        0.0000 
     74 CA        143.1000  129.0870  196.5770 C.3       8 GLP5        0.0000 
     75 CA        147.5010  130.0585  199.9638 C.3       4 GLC5        0.0000 
     76 CA        145.7640  130.1090  199.0800 C.3      12 GLL5        0.0000 
     77 CA        147.4007  128.9166  200.3555 C.3       4 GLC5        0.0000 
     78 CA        145.6560  128.7960  199.5200 C.3      12 GLL5        0.0000 
     79 CA        145.6845  123.5706  198.1918 C.3       4 GLC5        0.0000 
     80 CA        144.5068  123.3945  200.1587 C.3       4 GLC5        0.0000 
     81 CA        146.5090  124.4600  200.1160 C.3      12 GLL5        0.0000 
     82 CA        147.5118  123.8630  201.7038 C.3       4 GLC5        0.0000 
     83 CA        146.7090  123.1240  200.3130 C.3      12 GLL5        0.0000 
     84 CA        144.7692  121.5847  197.7698 C.3       4 GLC5        0.0000 
     85 CA        145.4330  120.4960  199.1440 C.3      12 GLL5        0.0000 
     86 CA        143.7502  121.4423  199.5173 C.3       4 GLC5        0.0000 
     87 CA        144.6191  118.5576  197.7449 C.3       4 GLC5        0.0000 
     88 CA        144.5430  117.9340  196.1120 C.3       8 GLP5        0.0000 
     89 CA        144.2103  116.3650  199.1822 C.3       4 GLC5        0.0000 
     90 CA        144.4990  118.3090  199.6090 C.3      12 GLL5        0.0000 
     91 CA        143.3000  114.6240  198.5270 C.3       8 GLP5        0.0000 
     92 CA        144.3927  117.9145  201.7428 C.3       4 GLC5        0.0000 
     93 CA        143.6650  117.7230  203.6480 C.3       8 GLP5        0.0000 
     94 CA        146.6022  118.0616  198.1260 C.3       4 GLC5        0.0000 
     95 CA        145.7420  117.9030  200.0660 C.3      12 GLL5        0.0000 
     96 CA        146.4965  116.9370  201.5903 C.3       4 GLC5        0.0000 
     97 CA        146.8180  118.7910  200.0750 C.3      12 GLL5        0.0000 
     98 CA        146.7130  115.5270  203.1100 C.3       8 GLP5        0.0000 
@<TRIPOS>BOND
@<TRIPOS>SUBSTRUCTURE
     1 ALC1        4 GROUP        1 X    ALC  0     ROOT ALC X 1
     2 SEC2       34 GROUP        1 X    SEC  0     **** SEC X 2
     3 ASC3        1 GROUP        1 X    ASC  0     **** ASC X 3
     4 GLC5        7 GROUP        1 X    GLC  0     **** GLC X 6
     5 ALP1        6 GROUP        1 Y    ALP  0     ROOT ALP Y 8
     6 SEP2       36 GROUP        1 Y    SEP  0     **** SEP Y 9
     7 ASP3        3 GROUP        1 Y    ASP  0     **** ASP Y 10
     8 GLP5        9 GROUP        1 Y    GLP  0     **** GLP Y 13
     9 ALL1        5 GROUP        1 Z    ALL  0     ROOT ALL Z 15
    10 SEL2       35 GROUP        1 Z    SEL  0     **** SEL Z 16
    11 ASL3        2 GROUP        1 Z    ASL  0     **** ASL Z 17
    12 GLL5        8 GROUP        1 Z    GLL  0     **** GLL Z 20
@<TRIPOS>SET

