#    Name: 4jq8_KJ8_1_ligand
#    Modification time : Tue Mar 25 06:12:47 2014

@<TRIPOS>MOLECULE
4jq8_KJ8_1_ligand
   71    75     1     0     0
SMALL
NO_CHARGES


@<TRIPOS>ATOM
      1 C35       155.6730  120.1920  196.2610 C.3       1 KJ81001     0.0000 
      2 N32       154.3330  120.7330  196.5650 N.4       1 KJ81001     0.0000 
      3 C34       153.2940  119.8090  196.0690 C.3       1 KJ81001     0.0000 
      4 C31       154.1330  122.1350  196.1470 C.3       1 KJ81001     0.0000 
      5 C30       153.4990  122.9410  197.2770 C.3       1 KJ81001     0.0000 
      6 C29       152.1640  123.5670  196.7710 C.2       1 KJ81001     0.0000 
      7 O33       152.1110  124.0380  195.6440 O.2       1 KJ81001     0.0000 
      8 N28       151.1450  123.6630  197.6740 N.am      1 KJ81001     0.0000 
      9 C26       149.9490  124.2320  197.3340 C.ar      1 KJ81001     0.0000 
     10 C27       149.0610  124.5510  198.3820 C.ar      1 KJ81001     0.0000 
     11 C25       149.5380  124.5230  196.0210 C.ar      1 KJ81001     0.0000 
     12 C24       148.2850  125.0940  195.7960 C.ar      1 KJ81001     0.0000 
     13 C23       147.4190  125.3870  196.8500 C.ar      1 KJ81001     0.0000 
     14 C16       147.7970  125.1300  198.1740 C.ar      1 KJ81001     0.0000 
     15 C1        146.9610  125.3930  199.2200 C.2       1 KJ81001     0.0000 
     16 C5        146.5090  124.4600  200.1160 C.ar      1 KJ81001     0.0000 
     17 C2        146.3940  126.5800  199.5480 C.2       1 KJ81001     0.0000 
     18 C10       146.5280  127.8050  199.0400 C.ar      1 KJ81001     0.0000 
     19 C11       147.5520  128.1700  198.1520 C.ar      1 KJ81001     0.0000 
     20 C12       147.6440  129.4830  197.7040 C.ar      1 KJ81001     0.0000 
     21 C13       146.7540  130.4470  198.1670 C.ar      1 KJ81001     0.0000 
     22 C14       145.7640  130.1090  199.0800 C.ar      1 KJ81001     0.0000 
     23 C15       145.6560  128.7960  199.5200 C.ar      1 KJ81001     0.0000 
     24 O3        145.6290  126.4140  200.6270 O.3       1 KJ81001     0.0000 
     25 C4        145.6910  125.1240  200.9760 C.ar      1 KJ81001     0.0000 
     26 N6        145.0710  124.5160  201.9980 N.ar      1 KJ81001     0.0000 
     27 C7        145.2770  123.1540  202.2020 C.ar      1 KJ81001     0.0000 
     28 N8        146.1150  122.4720  201.3340 N.ar      1 KJ81001     0.0000 
     29 C9        146.7090  123.1240  200.3130 C.ar      1 KJ81001     0.0000 
     30 N         147.4820  122.4160  199.4480 N.pl3     1 KJ81001     0.0000 
     31 CA        147.8220  120.9760  199.6370 C.3       1 KJ81001     0.0000 
     32 C         148.7770  120.5070  198.5660 C.3       1 KJ81001     0.0000 
     33 O         150.0700  121.0460  198.8070 O.3       1 KJ81001     0.0000 
     34 C17       146.6880  120.1040  199.6130 C.ar      1 KJ81001     0.0000 
     35 C18       145.4330  120.4960  199.1440 C.ar      1 KJ81001     0.0000 
     36 C19       144.3500  119.6110  199.1490 C.ar      1 KJ81001     0.0000 
     37 C20       144.4990  118.3090  199.6090 C.ar      1 KJ81001     0.0000 
     38 C21       145.7420  117.9030  200.0660 C.ar      1 KJ81001     0.0000 
     39 C22       146.8180  118.7910  200.0750 C.ar      1 KJ81001     0.0000 
     40 H         154.2428  120.7140  197.7023 H         1 KJ81001     0.0000 
     41 H         153.4767  122.1845  195.2745 H         1 KJ81001     0.0000 
     42 H         155.0884  122.5965  195.8850 H         1 KJ81001     0.0000 
     43 H         154.1610  123.7375  197.5775 H         1 KJ81001     0.0000 
     44 H         153.2818  122.2952  198.1129 H         1 KJ81001     0.0000 
     45 H         151.2801  123.2955  198.6424 H         1 KJ81001     0.0000 
     46 H         149.3597  124.3457  199.3635 H         1 KJ81001     0.0000 
     47 H         150.1604  124.3145  195.2353 H         1 KJ81001     0.0000 
     48 H         147.9910  125.3052  194.8244 H         1 KJ81001     0.0000 
     49 H         146.4941  125.7954  196.6555 H         1 KJ81001     0.0000 
     50 H         148.2275  127.4658  197.8380 H         1 KJ81001     0.0000 
     51 H         148.3746  129.7438  197.0259 H         1 KJ81001     0.0000 
     52 H         146.8311  131.4184  197.8292 H         1 KJ81001     0.0000 
     53 H         145.1161  130.8246  199.4277 H         1 KJ81001     0.0000 
     54 H         144.9304  128.5392  200.2061 H         1 KJ81001     0.0000 
     55 H         144.8197  122.6715  202.9744 H         1 KJ81001     0.0000 
     56 H         147.8845  122.8540  198.5905 H         1 KJ81001     0.0000 
     57 H         148.3523  120.8646  200.5958 H         1 KJ81001     0.0000 
     58 H         148.3803  120.8251  197.5921 H         1 KJ81001     0.0000 
     59 H         148.7875  119.4085  198.5756 H         1 KJ81001     0.0000 
     60 H         145.3005  121.4573  198.7864 H         1 KJ81001     0.0000 
     61 H         143.4310  119.9333  198.8060 H         1 KJ81001     0.0000 
     62 H         143.7072  117.6653  199.6096 H         1 KJ81001     0.0000 
     63 H         145.8777  116.9372  200.4033 H         1 KJ81001     0.0000 
     64 H         147.7375  118.4703  200.4330 H         1 KJ81001     0.0000 
     65 H         156.4002  120.7953  196.5885 H         1 KJ81001     0.0000 
     66 H         155.8186  119.2992  196.6874 H         1 KJ81001     0.0000 
     67 H         155.8113  120.0733  195.2777 H         1 KJ81001     0.0000 
     68 H         153.3546  119.6787  195.0794 H         1 KJ81001     0.0000 
     69 H         153.3701  118.9046  196.4889 H         1 KJ81001     0.0000 
     70 H         152.3731  120.1463  196.2644 H         1 KJ81001     0.0000 
     71 H         150.6919  120.2657  198.7412 H         1 KJ81001     0.0000 
@<TRIPOS>BOND
     1    2    1 1    
     2   65    1 1    
     3   66    1 1    
     4   67    1 1    
     5    3    2 1    
     6    4    2 1    
     7   40    2 1    
     8   68    3 1    
     9   69    3 1    
    10   70    3 1    
    11    5    4 1    
    12   41    4 1    
    13   42    4 1    
    14    6    5 1    
    15   43    5 1    
    16   44    5 1    
    17    7    6 2    
    18    8    6 am   
    19    9    8 1    
    20   45    8 1    
    21   10    9 ar   
    22   11    9 ar   
    23   14   10 ar   
    24   46   10 1    
    25   12   11 ar   
    26   47   11 1    
    27   13   12 ar   
    28   48   12 1    
    29   14   13 ar   
    30   49   13 1    
    31   15   14 1    
    32   16   15 1    
    33   17   15 2    
    34   25   16 ar   
    35   29   16 ar   
    36   18   17 1    
    37   24   17 1    
    38   19   18 ar   
    39   23   18 ar   
    40   20   19 ar   
    41   50   19 1    
    42   21   20 ar   
    43   51   20 1    
    44   22   21 ar   
    45   52   21 1    
    46   23   22 ar   
    47   53   22 1    
    48   54   23 1    
    49   25   24 1    
    50   26   25 ar   
    51   27   26 ar   
    52   28   27 ar   
    53   55   27 1    
    54   29   28 ar   
    55   30   29 1    
    56   31   30 1    
    57   56   30 1    
    58   32   31 1    
    59   34   31 1    
    60   57   31 1    
    61   33   32 1    
    62   58   32 1    
    63   59   32 1    
    64   71   33 1    
    65   35   34 ar   
    66   39   34 ar   
    67   36   35 ar   
    68   60   35 1    
    69   37   36 ar   
    70   61   36 1    
    71   38   37 ar   
    72   62   37 1    
    73   39   38 ar   
    74   63   38 1    
    75   64   39 1    
@<TRIPOS>SUBSTRUCTURE
     1 KJ81001     1 GROUP   
@<TRIPOS>SET

