#    Name: 1zp9_ATP_4_INTS_M
#    Modification time : Mon Mar 24 17:43:58 2014

@<TRIPOS>MOLECULE
1zp9_ATP_4_INTS_M
   66     0    15     0     0
SMALL
NO_CHARGES


@<TRIPOS>ATOM
      1 NZ         11.4955    4.6995  -28.3835 N.4       3 LYC4        0.0000 
      2 NZ         11.6620    5.6420  -27.4030 N.4      13 LYL4        0.0000 
      3 NZ         11.3290    3.7570  -29.3640 N.4       8 LYP4        0.0000 
      4 N          11.4955    4.6995  -28.3835 N.am      2 SEC2        0.0000 
      5 N          11.6620    5.6420  -27.4030 N.am     12 SEL2        0.0000 
      6 N          11.3290    3.7570  -29.3640 N.am      7 SEP2        0.0000 
      7 Zn         11.3320    3.3410  -24.0745 Zn        4 ZIC7        0.0000 
      8 Zn         10.6080    4.2530  -24.1800 Zn       14 ZIL7        0.0000 
      9 Zn         12.0560    2.4290  -23.9690 Zn        9 ZIP7        0.0000 
     10 NZ         11.0970    2.7345  -28.6940 N.4       3 LYC4        0.0000 
     11 NZ         10.8650    1.7120  -28.0240 N.4      13 LYL4        0.0000 
     12 N          11.0970    2.7345  -28.6940 N.am      2 SEC2        0.0000 
     13 N          10.8650    1.7120  -28.0240 N.am     12 SEL2        0.0000 
     14 Zn         11.5350    1.8890  -24.7615 Zn        4 ZIC7        0.0000 
     15 Zn         11.0140    1.3490  -25.5540 Zn       14 ZIL7        0.0000 
     16 CA          6.9595    1.4955  -27.5410 C.3       5 GLC5        0.0000 
     17 CA          7.8960    0.7860  -25.7930 C.3      15 GLL5        0.0000 
     18 CA          6.0230    2.2050  -29.2890 C.3      10 GLP5        0.0000 
     19 CA          8.5410   -4.4880  -26.9600 C.3       5 GLC5        0.0000 
     20 CA          7.3760   -2.8640  -26.3050 C.3      15 GLL5        0.0000 
     21 CA          9.7060   -6.1120  -27.6150 C.3      10 GLP5        0.0000 
     22 O           6.4765   -4.3695  -24.7585 O.2       1 ALC1        0.0000 
     23 O           6.4730   -3.3650  -25.3690 O.2      11 ALL1        0.0000 
     24 O           6.4800   -5.3740  -24.1480 O.2       6 ALP1        0.0000 
     25 CA          4.8560   -2.4005  -27.5970 C.3       5 GLC5        0.0000 
     26 CA          6.6000   -2.1490  -27.3870 C.3      15 GLL5        0.0000 
     27 CA          3.1120   -2.6520  -27.8070 C.3      10 GLP5        0.0000 
     28 CA          5.8625   -0.9890  -28.9740 C.3       5 GLC5        0.0000 
     29 CA          5.1250    0.1710  -30.5610 C.3      10 GLP5        0.0000 
     30 CA         10.6620   -4.3015  -32.2240 C.3       5 GLC5        0.0000 
     31 CA          8.5880   -3.8990  -31.5240 C.3      15 GLL5        0.0000 
     32 CA         12.7360   -4.7040  -32.9240 C.3      10 GLP5        0.0000 
     33 CA          9.8110   -2.5075  -32.7810 C.3       5 GLC5        0.0000 
     34 CA         11.0340   -1.1160  -34.0380 C.3      10 GLP5        0.0000 
     35 CA          9.6485   -5.7605  -31.8835 C.3       5 GLC5        0.0000 
     36 CA         10.7090   -7.6220  -32.2430 C.3      10 GLP5        0.0000 
     37 O           9.2925   -4.5335  -33.8005 O.2       1 ALC1        0.0000 
     38 O           9.4050   -3.6120  -32.5600 O.2      11 ALL1        0.0000 
     39 O           9.1800   -5.4550  -35.0410 O.2       6 ALP1        0.0000 
     40 N           7.8095   -6.3440  -32.1655 N.am      2 SEC2        0.0000 
     41 N           7.8110   -5.0220  -31.5600 N.am     12 SEL2        0.0000 
     42 N           7.8080   -7.6660  -32.7710 N.am      7 SEP2        0.0000 
     43 CA          6.5845   -3.7880  -32.0780 C.3       5 GLC5        0.0000 
     44 CA          6.8430   -5.2590  -30.5840 C.3      15 GLL5        0.0000 
     45 CA          6.3260   -2.3170  -33.5720 C.3      10 GLP5        0.0000 
     46 CA          6.7520   -5.9915  -32.6390 C.3       5 GLC5        0.0000 
     47 CA          6.6610   -6.7240  -34.6940 C.3      10 GLP5        0.0000 
     48 CA          7.6245   -6.9885  -31.2705 C.3       5 GLC5        0.0000 
     49 CA          8.4060   -8.7180  -31.9570 C.3      10 GLP5        0.0000 
     50 CA          5.8150   -5.7030  -28.8715 C.3       5 GLC5        0.0000 
     51 CA          4.7870   -6.1470  -27.1590 C.3      10 GLP5        0.0000 
     52 CA          8.2745   -5.6855  -29.0995 C.3       5 GLC5        0.0000 
     53 CA          6.2660   -1.5535  -30.0150 C.3       5 GLC5        0.0000 
     54 CA          7.4070   -3.2780  -29.4690 C.3      15 GLL5        0.0000 
     55 CA          8.5565   -4.6950  -28.5420 C.3       5 GLC5        0.0000 
     56 CA          5.7652    0.7885  -25.6842 C.3       5 GLC5        0.0000 
     57 CA          7.2330   -0.5800  -25.7840 C.3      15 GLL5        0.0000 
     58 CA          3.9660    1.4740  -25.5800 C.3      10 GLP5        0.0000 
     59 CA          9.6212   -2.3535  -26.5817 C.3       5 GLC5        0.0000 
     60 CA          8.1730   -1.7480  -25.6620 C.3      15 GLL5        0.0000 
     61 CA         11.4680   -2.4010  -27.1800 C.3      10 GLP5        0.0000 
     62 CA          5.8875   -4.3267  -27.0025 C.3       5 GLC5        0.0000 
     63 CA          9.7145   -4.5943  -29.9635 C.3       5 GLC5        0.0000 
     64 CA         10.9430   -5.7350  -28.9390 C.3      10 GLP5        0.0000 
     65 CA          7.1363   -2.8414  -31.9002 C.3       5 GLC5        0.0000 
     66 CA          8.3840   -3.0080  -30.4520 C.3      15 GLL5        0.0000 
@<TRIPOS>BOND
@<TRIPOS>SUBSTRUCTURE
     1 ALC1       22 GROUP        1 X    ALC  0     ROOT ALC X 1
     2 SEC2        4 GROUP        1 X    SEC  0     **** SEC X 2
     3 LYC4        1 GROUP        1 X    LYC  0     **** LYC X 4
     4 ZIC7        7 GROUP        1 X    ZIC  0     **** ZIC X 5
     5 GLC5       16 GROUP        1 X    GLC  0     **** GLC X 6
     6 ALP1       24 GROUP        1 Y    ALP  0     ROOT ALP Y 8
     7 SEP2        6 GROUP        1 Y    SEP  0     **** SEP Y 9
     8 LYP4        3 GROUP        1 Y    LYP  0     **** LYP Y 11
     9 ZIP7        9 GROUP        1 Y    ZIP  0     **** ZIP Y 12
    10 GLP5       18 GROUP        1 Y    GLP  0     **** GLP Y 13
    11 ALL1       23 GROUP        1 Z    ALL  0     ROOT ALL Z 15
    12 SEL2        5 GROUP        1 Z    SEL  0     **** SEL Z 16
    13 LYL4        2 GROUP        1 Z    LYL  0     **** LYL Z 18
    14 ZIL7        8 GROUP        1 Z    ZIL  0     **** ZIL Z 19
    15 GLL5       17 GROUP        1 Z    GLL  0     **** GLL Z 20
@<TRIPOS>SET

