#    Name: 1zp9_ATP_4_ligand
#    Modification time : Mon Mar 24 17:43:58 2014

@<TRIPOS>MOLECULE
1zp9_ATP_4_ligand
   43    45     1     0     0
SMALL
NO_CHARGES


@<TRIPOS>ATOM
      1 PG         10.6420    6.5670  -26.6910 P.3       1 ATP260      0.0000 
      2 O1G         9.9840    7.4340  -27.7270 O.co2     1 ATP260      0.0000 
      3 O2G        11.3580    7.5240  -25.7050 O.co2     1 ATP260      0.0000 
      4 O3G        11.6620    5.6420  -27.4030 O.co2     1 ATP260      0.0000 
      5 PB          9.5470    4.3410  -25.2250 P.3       1 ATP260      0.0000 
      6 O1B        10.6080    4.2530  -24.1800 O.co2     1 ATP260      0.0000 
      7 O2B         8.1500    4.0900  -24.5800 O.co2     1 ATP260      0.0000 
      8 O3B         9.4530    5.8120  -25.8860 O.3       1 ATP260      0.0000 
      9 PA         10.1590    1.8290  -26.6860 P.3       1 ATP260      0.0000 
     10 O1A        10.8650    1.7120  -28.0240 O.co2     1 ATP260      0.0000 
     11 O2A        11.0140    1.3490  -25.5540 O.co2     1 ATP260      0.0000 
     12 O3A         9.6760    3.3810  -26.4940 O.3       1 ATP260      0.0000 
     13 O5'         8.8760    0.8820  -26.8380 O.3       1 ATP260      0.0000 
     14 C5'         7.8960    0.7860  -25.7930 C.3       1 ATP260      0.0000 
     15 C4'         7.2330   -0.5800  -25.7840 C.3       1 ATP260      0.0000 
     16 O4'         6.5020   -0.8170  -26.9790 O.3       1 ATP260      0.0000 
     17 C3'         8.1730   -1.7480  -25.6620 C.3       1 ATP260      0.0000 
     18 O3'         8.4020   -2.0470  -24.3090 O.3       1 ATP260      0.0000 
     19 C2'         7.3760   -2.8640  -26.3050 C.3       1 ATP260      0.0000 
     20 O2'         6.4730   -3.3650  -25.3690 O.3       1 ATP260      0.0000 
     21 C1'         6.6000   -2.1490  -27.3870 C.3       1 ATP260      0.0000 
     22 N9          7.4300   -2.2370  -28.6050 N.pl3     1 ATP260      0.0000 
     23 C8          8.3940   -1.3450  -29.0050 C.2       1 ATP260      0.0000 
     24 N7          8.9690   -1.8380  -30.1220 N.2       1 ATP260      0.0000 
     25 C5          8.3840   -3.0080  -30.4520 C.ar      1 ATP260      0.0000 
     26 C6          8.5880   -3.8990  -31.5240 C.ar      1 ATP260      0.0000 
     27 N6          9.4050   -3.6120  -32.5600 N.pl3     1 ATP260      0.0000 
     28 N1          7.8110   -5.0220  -31.5600 N.ar      1 ATP260      0.0000 
     29 C2          6.8430   -5.2590  -30.5840 C.ar      1 ATP260      0.0000 
     30 N3          6.6490   -4.3880  -29.5090 N.ar      1 ATP260      0.0000 
     31 C4          7.4070   -3.2780  -29.4690 C.ar      1 ATP260      0.0000 
     32 H           7.1067    1.5459  -25.9142 H         1 ATP260      0.0000 
     33 H           8.3508    0.9494  -24.8022 H         1 ATP260      0.0000 
     34 H           6.5419   -0.6271  -24.9301 H         1 ATP260      0.0000 
     35 H           9.0284   -1.5679  -26.2325 H         1 ATP260      0.0000 
     36 H           8.0182   -3.5544  -26.7297 H         1 ATP260      0.0000 
     37 H           5.6805   -2.6256  -27.5203 H         1 ATP260      0.0000 
     38 H           8.6089   -0.5253  -28.5622 H         1 ATP260      0.0000 
     39 H           9.8481   -2.7159  -32.5358 H         1 ATP260      0.0000 
     40 H           9.4944   -4.3211  -33.2594 H         1 ATP260      0.0000 
     41 H           6.2478   -6.1087  -30.6579 H         1 ATP260      0.0000 
     42 H           9.3108   -1.6787  -24.1129 H         1 ATP260      0.0000 
     43 H           6.8332   -4.2632  -25.1170 H         1 ATP260      0.0000 
@<TRIPOS>BOND
     1    2    1 ar   
     2    3    1 ar   
     3    4    1 ar   
     4    8    1 1    
     5    6    5 ar   
     6    7    5 ar   
     7    8    5 1    
     8   12    5 1    
     9   10    9 ar   
    10   11    9 ar   
    11   12    9 1    
    12   13    9 1    
    13   14   13 1    
    14   15   14 1    
    15   32   14 1    
    16   33   14 1    
    17   16   15 1    
    18   17   15 1    
    19   34   15 1    
    20   21   16 1    
    21   18   17 1    
    22   19   17 1    
    23   35   17 1    
    24   42   18 1    
    25   20   19 1    
    26   21   19 1    
    27   36   19 1    
    28   43   20 1    
    29   22   21 1    
    30   37   21 1    
    31   23   22 1    
    32   31   22 1    
    33   24   23 2    
    34   38   23 1    
    35   25   24 1    
    36   26   25 ar   
    37   31   25 ar   
    38   27   26 1    
    39   28   26 ar   
    40   39   27 1    
    41   40   27 1    
    42   29   28 ar   
    43   30   29 ar   
    44   41   29 1    
    45   31   30 ar   
@<TRIPOS>SUBSTRUCTURE
     1 ATP260      1 GROUP   
@<TRIPOS>SET

