#    Name: 4fv3_EK6_1_INTS_M
#    Modification time : Mon Mar 24 20:50:06 2014

@<TRIPOS>MOLECULE
4fv3_EK6_1_INTS_M
   85     0     9     0     0
SMALL
NO_CHARGES


@<TRIPOS>ATOM
      1 CA         17.7715    8.5635   18.1720 C.3       3 GLC5        0.0000 
      2 CA         17.6950    9.4760   16.6650 C.3       9 GLL5        0.0000 
      3 CA         17.8480    7.6510   19.6790 C.3       6 GLP5        0.0000 
      4 CA         21.4685    3.8835   17.8340 C.3       3 GLC5        0.0000 
      5 CA         20.3160    4.4330   16.1680 C.3       9 GLL5        0.0000 
      6 CA         22.6210    3.3340   19.5000 C.3       6 GLP5        0.0000 
      7 O          21.7575    2.1460   16.7925 O.2       1 ALC1        0.0000 
      8 O          21.3330    3.5240   16.3190 O.2       7 ALL1        0.0000 
      9 O          22.1820    0.7680   17.2660 O.2       4 ALP1        0.0000 
     10 N          23.5235    3.0810   15.1965 N.am      2 SEC2        0.0000 
     11 N          22.4220    4.0720   15.7270 N.am      8 SEL2        0.0000 
     12 N          24.6250    2.0900   14.6660 N.am      5 SEP2        0.0000 
     13 CA         17.3320    5.8910   18.4565 C.3       3 GLC5        0.0000 
     14 CA         16.8160    4.1310   17.2340 C.3       9 GLL5        0.0000 
     15 CA         17.5210    2.1265   16.9635 C.3       3 GLC5        0.0000 
     16 CA         18.2260    0.1220   16.6930 C.3       6 GLP5        0.0000 
     17 O          17.0720    2.6680   19.3085 O.2       1 ALC1        0.0000 
     18 O          17.4910    3.4150   18.2180 O.2       7 ALL1        0.0000 
     19 O          16.6530    1.9210   20.3990 O.2       4 ALP1        0.0000 
     20 CA         20.7300    3.3830   18.7200 C.3       3 GLC5        0.0000 
     21 CA         18.8390    3.4320   17.9400 C.3       9 GLL5        0.0000 
     22 CA         19.0360    1.6745   19.1345 C.3       3 GLC5        0.0000 
     23 CA         19.2330   -0.0830   20.3290 C.3       6 GLP5        0.0000 
     24 N          13.7900    3.8905   19.1290 N.am      2 SEC2        0.0000 
     25 N          14.6220    3.7630   18.0140 N.am      8 SEL2        0.0000 
     26 N          12.9580    4.0180   20.2440 N.am      5 SEP2        0.0000 
     27 O          12.8760    5.4440   12.9860 O.2       1 ALC1        0.0000 
     28 O          13.7080    5.8080   13.9740 O.2       7 ALL1        0.0000 
     29 O          12.0440    5.0800   11.9980 O.2       4 ALP1        0.0000 
     30 CA         15.6360   11.6865   19.2420 C.3       3 GLC5        0.0000 
     31 CA         14.8550    9.7030   19.6110 C.3       9 GLL5        0.0000 
     32 CA         16.4170   13.6700   18.8730 C.3       6 GLP5        0.0000 
     33 CA         14.1375   10.4245   21.4690 C.3       3 GLC5        0.0000 
     34 CA         13.4200   11.1460   23.3270 C.3       6 GLP5        0.0000 
     35 CA         15.9845   10.5555   21.0065 C.3       3 GLC5        0.0000 
     36 CA         17.1140   11.4080   22.4020 C.3       6 GLP5        0.0000 
     37 CA         16.3515    8.6770   19.6450 C.3       3 GLC5        0.0000 
     38 CA         10.1655    9.5040   21.1445 C.3       3 GLC5        0.0000 
     39 CA         12.1580    9.2390   20.6990 C.3       9 GLL5        0.0000 
     40 CA          8.1730    9.7690   21.5900 C.3       6 GLP5        0.0000 
     41 CA         12.7890   10.1925   22.0130 C.3       3 GLC5        0.0000 
     42 CA         18.8745   10.7630   16.5665 C.3       3 GLC5        0.0000 
     43 CA         19.5440   12.4420   17.0530 C.3       6 GLP5        0.0000 
     44 CA         20.7013    9.1077   15.3463 C.3       3 GLC5        0.0000 
     45 CA         18.7150    8.6920   15.4950 C.3       9 GLL5        0.0000 
     46 CA         22.6070    9.2670   15.8610 C.3       6 GLP5        0.0000 
     47 CA         19.1747    8.0745   17.7155 C.3       3 GLC5        0.0000 
     48 CA         19.3220    8.0440   19.7180 C.3       6 GLP5        0.0000 
     49 CA         19.0335   11.1387   15.5012 C.3       3 GLC5        0.0000 
     50 CA         18.8760    9.2050   14.1680 C.3       9 GLL5        0.0000 
     51 CA         19.5110    5.4435   13.1935 C.3       3 GLC5        0.0000 
     52 CA         20.1440    6.7950   15.0200 C.3       9 GLL5        0.0000 
     53 CA         18.7920    3.8520   12.0240 C.3       6 GLP5        0.0000 
     54 CA         21.3075    8.5695   14.6788 C.3       3 GLC5        0.0000 
     55 CA         20.3160    7.2750   13.7060 C.3       9 GLL5        0.0000 
     56 CA         21.4405    7.8181   15.6601 C.3       3 GLC5        0.0000 
     57 CA         19.3400    7.5180   15.9310 C.3       9 GLL5        0.0000 
     58 CA         20.3770    5.8982   17.7188 C.3       3 GLC5        0.0000 
     59 CA         20.8060    5.5820   15.4430 C.3       9 GLL5        0.0000 
     60 CA         20.1930    6.7890   19.6320 C.3       6 GLP5        0.0000 
     61 CA         19.9165    3.5272   14.7508 C.3       3 GLC5        0.0000 
     62 CA         19.2720    2.0470   13.6960 C.3       6 GLP5        0.0000 
     63 CA         19.5643    5.2915   18.4918 C.3       3 GLC5        0.0000 
     64 CA         19.0320    4.1560   16.7630 C.3       9 GLL5        0.0000 
     65 CA         18.5807    1.9580   17.0222 C.3       3 GLC5        0.0000 
     66 CA         16.2892    3.5048   15.0853 C.3       3 GLC5        0.0000 
     67 CA         17.7510    4.5900   16.3070 C.3       9 GLL5        0.0000 
     68 CA         15.2950    2.6490   13.4000 C.3       6 GLP5        0.0000 
     69 CA         18.9436    2.9748   15.4668 C.3       3 GLC5        0.0000 
     70 CA         12.2350    4.7888   15.2588 C.3       3 GLC5        0.0000 
     71 CA         13.4980    5.8480   16.3590 C.3       9 GLL5        0.0000 
     72 CA         11.1150    3.3530   14.8290 C.3       6 GLP5        0.0000 
     73 CA         14.1450    6.4250   19.3840 C.3       3 GLC5        0.0000 
     74 CA         13.1320    6.7880   17.4980 C.3       9 GLL5        0.0000 
     75 CA         14.6910    5.5790   21.0400 C.3       6 GLP5        0.0000 
     76 CA         15.8708    7.9078   19.0892 C.3       3 GLC5        0.0000 
     77 CA         14.0660    7.7540   17.9580 C.3       9 GLL5        0.0000 
     78 CA         13.5765   10.7350   18.8805 C.3       3 GLC5        0.0000 
     79 CA         12.8650   12.3310   18.4350 C.3       6 GLP5        0.0000 
     80 CA         14.4895    7.3590   20.1830 C.3       3 GLC5        0.0000 
     81 CA         12.5873   10.5910   19.3095 C.3       3 GLC5        0.0000 
     82 CA         12.4610    8.4630   19.6690 C.3       9 GLL5        0.0000 
     83 CA         13.5003    7.2150   20.6120 C.3       3 GLC5        0.0000 
     84 CA         13.1913    6.3345   19.8537 C.3       3 GLC5        0.0000 
     85 CA         11.5180    7.5060   19.2090 C.3       9 GLL5        0.0000 
@<TRIPOS>BOND
@<TRIPOS>SUBSTRUCTURE
     1 ALC1        7 GROUP        1 X    ALC  0     ROOT ALC X 1
     2 SEC2       10 GROUP        1 X    SEC  0     **** SEC X 2
     3 GLC5        1 GROUP        1 X    GLC  0     **** GLC X 6
     4 ALP1        9 GROUP        1 Y    ALP  0     ROOT ALP Y 8
     5 SEP2       12 GROUP        1 Y    SEP  0     **** SEP Y 9
     6 GLP5        3 GROUP        1 Y    GLP  0     **** GLP Y 13
     7 ALL1        8 GROUP        1 Z    ALL  0     ROOT ALL Z 15
     8 SEL2       11 GROUP        1 Z    SEL  0     **** SEL Z 16
     9 GLL5        2 GROUP        1 Z    GLL  0     **** GLL Z 20
@<TRIPOS>SET

