#    Name: 4fv3_EK6_1_ligand
#    Modification time : Mon Mar 24 20:50:06 2014

@<TRIPOS>MOLECULE
4fv3_EK6_1_ligand
   64    67     1     0     0
SMALL
NO_CHARGES


@<TRIPOS>ATOM
      1 CL2        17.6950    9.4760   16.6650 Cl        1 EK6401      0.0000 
      2 C27        18.7150    8.6920   15.4950 C.ar      1 EK6401      0.0000 
      3 C6         18.8760    9.2050   14.1680 C.ar      1 EK6401      0.0000 
      4 C5         18.1700   10.4660   13.7310 C.3       1 EK6401      0.0000 
      5 N1         16.9720   10.1110   12.8990 N.4       1 EK6401      0.0000 
      6 C4         15.7580    9.7070   13.6500 C.3       1 EK6401      0.0000 
      7 C3         14.9260   10.8290   14.2860 C.2       1 EK6401      0.0000 
      8 O2         14.0580   10.6820   15.1390 O.2       1 EK6401      0.0000 
      9 O1         15.2650   12.0540   13.7690 O.3       1 EK6401      0.0000 
     10 C2         14.6320   13.2590   14.1900 C.3       1 EK6401      0.0000 
     11 C1         14.2820   13.9750   12.8840 C.3       1 EK6401      0.0000 
     12 C26        19.3400    7.5180   15.9310 C.ar      1 EK6401      0.0000 
     13 C9         20.1440    6.7950   15.0200 C.ar      1 EK6401      0.0000 
     14 C8         20.3160    7.2750   13.7060 C.ar      1 EK6401      0.0000 
     15 C7         19.7000    8.4690   13.2870 C.ar      1 EK6401      0.0000 
     16 C10        20.8060    5.5820   15.4430 C.2       1 EK6401      0.0000 
     17 C12        20.3160    4.4330   16.1680 C.2       1 EK6401      0.0000 
     18 N3         21.3330    3.5240   16.3190 N.pl3     1 EK6401      0.0000 
     19 N2         22.4220    4.0720   15.7270 N.2       1 EK6401      0.0000 
     20 C11        22.1600    5.3120   15.1850 C.2       1 EK6401      0.0000 
     21 C13        19.0320    4.1560   16.7630 C.2       1 EK6401      0.0000 
     22 C25        17.7510    4.5900   16.3070 C.2       1 EK6401      0.0000 
     23 C15        16.8160    4.1310   17.2340 C.2       1 EK6401      0.0000 
     24 N4         17.4910    3.4150   18.2180 N.pl3     1 EK6401      0.0000 
     25 C14        18.8390    3.4320   17.9400 C.2       1 EK6401      0.0000 
     26 C16        15.3700    4.4030   17.2710 C.2       1 EK6401      0.0000 
     27 O3         14.6220    3.7630   18.0140 O.2       1 EK6401      0.0000 
     28 N5         14.9160    5.4300   16.4370 N.am      1 EK6401      0.0000 
     29 C17        13.4980    5.8480   16.3590 C.3       1 EK6401      0.0000 
     30 C18        13.2120    6.6010   15.0180 C.3       1 EK6401      0.0000 
     31 O4         13.7080    5.8080   13.9740 O.3       1 EK6401      0.0000 
     32 C19        13.1320    6.7880   17.4980 C.ar      1 EK6401      0.0000 
     33 C24        14.0660    7.7540   17.9580 C.ar      1 EK6401      0.0000 
     34 C23        13.7210    8.5750   19.0410 C.ar      1 EK6401      0.0000 
     35 CL1        14.8550    9.7030   19.6110 Cl        1 EK6401      0.0000 
     36 C22        12.4610    8.4630   19.6690 C.ar      1 EK6401      0.0000 
     37 F          12.1580    9.2390   20.6990 F         1 EK6401      0.0000 
     38 C21        11.5180    7.5060   19.2090 C.ar      1 EK6401      0.0000 
     39 C20        11.8650    6.6740   18.1260 C.ar      1 EK6401      0.0000 
     40 H          18.8542   11.0795   13.1473 H         1 EK6401      0.0000 
     41 H          17.8545   11.0265   14.6094 H         1 EK6401      0.0000 
     42 H          16.0398    8.9903   14.4637 H         1 EK6401      0.0000 
     43 H          15.0793    9.1190   12.9802 H         1 EK6401      0.0000 
     44 H          15.2914   13.8937   14.7526 H         1 EK6401      0.0000 
     45 H          13.7190   13.0770   14.7262 H         1 EK6401      0.0000 
     46 H          19.2223    7.1862   16.8826 H         1 EK6401      0.0000 
     47 H          20.8995    6.7451   13.0453 H         1 EK6401      0.0000 
     48 H          19.8495    8.8115   12.3302 H         1 EK6401      0.0000 
     49 H          21.2750    2.6847   16.7518 H         1 EK6401      0.0000 
     50 H          22.7559    5.8750   14.7316 H         1 EK6401      0.0000 
     51 H          17.5906    5.0848   15.5346 H         1 EK6401      0.0000 
     52 H          17.0770    2.9836   18.9641 H         1 EK6401      0.0000 
     53 H          19.5270    3.0249   18.4534 H         1 EK6401      0.0000 
     54 H          15.5804    5.9450   15.8297 H         1 EK6401      0.0000 
     55 H          12.8426    4.9959   16.3916 H         1 EK6401      0.0000 
     56 H          13.7037    7.5680   15.0930 H         1 EK6401      0.0000 
     57 H          12.1361    6.7512   14.9687 H         1 EK6401      0.0000 
     58 H          14.9693    7.8425   17.5032 H         1 EK6401      0.0000 
     59 H          10.6126    7.4267   19.6552 H         1 EK6401      0.0000 
     60 H          11.1953    5.9752   17.7840 H         1 EK6401      0.0000 
     61 H          15.0965   14.1698   12.3374 H         1 EK6401      0.0000 
     62 H          13.6698   13.4280   12.3131 H         1 EK6401      0.0000 
     63 H          13.8249   14.8487   13.0504 H         1 EK6401      0.0000 
     64 H          12.9332    5.6816   13.3546 H         1 EK6401      0.0000 
@<TRIPOS>BOND
     1    2    1 1    
     2    3    2 ar   
     3   12    2 ar   
     4    4    3 1    
     5   15    3 ar   
     6    5    4 1    
     7   40    4 1    
     8   41    4 1    
     9    6    5 1    
    10    7    6 1    
    11   42    6 1    
    12   43    6 1    
    13    8    7 2    
    14    9    7 1    
    15   10    9 1    
    16   11   10 1    
    17   44   10 1    
    18   45   10 1    
    19   61   11 1    
    20   62   11 1    
    21   63   11 1    
    22   13   12 ar   
    23   46   12 1    
    24   14   13 ar   
    25   16   13 1    
    26   15   14 ar   
    27   47   14 1    
    28   48   15 1    
    29   17   16 2    
    30   20   16 1    
    31   18   17 1    
    32   21   17 1    
    33   19   18 1    
    34   49   18 1    
    35   20   19 2    
    36   50   20 1    
    37   22   21 1    
    38   25   21 2    
    39   23   22 2    
    40   51   22 1    
    41   24   23 1    
    42   26   23 1    
    43   25   24 1    
    44   52   24 1    
    45   53   25 1    
    46   27   26 2    
    47   28   26 am   
    48   29   28 1    
    49   54   28 1    
    50   30   29 1    
    51   32   29 1    
    52   55   29 1    
    53   31   30 1    
    54   56   30 1    
    55   57   30 1    
    56   64   31 1    
    57   33   32 ar   
    58   39   32 ar   
    59   34   33 ar   
    60   58   33 1    
    61   35   34 1    
    62   36   34 ar   
    63   37   36 1    
    64   38   36 ar   
    65   39   38 ar   
    66   59   38 1    
    67   60   39 1    
@<TRIPOS>SUBSTRUCTURE
     1 EK6401      1 GROUP   
@<TRIPOS>SET

