#    Name: 2j2i_LY4_1_INTS_M
#    Modification time : Tue Mar 25 19:06:07 2014

@<TRIPOS>MOLECULE
2j2i_LY4_1_INTS_M
   78     0     6     0     0
SMALL
NO_CHARGES


@<TRIPOS>ATOM
      1 CA         37.7050   -1.2795   -2.2840 C.3       2 GLC5        0.0000 
      2 CA         39.4820   -1.7760   -2.1850 C.3       6 GLL5        0.0000 
      3 CA         35.9280   -0.7830   -2.3830 C.3       4 GLP5        0.0000 
      4 CA         41.2665    1.1520   -1.5850 C.3       2 GLC5        0.0000 
      5 CA         39.8820   -0.5500   -1.3140 C.3       6 GLL5        0.0000 
      6 CA         42.6510    2.8540   -1.8560 C.3       4 GLP5        0.0000 
      7 CA         39.3150    0.9130   -2.7460 C.3       2 GLC5        0.0000 
      8 CA         38.7480    2.3760   -4.1780 C.3       4 GLP5        0.0000 
      9 CA         37.8860   -0.2650   -1.2905 C.3       2 GLC5        0.0000 
     10 CA         35.8900    0.0200   -1.2670 C.3       4 GLP5        0.0000 
     11 CA         39.4635    0.9370   -0.0795 C.3       2 GLC5        0.0000 
     12 CA         39.0450    2.4240    1.1550 C.3       4 GLP5        0.0000 
     13 CA         42.7100    0.8965    0.3775 C.3       2 GLC5        0.0000 
     14 CA         41.4520   -0.8920    0.4710 C.3       6 GLL5        0.0000 
     15 CA         43.9680    2.6850    0.2840 C.3       4 GLP5        0.0000 
     16 CA         36.9655   -4.5555    2.3720 C.3       2 GLC5        0.0000 
     17 CA         37.6190   -2.7500    2.0880 C.3       6 GLL5        0.0000 
     18 CA         36.3120   -6.3610    2.6560 C.3       4 GLP5        0.0000 
     19 CA         37.5575   -4.6845    3.6620 C.3       2 GLC5        0.0000 
     20 CA         38.4470   -3.0050    3.1720 C.3       6 GLL5        0.0000 
     21 CA         36.6680   -6.3640    4.1520 C.3       4 GLP5        0.0000 
     22 O          44.9600   -1.3390    5.2370 O.2       1 ALC1        0.0000 
     23 O          44.3000   -1.4830    4.0100 O.2       5 ALL1        0.0000 
     24 O          45.6200   -1.1950    6.4640 O.2       3 ALP1        0.0000 
     25 CA         44.2890   -4.0165   -0.4305 C.3       2 GLC5        0.0000 
     26 CA         43.6980   -2.4510   -0.4230 C.3       6 GLL5        0.0000 
     27 CA         44.8800   -5.5820   -0.4380 C.3       4 GLP5        0.0000 
     28 CA         42.3785   -4.0610    0.1455 C.3       2 GLC5        0.0000 
     29 CA         41.0590   -5.6710    0.7140 C.3       4 GLP5        0.0000 
     30 CA         45.0485   -3.5430   -1.0485 C.3       2 GLC5        0.0000 
     31 CA         45.2170   -1.5040   -1.6590 C.3       6 GLL5        0.0000 
     32 CA         43.9560   -5.0865   -3.3420 C.3       2 GLC5        0.0000 
     33 CA         43.6440   -3.2130   -2.7510 C.3       6 GLL5        0.0000 
     34 CA         44.2680   -6.9600   -3.9330 C.3       4 GLP5        0.0000 
     35 CA         44.2620   -4.3975   -1.5945 C.3       2 GLC5        0.0000 
     36 CA         36.9200   -3.4570   -2.3605 C.3       2 GLC5        0.0000 
     37 CA         38.5660   -4.9020   -2.3450 C.3       6 GLL5        0.0000 
     38 CA         35.2740   -2.0120   -2.3760 C.3       4 GLP5        0.0000 
     39 CA         39.8125   -5.2865   -0.8155 C.3       2 GLC5        0.0000 
     40 CA         38.3845   -6.7755   -4.6865 C.3       2 GLC5        0.0000 
     41 CA         38.1140   -4.6790   -4.7250 C.3       6 GLL5        0.0000 
     42 CA         38.6550   -8.8720   -4.6480 C.3       4 GLP5        0.0000 
     43 CA         35.8573   -2.2523    1.3310 C.3       2 GLC5        0.0000 
     44 CA         38.1440   -2.0850    0.9720 C.3       6 GLL5        0.0000 
     45 CA         33.8330   -2.0870    1.1320 C.3       4 GLP5        0.0000 
     46 CA         38.0444   -0.4030    1.5771 C.3       2 GLC5        0.0000 
     47 CA         37.8730    1.5100    1.6320 C.3       4 GLP5        0.0000 
     48 CA         36.5315   -1.8862    3.6080 C.3       2 GLC5        0.0000 
     49 CA         35.0300   -0.8950    4.5860 C.3       4 GLP5        0.0000 
     50 CA         39.9985   -4.5200    3.1910 C.3       2 GLC5        0.0000 
     51 CA         40.8820   -6.2340    3.2280 C.3       4 GLP5        0.0000 
     52 CA         40.5763    0.3630    1.8126 C.3       2 GLC5        0.0000 
     53 CA         40.3040   -1.9490    2.0160 C.3       6 GLL5        0.0000 
     54 CA         40.2490    2.2810    2.0770 C.3       4 GLP5        0.0000 
     55 CA         40.8911   -3.6465    1.1491 C.3       2 GLC5        0.0000 
     56 CA         41.5540   -1.4300    1.6900 C.3       6 GLL5        0.0000 
     57 CA         43.3405    0.1382    3.2765 C.3       2 GLC5        0.0000 
     58 CA         42.7680   -1.4370    2.3840 C.3       6 GLL5        0.0000 
     59 CA         43.2780    1.7560    4.4700 C.3       4 GLP5        0.0000 
     60 CA         44.3440   -3.1422    2.0000 C.3       2 GLC5        0.0000 
     61 CA         45.2850   -4.8050    1.9170 C.3       4 GLP5        0.0000 
     62 CA         44.0798    0.5603    0.6890 C.3       2 GLC5        0.0000 
     63 CA         44.0380   -1.5220    1.7820 C.3       6 GLL5        0.0000 
     64 CA         45.0643   -3.0565    0.9685 C.3       2 GLC5        0.0000 
     65 CA         44.3450   -1.6070    0.4060 C.3       6 GLL5        0.0000 
     66 CA         44.9040    1.0700    0.0305 C.3       2 GLC5        0.0000 
     67 CA         45.3420   -1.0090   -0.3660 C.3       6 GLL5        0.0000 
     68 CA         47.5255   -1.3880   -0.4875 C.3       2 GLC5        0.0000 
     69 CA         46.3380   -0.0810   -0.0800 C.3       6 GLL5        0.0000 
     70 CA         49.2110   -2.2310   -0.7520 C.3       4 GLP5        0.0000 
     71 CA         47.2333    1.2655    0.9008 C.3       2 GLC5        0.0000 
     72 CA         47.7000    2.3860    2.3820 C.3       4 GLP5        0.0000 
     73 CA         48.1723   -1.0537   -1.2400 C.3       2 GLC5        0.0000 
     74 CA         47.1950    0.3710   -1.0810 C.3       6 GLL5        0.0000 
     75 CA         45.8884    1.3314   -2.0435 C.3       2 GLC5        0.0000 
     76 CA         45.1660    3.1310   -1.8930 C.3       4 GLP5        0.0000 
     77 CA         47.4318   -1.7565   -1.4558 C.3       2 GLC5        0.0000 
     78 CA         46.0880   -1.0600   -2.6600 C.3       6 GLL5        0.0000 
@<TRIPOS>BOND
@<TRIPOS>SUBSTRUCTURE
     1 ALC1       22 GROUP        1 X    ALC  0     ROOT ALC X 1
     2 GLC5        1 GROUP        1 X    GLC  0     **** GLC X 6
     3 ALP1       24 GROUP        1 Y    ALP  0     ROOT ALP Y 8
     4 GLP5        3 GROUP        1 Y    GLP  0     **** GLP Y 13
     5 ALL1       23 GROUP        1 Z    ALL  0     ROOT ALL Z 15
     6 GLL5        2 GROUP        1 Z    GLL  0     **** GLL Z 20
@<TRIPOS>SET

