#    Name: 2j2i_LY4_1_ligand
#    Modification time : Tue Mar 25 19:06:07 2014

@<TRIPOS>MOLECULE
2j2i_LY4_1_ligand
   64    69     1     0     0
SMALL
NO_CHARGES


@<TRIPOS>ATOM
      1 CBD        39.4820   -1.7760   -2.1850 C.3       1 LY41307     0.0000 
      2 CBB        39.8820   -0.5500   -1.3140 C.3       1 LY41307     0.0000 
      3 NAW        40.2160   -1.0350    0.0250 N.pl3     1 LY41307     0.0000 
      4 CAV        41.4520   -0.8920    0.4710 C.2       1 LY41307     0.0000 
      5 CAX        39.4810   -1.6790    0.9410 C.ar      1 LY41307     0.0000 
      6 CAY        38.1440   -2.0850    0.9720 C.ar      1 LY41307     0.0000 
      7 CAZ        37.6190   -2.7500    2.0880 C.ar      1 LY41307     0.0000 
      8 CAP        38.4470   -3.0050    3.1720 C.ar      1 LY41307     0.0000 
      9 CAO        39.7830   -2.6070    3.1360 C.ar      1 LY41307     0.0000 
     10 CAN        40.3040   -1.9490    2.0160 C.ar      1 LY41307     0.0000 
     11 CAM        41.5540   -1.4300    1.6900 C.2       1 LY41307     0.0000 
     12 CAH        42.7680   -1.4370    2.3840 C.2       1 LY41307     0.0000 
     13 CAE        43.0160   -1.4260    3.7620 C.2       1 LY41307     0.0000 
     14 OAF        42.1820   -1.3600    4.6650 O.2       1 LY41307     0.0000 
     15 NAD        44.3000   -1.4830    4.0100 N.am      1 LY41307     0.0000 
     16 CAC        44.9270   -1.5300    2.8610 C.2       1 LY41307     0.0000 
     17 OAB        46.1480   -1.5960    2.8010 O.2       1 LY41307     0.0000 
     18 CAG        44.0380   -1.5220    1.7820 C.2       1 LY41307     0.0000 
     19 CAL        44.3450   -1.6070    0.4060 C.2       1 LY41307     0.0000 
     20 CAU        43.6980   -2.4510   -0.4230 C.2       1 LY41307     0.0000 
     21 CAK        45.3420   -1.0090   -0.3660 C.ar      1 LY41307     0.0000 
     22 CAJ        46.3380   -0.0810   -0.0800 C.ar      1 LY41307     0.0000 
     23 CAI        47.1950    0.3710   -1.0810 C.ar      1 LY41307     0.0000 
     24 CAQ        47.0720   -0.1240   -2.3750 C.ar      1 LY41307     0.0000 
     25 CAR        46.0880   -1.0600   -2.6600 C.ar      1 LY41307     0.0000 
     26 CAS        45.2170   -1.5040   -1.6590 C.ar      1 LY41307     0.0000 
     27 NAT        44.2090   -2.3790   -1.6710 N.pl3     1 LY41307     0.0000 
     28 CBA        43.6440   -3.2130   -2.7510 C.3       1 LY41307     0.0000 
     29 CBC        42.8350   -2.4430   -3.7930 C.3       1 LY41307     0.0000 
     30 OBE        41.6180   -1.7990   -3.3130 O.3       1 LY41307     0.0000 
     31 CBF        40.6500   -2.6440   -2.7140 C.3       1 LY41307     0.0000 
     32 CBG        40.1710   -3.7160   -3.7590 C.3       1 LY41307     0.0000 
     33 NBH        38.7390   -4.0420   -3.5440 N.4       1 LY41307     0.0000 
     34 CBI        38.5660   -4.9020   -2.3450 C.3       1 LY41307     0.0000 
     35 CBJ        38.1140   -4.6790   -4.7250 C.3       1 LY41307     0.0000 
     36 H          38.8922   -1.4127   -3.0478 H         1 LY41307     0.0000 
     37 H          38.8042   -2.4185   -1.5916 H         1 LY41307     0.0000 
     38 H          39.0398    0.1289   -1.2924 H         1 LY41307     0.0000 
     39 H          40.7296   -0.0715   -1.7864 H         1 LY41307     0.0000 
     40 H          42.1877   -0.4586   -0.0123 H         1 LY41307     0.0000 
     41 H          37.5336   -1.8931    0.1624 H         1 LY41307     0.0000 
     42 H          36.6407   -3.0402    2.0975 H         1 LY41307     0.0000 
     43 H          38.0789   -3.4865    4.0019 H         1 LY41307     0.0000 
     44 H          40.3962   -2.7987    3.9430 H         1 LY41307     0.0000 
     45 H          44.7167   -1.4894    4.8939 H         1 LY41307     0.0000 
     46 H          42.9583   -3.0368   -0.1575 H         1 LY41307     0.0000 
     47 H          46.4438    0.2765    0.8824 H         1 LY41307     0.0000 
     48 H          47.9164    1.0689   -0.8628 H         1 LY41307     0.0000 
     49 H          47.7055    0.2018   -3.1132 H         1 LY41307     0.0000 
     50 H          45.9937   -1.4347   -3.6162 H         1 LY41307     0.0000 
     51 H          42.9887   -4.0001   -2.3202 H         1 LY41307     0.0000 
     52 H          44.4583   -3.7538   -3.2792 H         1 LY41307     0.0000 
     53 H          42.5949   -3.1529   -4.6252 H         1 LY41307     0.0000 
     54 H          43.5170   -1.6853   -4.2566 H         1 LY41307     0.0000 
     55 H          41.0698   -3.1826   -1.8720 H         1 LY41307     0.0000 
     56 H          40.7953   -4.5974   -3.6342 H         1 LY41307     0.0000 
     57 H          40.3326   -3.3018   -4.7512 H         1 LY41307     0.0000 
     58 H          38.2000   -3.0920   -3.3461 H         1 LY41307     0.0000 
     59 H          39.0586   -5.7676   -2.4347 H         1 LY41307     0.0000 
     60 H          38.9048   -4.4564   -1.5163 H         1 LY41307     0.0000 
     61 H          37.6049   -5.1269   -2.1848 H         1 LY41307     0.0000 
     62 H          38.1573   -4.0893   -5.5315 H         1 LY41307     0.0000 
     63 H          38.5652   -5.5384   -4.9657 H         1 LY41307     0.0000 
     64 H          37.1492   -4.8888   -4.5667 H         1 LY41307     0.0000 
@<TRIPOS>BOND
     1    2    1 1    
     2   31    1 1    
     3   36    1 1    
     4   37    1 1    
     5    3    2 1    
     6   38    2 1    
     7   39    2 1    
     8    4    3 1    
     9    5    3 1    
    10   11    4 2    
    11   40    4 1    
    12    6    5 ar   
    13   10    5 ar   
    14    7    6 ar   
    15   41    6 1    
    16    8    7 ar   
    17   42    7 1    
    18    9    8 ar   
    19   43    8 1    
    20   10    9 ar   
    21   44    9 1    
    22   11   10 1    
    23   12   11 1    
    24   13   12 1    
    25   18   12 2    
    26   14   13 2    
    27   15   13 am   
    28   16   15 am   
    29   45   15 1    
    30   17   16 2    
    31   18   16 1    
    32   19   18 1    
    33   20   19 2    
    34   21   19 1    
    35   27   20 1    
    36   46   20 1    
    37   22   21 ar   
    38   26   21 ar   
    39   23   22 ar   
    40   47   22 1    
    41   24   23 ar   
    42   48   23 1    
    43   25   24 ar   
    44   49   24 1    
    45   26   25 ar   
    46   50   25 1    
    47   27   26 1    
    48   28   27 1    
    49   29   28 1    
    50   51   28 1    
    51   52   28 1    
    52   30   29 1    
    53   53   29 1    
    54   54   29 1    
    55   31   30 1    
    56   32   31 1    
    57   55   31 1    
    58   33   32 1    
    59   56   32 1    
    60   57   32 1    
    61   34   33 1    
    62   35   33 1    
    63   58   33 1    
    64   59   34 1    
    65   60   34 1    
    66   61   34 1    
    67   62   35 1    
    68   63   35 1    
    69   64   35 1    
@<TRIPOS>SUBSTRUCTURE
     1 LY41307     1 GROUP   
@<TRIPOS>SET

