#    Name: 1W11_1_CAVITY_N1_6.mol2
#    Modification time : Mon Mar 10 14:55:49 2014

@<TRIPOS>MOLECULE
1W11_1_CAVITY_N1_6.mol2
   60     0     4     0     0
SMALL
NO_CHARGES


@<TRIPOS>ATOM
      1 N          33.3952   11.8950   28.9661 N.2       2 ALA2        0.0000 
      2 N          33.3561   11.4140   27.5459 N.2       2 ALA2        0.0000 
      3 O          33.3169   10.9330   26.1256 O.2       2 ALA2        0.0000 
      4 CA         33.2778   10.4520   24.7054 C.3       3 GLY6        0.0000 
      5 N          32.4098   10.8324   29.3531 N.2       2 ALA2        0.0000 
      6 DU         31.2796   11.7754   29.0649 H         4 CUB7        0.0000 
      7 N          32.3707   10.3514   27.9329 N.2       2 ALA2        0.0000 
      8 DU         31.2404   11.2944   27.6446 H         4 CUB7        0.0000 
      9 N          32.3316    9.8704   26.5126 N.2       2 ALA2        0.0000 
     10 CA         31.2013   10.8134   26.2244 C.3       3 GLY6        0.0000 
     11 CA         32.2925    9.3894   25.0924 C.3       3 GLY6        0.0000 
     12 CA         31.1622   10.3324   24.8041 C.3       3 GLY6        0.0000 
     13 N          31.1231    9.8514   23.3839 N.2       2 ALA2        0.0000 
     14 CA         31.4636   10.2507   31.1604 C.3       3 GLY6        0.0000 
     15 N          30.3333   11.1938   30.8722 N.2       2 ALA2        0.0000 
     16 N          31.4245    9.7697   29.7402 N.2       2 ALA2        0.0000 
     17 DU         30.2942   10.7128   29.4519 H         4 CUB7        0.0000 
     18 N          31.3853    9.2887   28.3199 N.2       2 ALA2        0.0000 
     19 DU         30.2551   10.2318   28.0317 H         4 CUB7        0.0000 
     20 CA         29.1248   11.1748   27.7434 C.3       3 GLY6        0.0000 
     21 N          32.4765    7.8646   27.1879 N.2       2 ALA2        0.0000 
     22 N          31.3462    8.8077   26.8997 N.2       2 ALA2        0.0000 
     23 CA         30.2159    9.7508   26.6114 C.3       3 GLY6        0.0000 
     24 CA         31.3071    8.3267   25.4794 C.3       3 GLY6        0.0000 
     25 N          29.3480   10.1311   31.2592 N.2       2 ALA2        0.0000 
     26 N          28.2177   11.0742   30.9710 N.2       2 ALA2        0.0000 
     27 CA         30.4391    8.7070   30.1272 C.3       3 GLY6        0.0000 
     28 N          29.3088    9.6501   29.8390 N.2       2 ALA2        0.0000 
     29 DU         28.1785   10.5932   29.5507 H         4 CUB7        0.0000 
     30 O          31.5303    7.2830   28.9952 O.2       2 ALA2        0.0000 
     31 O          30.4000    8.2260   28.7070 O.2       2 ALA2        0.0000 
     32 DU         29.2697    9.1691   28.4187 H         4 CUB7        0.0000 
     33 CA         28.1394   10.1122   28.1305 C.3       3 GLY6        0.0000 
     34 CA         27.0091   11.0552   27.8422 C.3       3 GLY6        0.0000 
     35 CA         32.6214    5.8589   27.8632 C.3       3 GLY6        0.0000 
     36 N          31.4911    6.8020   27.5750 N.2       2 ALA2        0.0000 
     37 O          30.3609    7.7450   27.2867 O.2       2 ALA2        0.0000 
     38 CA         29.2306    8.6881   26.9985 C.3       3 GLY6        0.0000 
     39 CA         26.9700   10.5742   26.4220 C.3       3 GLY6        0.0000 
     40 CA         31.4520    6.3210   26.1547 C.3       3 GLY6        0.0000 
     41 O          30.3217    7.2640   25.8665 O.2       2 ALA2        0.0000 
     42 N          28.3235    8.5874   30.2260 N.2       2 ALA2        0.0000 
     43 N          27.1932    9.5305   29.9378 N.2       2 ALA2        0.0000 
     44 N          26.0629   10.4736   29.6495 N.2       2 ALA2        0.0000 
     45 CA         30.5449    6.2203   29.3823 C.3       3 GLY6        0.0000 
     46 N          29.4146    7.1634   29.0940 N.2       2 ALA2        0.0000 
     47 OG         28.2843    8.1064   28.8058 O.2       1 SER1        0.0000 
     48 OG         27.1541    9.0495   28.5175 O.2       1 SER1        0.0000 
     49 OG         26.0238    9.9926   28.2293 O.2       1 SER1        0.0000 
     50 N          31.6361    4.7962   28.2503 N.2       2 ALA2        0.0000 
     51 N          30.5058    5.7393   27.9620 N.2       2 ALA2        0.0000 
     52 N          29.3755    6.6824   27.6738 N.2       2 ALA2        0.0000 
     53 CA         28.2452    7.6254   27.3855 C.3       3 GLY6        0.0000 
     54 CA         27.1149    8.5685   27.0973 C.3       3 GLY6        0.0000 
     55 N          29.5595    5.1576   29.7693 N.2       2 ALA2        0.0000 
     56 N          28.4293    6.1007   29.4811 N.2       2 ALA2        0.0000 
     57 CA         29.5204    4.6766   28.3491 C.3       3 GLY6        0.0000 
     58 N          28.3901    5.6197   28.0608 N.2       2 ALA2        0.0000 
     59 OG         27.2599    6.5628   27.7726 O.2       1 SER1        0.0000 
     60 O          24.9993    8.4489   27.1960 O.2       2 ALA2        0.0000 
@<TRIPOS>BOND
@<TRIPOS>SUBSTRUCTURE
     1 SER1       47 GROUP   
     2 ALA2        1 GROUP   
     3 GLY6        4 GROUP   
     4 CUB7        6 GROUP   
@<TRIPOS>SET

