#    Name: 1w11_SK1_1_INTS_M
#    Modification time : Tue Mar 25 08:26:23 2014

@<TRIPOS>MOLECULE
1w11_SK1_1_INTS_M
   76     0     9     0     0
SMALL
NO_CHARGES


@<TRIPOS>ATOM
      1 O          28.4855    7.4185   30.9910 O.2       1 ALC1        0.0000 
      2 O          28.4620    8.1490   29.6750 O.2       7 ALL1        0.0000 
      3 O          28.5090    6.6880   32.3070 O.2       4 ALP1        0.0000 
      4 O          34.7230    3.5475   26.1240 O.2       1 ALC1        0.0000 
      5 O          34.2760    4.7210   26.7910 O.2       7 ALL1        0.0000 
      6 O          35.1700    2.3740   25.4570 O.2       4 ALP1        0.0000 
      7 O          34.4205    6.0155   26.2280 O.2       1 ALC1        0.0000 
      8 O          34.5650    7.3100   25.6650 O.2       4 ALP1        0.0000 
      9 CA         33.8400    3.0980   28.6915 C.3       3 GLC5        0.0000 
     10 CA         33.1130    4.2970   27.3250 C.3       9 GLL5        0.0000 
     11 CA         34.5670    1.8990   30.0580 C.3       6 GLP5        0.0000 
     12 O          33.5165    1.8395   26.8835 O.2       1 ALC1        0.0000 
     13 O          33.0430    2.9720   27.5180 O.2       7 ALL1        0.0000 
     14 O          33.9900    0.7070   26.2490 O.2       4 ALP1        0.0000 
     15 O          34.1065    2.6730   26.4875 O.2       1 ALC1        0.0000 
     16 O          31.8655    2.1565   27.4710 O.2       1 ALC1        0.0000 
     17 O          30.6880    1.3410   27.4240 O.2       4 ALP1        0.0000 
     18 CA         30.3440    2.7990   27.4125 C.3       3 GLC5        0.0000 
     19 CA         30.9620    4.5500   28.4020 C.3       9 GLL5        0.0000 
     20 CA         29.7260    1.0480   26.4230 C.3       6 GLP5        0.0000 
     21 CA         27.8245    7.5700   26.5520 C.3       3 GLC5        0.0000 
     22 CA         28.3800    7.3430   28.4950 C.3       9 GLL5        0.0000 
     23 CA         27.2690    7.7970   24.6090 C.3       6 GLP5        0.0000 
     24 CA         26.3765    6.6970   29.2290 C.3       3 GLC5        0.0000 
     25 CA         24.3730    6.0510   29.9630 C.3       6 GLP5        0.0000 
     26 CA         29.5880   10.3720   33.0300 C.3       3 GLC5        0.0000 
     27 CA         28.9360   10.1550   30.9410 C.3       9 GLL5        0.0000 
     28 CA         30.2400   10.5890   35.1190 C.3       6 GLP5        0.0000 
     29 CA         30.2810    8.9480   32.0815 C.3       3 GLC5        0.0000 
     30 CA         31.6260    7.7410   33.2220 C.3       6 GLP5        0.0000 
     31 N          32.4115    8.3590   30.7875 N.am      2 SEC2        0.0000 
     32 N          31.5510    9.6390   30.6300 N.am      8 SEL2        0.0000 
     33 N          33.2720    7.0790   30.9450 N.am      5 SEP2        0.0000 
     34 CA         34.2070   12.1590   33.4840 C.3       3 GLC5        0.0000 
     35 CA         33.0280   12.0850   32.0660 C.3       9 GLL5        0.0000 
     36 CA         35.3860   12.2330   34.9020 C.3       6 GLP5        0.0000 
     37 CA         31.6340   11.3370   33.5925 C.3       3 GLC5        0.0000 
     38 N          30.8765   11.7835   33.7050 N.am      2 SEC2        0.0000 
     39 N          32.0730   12.0210   33.0980 N.am      8 SEL2        0.0000 
     40 N          29.6800   11.5460   34.3120 N.am      5 SEP2        0.0000 
     41 O          32.7430   11.4470   34.0390 O.2       1 ALC1        0.0000 
     42 O          32.0730   12.0210   33.0980 O.2       7 ALL1        0.0000 
     43 O          33.4130   10.8730   34.9800 O.2       4 ALP1        0.0000 
     44 N          35.3570   10.4545   27.0040 N.am      2 SEC2        0.0000 
     45 N          34.5830   11.5010   27.7120 N.am      8 SEL2        0.0000 
     46 N          36.1310    9.4080   26.2960 N.am      5 SEP2        0.0000 
     47 CA         26.0825   10.3645   31.9505 C.3       3 GLC5        0.0000 
     48 CA         27.6060   10.7720   31.3850 C.3       9 GLL5        0.0000 
     49 CA         24.5590    9.9570   32.5160 C.3       6 GLP5        0.0000 
     50 CA         30.8715    5.3522   25.8545 C.3       3 GLC5        0.0000 
     51 CA         32.0250    5.1160   27.6680 C.3       9 GLL5        0.0000 
     52 CA         29.7570    4.9110   24.2250 C.3       6 GLP5        0.0000 
     53 CA         33.3850    6.1749   28.8306 C.3       3 GLC5        0.0000 
     54 CA         31.9470    6.4710   27.3000 C.3       9 GLL5        0.0000 
     55 CA         34.5120    6.7610   30.2630 C.3       6 GLP5        0.0000 
     56 CA         31.8183    6.8282   25.3808 C.3       3 GLC5        0.0000 
     57 CA         32.2890    6.8370   23.3440 C.3       6 GLP5        0.0000 
     58 CA         29.9820    5.8957   26.0548 C.3       3 GLC5        0.0000 
     59 CA         30.7480    7.1680   27.5350 C.3       9 GLL5        0.0000 
     60 CA         30.0710    4.9130   26.3865 C.3       3 GLC5        0.0000 
     61 CA         29.8080    5.2800   28.6940 C.3       9 GLL5        0.0000 
     62 CA         29.0275    3.6965   29.0630 C.3       3 GLC5        0.0000 
     63 CA         27.6700    2.4780   29.5780 C.3       6 GLP5        0.0000 
     64 CA         30.8077    5.9436   30.3210 C.3       3 GLC5        0.0000 
     65 CA         31.2660    6.6440   32.2090 C.3       6 GLP5        0.0000 
     66 CA         30.3538   10.2772   24.9868 C.3       3 GLC5        0.0000 
     67 CA         31.8740   10.9070   26.1030 C.3       9 GLL5        0.0000 
     68 CA         28.4840   10.0570   24.3170 C.3       6 GLP5        0.0000 
     69 CA         34.2930    9.6997   24.7203 C.3       3 GLC5        0.0000 
     70 CA         32.5730   10.0880   25.2100 C.3       9 GLL5        0.0000 
     71 CA         35.9600    9.1000   24.8940 C.3       6 GLP5        0.0000 
     72 CA         32.4575    8.5682   23.9453 C.3       3 GLC5        0.0000 
     73 CA         30.4370   10.5850   23.9940 C.3       3 GLC5        0.0000 
     74 CA         32.6790   10.5110   23.8830 C.3       9 GLL5        0.0000 
     75 CA         29.8560   11.1517   24.6555 C.3       3 GLC5        0.0000 
     76 CA         31.3260   12.4830   24.3410 C.3       9 GLL5        0.0000 
@<TRIPOS>BOND
@<TRIPOS>SUBSTRUCTURE
     1 ALC1        1 GROUP        1 X    ALC  0     ROOT ALC X 1
     2 SEC2       31 GROUP        1 X    SEC  0     **** SEC X 2
     3 GLC5        9 GROUP        1 X    GLC  0     **** GLC X 6
     4 ALP1        3 GROUP        1 Y    ALP  0     ROOT ALP Y 8
     5 SEP2       33 GROUP        1 Y    SEP  0     **** SEP Y 9
     6 GLP5       11 GROUP        1 Y    GLP  0     **** GLP Y 13
     7 ALL1        2 GROUP        1 Z    ALL  0     ROOT ALL Z 15
     8 SEL2       32 GROUP        1 Z    SEL  0     **** SEL Z 16
     9 GLL5       10 GROUP        1 Z    GLL  0     **** GLL Z 20
@<TRIPOS>SET

