#    Name: 1w11_SK1_1_ligand
#    Modification time : Tue Mar 25 08:26:23 2014

@<TRIPOS>MOLECULE
1w11_SK1_1_ligand
   60    61     1     0     0
SMALL
NO_CHARGES


@<TRIPOS>ATOM
      1 N3         28.4620    8.1490   29.6750 N.am      1 SK11247     0.0000 
      2 N5         34.2760    4.7210   26.7910 N.pl3     1 SK11247     0.0000 
      3 C18        33.1130    4.2970   27.3250 C.2       1 SK11247     0.0000 
      4 N4         33.0430    2.9720   27.5180 N.pl3     1 SK11247     0.0000 
      5 C14        32.0250    5.1160   27.6680 C.ar      1 SK11247     0.0000 
      6 C13        31.9470    6.4710   27.3000 C.ar      1 SK11247     0.0000 
      7 C12        30.7480    7.1680   27.5350 C.ar      1 SK11247     0.0000 
      8 C17        29.6660    6.5930   28.2340 C.ar      1 SK11247     0.0000 
      9 C16        29.8080    5.2800   28.6940 C.ar      1 SK11247     0.0000 
     10 C15        30.9620    4.5500   28.4020 C.ar      1 SK11247     0.0000 
     11 C11        28.3800    7.3430   28.4950 C.3       1 SK11247     0.0000 
     12 C10        28.8020    9.4820   29.6000 C.2       1 SK11247     0.0000 
     13 O5         29.0000   10.0970   28.5810 O.2       1 SK11247     0.0000 
     14 C8         28.9360   10.1550   30.9410 C.3       1 SK11247     0.0000 
     15 N2         29.9270   11.1780   30.9750 N.am      1 SK11247     0.0000 
     16 C7         31.2390   10.8040   30.7810 C.2       1 SK11247     0.0000 
     17 O4         31.5510    9.6390   30.6300 O.2       1 SK11247     0.0000 
     18 C5         32.2790   11.9060   30.7370 C.3       1 SK11247     0.0000 
     19 C6         33.0280   12.0850   32.0660 C.3       1 SK11247     0.0000 
     20 O3         32.0730   12.0210   33.0980 O.3       1 SK11247     0.0000 
     21 N1         33.3060   11.6510   29.7850 N.pl3     1 SK11247     0.0000 
     22 S1         33.2070   11.7830   28.1520 S.o2      1 SK11247     0.0000 
     23 O1         34.5830   11.5010   27.7120 O.2       1 SK11247     0.0000 
     24 O2         32.7600   13.1350   27.9210 O.2       1 SK11247     0.0000 
     25 C1         31.9210   10.6550   27.5940 C.3       1 SK11247     0.0000 
     26 C4         31.8740   10.9070   26.1030 C.ar      1 SK11247     0.0000 
     27 C19        32.5730   10.0880   25.2100 C.ar      1 SK11247     0.0000 
     28 C20        32.6790   10.5110   23.8830 C.ar      1 SK11247     0.0000 
     29 C21        32.1010   11.7150   23.4590 C.ar      1 SK11247     0.0000 
     30 C2         31.3260   12.4830   24.3410 C.ar      1 SK11247     0.0000 
     31 C3         31.1300   12.0100   25.6470 C.ar      1 SK11247     0.0000 
     32 C22        27.6060   10.7720   31.3850 C.3       1 SK11247     0.0000 
     33 H          28.2596    7.7042   30.5823 H         1 SK11247     0.0000 
     34 H          34.3351    5.6976   26.5844 H         1 SK11247     0.0000 
     35 H          34.9760    4.0211   26.6490 H         1 SK11247     0.0000 
     36 H          32.1691    2.6220   27.8551 H         1 SK11247     0.0000 
     37 H          33.8711    2.4523   27.3076 H         1 SK11247     0.0000 
     38 H          32.7402    6.9371   26.8732 H         1 SK11247     0.0000 
     39 H          30.6543    8.1405   27.1821 H         1 SK11247     0.0000 
     40 H          29.0573    4.8502   29.2508 H         1 SK11247     0.0000 
     41 H          31.0448    3.5720   28.7286 H         1 SK11247     0.0000 
     42 H          28.1581    7.9603   27.6041 H         1 SK11247     0.0000 
     43 H          27.5625    6.6017   28.5734 H         1 SK11247     0.0000 
     44 H          29.1740    9.3804   31.6907 H         1 SK11247     0.0000 
     45 H          29.6556   12.1356   31.1369 H         1 SK11247     0.0000 
     46 H          31.7961   12.8536   30.5190 H         1 SK11247     0.0000 
     47 H          33.5386   13.0453   32.0260 H         1 SK11247     0.0000 
     48 H          33.7703   11.2917   32.1316 H         1 SK11247     0.0000 
     49 H          34.2576   11.3414   30.0799 H         1 SK11247     0.0000 
     50 H          31.0862   10.9913   28.1070 H         1 SK11247     0.0000 
     51 H          32.3033    9.7283   27.8552 H         1 SK11247     0.0000 
     52 H          32.9876    9.2185   25.5160 H         1 SK11247     0.0000 
     53 H          33.1916    9.9279   23.2014 H         1 SK11247     0.0000 
     54 H          32.2455   12.0389   22.4939 H         1 SK11247     0.0000 
     55 H          30.9166   13.3607   24.0409 H         1 SK11247     0.0000 
     56 H          30.4534   12.4615   26.2625 H         1 SK11247     0.0000 
     57 H          27.6832   11.2193   32.2760 H         1 SK11247     0.0000 
     58 H          27.2823   11.4621   30.7377 H         1 SK11247     0.0000 
     59 H          26.8852   10.0834   31.4642 H         1 SK11247     0.0000 
     60 H          32.3417   11.2320   33.6505 H         1 SK11247     0.0000 
@<TRIPOS>BOND
     1   11    1 1    
     2   12    1 am   
     3   33    1 1    
     4    3    2 2    
     5   34    2 1    
     6   35    2 1    
     7    4    3 1    
     8    5    3 1    
     9   36    4 1    
    10   37    4 1    
    11    6    5 ar   
    12   10    5 ar   
    13    7    6 ar   
    14   38    6 1    
    15    8    7 ar   
    16   39    7 1    
    17    9    8 ar   
    18   11    8 1    
    19   10    9 ar   
    20   40    9 1    
    21   41   10 1    
    22   42   11 1    
    23   43   11 1    
    24   13   12 2    
    25   14   12 1    
    26   15   14 1    
    27   32   14 1    
    28   44   14 1    
    29   16   15 am   
    30   45   15 1    
    31   17   16 2    
    32   18   16 1    
    33   19   18 1    
    34   21   18 1    
    35   46   18 1    
    36   20   19 1    
    37   47   19 1    
    38   48   19 1    
    39   60   20 1    
    40   22   21 1    
    41   49   21 1    
    42   23   22 2    
    43   24   22 2    
    44   25   22 1    
    45   26   25 1    
    46   50   25 1    
    47   51   25 1    
    48   27   26 ar   
    49   31   26 ar   
    50   28   27 ar   
    51   52   27 1    
    52   29   28 ar   
    53   53   28 1    
    54   30   29 ar   
    55   54   29 1    
    56   31   30 ar   
    57   55   30 1    
    58   56   31 1    
    59   57   32 1    
    60   58   32 1    
    61   59   32 1    
@<TRIPOS>SUBSTRUCTURE
     1 SK11247     1 GROUP   
@<TRIPOS>SET

