#    Name: 3gru_AMP_1_INTS_M
#    Modification time : Tue Mar 25 12:54:13 2014

@<TRIPOS>MOLECULE
3gru_AMP_1_INTS_M
   48     0     9     0     0
SMALL
NO_CHARGES


@<TRIPOS>ATOM
      1 CA         24.1170   23.3745   15.3195 C.3       3 GLC5        0.0000 
      2 CA         23.4020   22.7690   13.5320 C.3       9 GLL5        0.0000 
      3 CA         24.8320   23.9800   17.1070 C.3       6 GLP5        0.0000 
      4 CA         22.8985   24.0155   15.3275 C.3       3 GLC5        0.0000 
      5 CA         22.4000   23.8420   13.1550 C.3       9 GLL5        0.0000 
      6 CA         23.3970   24.1890   17.5000 C.3       6 GLP5        0.0000 
      7 CA         23.5810   23.5125   10.4910 C.3       3 GLC5        0.0000 
      8 CA         23.1320   24.7980   12.2160 C.3       9 GLL5        0.0000 
      9 CA         24.0300   22.2270    8.7660 C.3       6 GLP5        0.0000 
     10 O          20.4810   27.0670   12.1310 O.2       1 ALC1        0.0000 
     11 O          21.5500   26.4890   11.6920 O.2       7 ALL1        0.0000 
     12 O          19.4120   27.6450   12.5700 O.2       4 ALP1        0.0000 
     13 CA         22.7130   25.0910   15.7520 C.3       3 GLC5        0.0000 
     14 CA         22.0290   25.9930   14.0040 C.3       9 GLL5        0.0000 
     15 CA         23.4300   30.4445   16.6885 C.3       3 GLC5        0.0000 
     16 CA         23.2330   28.7300   17.8280 C.3       9 GLL5        0.0000 
     17 CA         23.6270   32.1590   15.5490 C.3       6 GLP5        0.0000 
     18 CA         22.3990   30.6760   18.3575 C.3       3 GLC5        0.0000 
     19 CA         21.5650   32.6220   18.8870 C.3       6 GLP5        0.0000 
     20 CA         22.0490   28.6245   19.6450 C.3       3 GLC5        0.0000 
     21 CA         20.8650   28.5190   21.4620 C.3       6 GLP5        0.0000 
     22 CA         23.8010   27.4095   19.4830 C.3       3 GLC5        0.0000 
     23 CA         24.3690   26.0890   21.1380 C.3       6 GLP5        0.0000 
     24 O          24.1400   30.5575   19.2990 O.2       1 ALC1        0.0000 
     25 O          24.2660   29.2310   18.5140 O.2       7 ALL1        0.0000 
     26 O          24.0140   31.8840   20.0840 O.2       4 ALP1        0.0000 
     27 N          21.6155   29.8445   19.2925 N.am      2 SEC2        0.0000 
     28 N          21.9610   28.9790   18.2030 N.am      8 SEL2        0.0000 
     29 N          21.2700   30.7100   20.3820 N.am      5 SEP2        0.0000 
     30 CA         20.6120   26.7750   18.7865 C.3       3 GLC5        0.0000 
     31 CA         20.9310   28.4890   17.5170 C.3       9 GLL5        0.0000 
     32 CA         20.2930   25.0610   20.0560 C.3       6 GLP5        0.0000 
     33 CA         19.3065   29.2035   18.6505 C.3       3 GLC5        0.0000 
     34 CA         17.6820   29.9180   19.7840 C.3       6 GLP5        0.0000 
     35 CA         19.1735   28.5660   16.4605 C.3       3 GLC5        0.0000 
     36 CA         17.4160   28.6430   15.4040 C.3       6 GLP5        0.0000 
     37 CA         21.2810   29.6880   16.0525 C.3       3 GLC5        0.0000 
     38 CA         21.6310   30.8870   14.5880 C.3       6 GLP5        0.0000 
     39 CA         21.2480   30.5555   18.2020 C.3       3 GLC5        0.0000 
     40 CA         20.8980   28.5040   19.4895 C.3       3 GLC5        0.0000 
     41 N          20.2385   28.8020   15.5340 N.am      2 SEC2        0.0000 
     42 N          21.1240   27.7240   16.4470 N.am      8 SEL2        0.0000 
     43 N          19.3530   29.8800   14.6210 N.am      5 SEP2        0.0000 
     44 CA         22.3475   28.0405   13.4358 C.3       3 GLC5        0.0000 
     45 CA         22.3810   30.0010   13.5750 C.3       6 GLP5        0.0000 
     46 CA         22.6495   28.8402   14.9710 C.3       3 GLC5        0.0000 
     47 CA         22.3720   27.4300   16.0230 C.3       9 GLL5        0.0000 
     48 CA         23.1575   25.9342   16.9335 C.3       3 GLC5        0.0000 
@<TRIPOS>BOND
@<TRIPOS>SUBSTRUCTURE
     1 ALC1       10 GROUP        1 X    ALC  0     ROOT ALC X 1
     2 SEC2       27 GROUP        1 X    SEC  0     **** SEC X 2
     3 GLC5        1 GROUP        1 X    GLC  0     **** GLC X 6
     4 ALP1       12 GROUP        1 Y    ALP  0     ROOT ALP Y 8
     5 SEP2       29 GROUP        1 Y    SEP  0     **** SEP Y 9
     6 GLP5        3 GROUP        1 Y    GLP  0     **** GLP Y 13
     7 ALL1       11 GROUP        1 Z    ALL  0     ROOT ALL Z 15
     8 SEL2       28 GROUP        1 Z    SEL  0     **** SEL Z 16
     9 GLL5        2 GROUP        1 Z    GLL  0     **** GLL Z 20
@<TRIPOS>SET

