#    Name: 3gru_AMP_1_ligand
#    Modification time : Tue Mar 25 12:54:13 2014

@<TRIPOS>MOLECULE
3gru_AMP_1_ligand
   35    37     1     0     0
SMALL
NO_CHARGES


@<TRIPOS>ATOM
      1 P          25.9740   22.9320   13.0790 P.3       1 AMP300      0.0000 
      2 O1P        26.2970   23.7410   11.8750 O.co2     1 AMP300      0.0000 
      3 O2P        27.1570   22.9610   14.1850 O.co2     1 AMP300      0.0000 
      4 O3P        25.7510   21.3730   12.7090 O.co2     1 AMP300      0.0000 
      5 O5'        24.6470   23.3760   13.8490 O.3       1 AMP300      0.0000 
      6 C5'        23.4020   22.7690   13.5320 C.3       1 AMP300      0.0000 
      7 C4'        22.4000   23.8420   13.1550 C.3       1 AMP300      0.0000 
      8 O4'        22.0930   24.5860   14.3520 O.3       1 AMP300      0.0000 
      9 C3'        23.1320   24.7980   12.2160 C.3       1 AMP300      0.0000 
     10 O3'        22.7840   24.4940   10.8610 O.3       1 AMP300      0.0000 
     11 C2'        22.5990   26.1670   12.5890 C.3       1 AMP300      0.0000 
     12 O2'        21.5500   26.4890   11.6920 O.3       1 AMP300      0.0000 
     13 C1'        22.0290   25.9930   14.0040 C.3       1 AMP300      0.0000 
     14 N9         22.8510   26.7170   15.0060 N.pl3     1 AMP300      0.0000 
     15 C8         24.1870   26.7590   15.0520 C.2       1 AMP300      0.0000 
     16 N7         24.5650   27.4970   16.0950 N.2       1 AMP300      0.0000 
     17 C5         23.4640   27.9290   16.7110 C.ar      1 AMP300      0.0000 
     18 C6         23.2330   28.7300   17.8280 C.ar      1 AMP300      0.0000 
     19 N6         24.2660   29.2310   18.5140 N.pl3     1 AMP300      0.0000 
     20 N1         21.9610   28.9790   18.2030 N.ar      1 AMP300      0.0000 
     21 C2         20.9310   28.4890   17.5170 C.ar      1 AMP300      0.0000 
     22 N3         21.1240   27.7240   16.4470 N.ar      1 AMP300      0.0000 
     23 C4         22.3720   27.4300   16.0230 C.ar      1 AMP300      0.0000 
     24 H          22.9939   22.2087   14.3820 H         1 AMP300      0.0000 
     25 H          23.4902   22.0763   12.6861 H         1 AMP300      0.0000 
     26 H          21.5784   23.4368   12.6911 H         1 AMP300      0.0000 
     27 H          24.1582   24.7548   12.4144 H         1 AMP300      0.0000 
     28 H          23.3794   26.8544   12.6108 H         1 AMP300      0.0000 
     29 H          21.0274   26.3411   14.0234 H         1 AMP300      0.0000 
     30 H          24.7868   26.3184   14.4209 H         1 AMP300      0.0000 
     31 H          25.1758   29.0143   18.1601 H         1 AMP300      0.0000 
     32 H          24.0359   29.7774   19.3193 H         1 AMP300      0.0000 
     33 H          19.9477   28.7113   17.8273 H         1 AMP300      0.0000 
     34 H          22.0445   25.1282   10.6353 H         1 AMP300      0.0000 
     35 H          20.8566   26.9381   12.2554 H         1 AMP300      0.0000 
@<TRIPOS>BOND
     1    2    1 ar   
     2    3    1 ar   
     3    4    1 ar   
     4    5    1 1    
     5    6    5 1    
     6    7    6 1    
     7   24    6 1    
     8   25    6 1    
     9    8    7 1    
    10    9    7 1    
    11   26    7 1    
    12   13    8 1    
    13   10    9 1    
    14   11    9 1    
    15   27    9 1    
    16   34   10 1    
    17   12   11 1    
    18   13   11 1    
    19   28   11 1    
    20   35   12 1    
    21   14   13 1    
    22   29   13 1    
    23   15   14 1    
    24   23   14 1    
    25   16   15 2    
    26   30   15 1    
    27   17   16 1    
    28   18   17 ar   
    29   23   17 ar   
    30   19   18 1    
    31   20   18 ar   
    32   31   19 1    
    33   32   19 1    
    34   21   20 ar   
    35   22   21 ar   
    36   33   21 1    
    37   23   22 ar   
@<TRIPOS>SUBSTRUCTURE
     1 AMP300      1 GROUP   
@<TRIPOS>SET

