#    Name: 2HL4_1_CAVITY_N1_6.mol2
#    Modification time : Mon Mar 10 16:57:55 2014

@<TRIPOS>MOLECULE
2HL4_1_CAVITY_N1_6.mol2
   89     0     6     0     0
SMALL
NO_CHARGES


@<TRIPOS>ATOM
      1 CA         -1.8262    7.1719   14.5475 C.3       5 GLY6        0.0000 
      2 CZ         -3.0768    7.9606   14.2946 C.ar      4 PHE5        0.0000 
      3 CA         -0.5728    5.9293   13.3706 C.3       5 GLY6        0.0000 
      4 CA         -1.8234    6.7181   13.1178 C.3       5 GLY6        0.0000 
      5 N           0.6835    4.2330   10.7641 N.2       2 ALA2        0.0000 
      6 DU          0.6864    3.7792    9.3344 H         6 CUB7        0.0000 
      7 DU         -0.5642    4.5679    9.0815 H         6 CUB7        0.0000 
      8 CA         -1.4039    5.1907   15.1772 C.3       5 GLY6        0.0000 
      9 CA         -2.6545    5.9794   14.9243 C.3       5 GLY6        0.0000 
     10 CZ         -3.9051    6.7682   14.6715 C.ar      4 PHE5        0.0000 
     11 N          -1.4011    4.7369   13.7475 N.2       2 ALA2        0.0000 
     12 DU         -2.6516    5.5256   13.4946 H         6 CUB7        0.0000 
     13 CZ         -3.9022    6.3144   13.2418 C.ar      4 PHE5        0.0000 
     14 CZ         -5.1528    7.1031   12.9889 C.ar      4 PHE5        0.0000 
     15 N          -1.3982    4.2831   12.3178 N.2       2 ALA2        0.0000 
     16 DU         -2.6488    5.0718   12.0649 H         6 CUB7        0.0000 
     17 DU         -3.8994    5.8606   11.8121 H         6 CUB7        0.0000 
     18 CZ         -0.1448    3.0405   11.1409 C.ar      4 PHE5        0.0000 
     19 DU         -1.3953    3.8293   10.8881 H         6 CUB7        0.0000 
     20 DU         -2.6459    4.6180   10.6352 H         6 CUB7        0.0000 
     21 DU         -3.8965    5.4068   10.3823 H         6 CUB7        0.0000 
     22 CZ         -0.1419    2.5867    9.7112 C.ar      4 PHE5        0.0000 
     23 O          -1.3925    3.3755    9.4584 O.2       2 ALA2        0.0000 
     24 O          -2.6430    4.1642    9.2055 O.2       2 ALA2        0.0000 
     25 N          -3.8936    4.9530    8.9526 N.2       2 ALA2        0.0000 
     26 O          -2.6402    3.7104    7.7758 O.2       2 ALA2        0.0000 
     27 CA         -2.2322    3.9982   15.5540 C.3       5 GLY6        0.0000 
     28 CA         -3.4828    4.7870   15.3012 C.3       5 GLY6        0.0000 
     29 CA         -4.7334    5.5757   15.0483 C.3       5 GLY6        0.0000 
     30 OG         -2.2294    3.5444   14.1243 O.2       1 SER1        0.0000 
     31 DU         -3.4799    4.3332   13.8714 H         6 CUB7        0.0000 
     32 DU         -4.7305    5.1219   13.6186 H         6 CUB7        0.0000 
     33 CZ         -5.9811    5.9107   13.3657 C.ar      4 PHE5        0.0000 
     34 CZ         -7.2316    6.6994   13.1129 C.ar      4 PHE5        0.0000 
     35 OG         -2.2265    3.0906   12.6946 O.2       1 SER1        0.0000 
     36 DU         -3.4771    3.8794   12.4417 H         6 CUB7        0.0000 
     37 O          -4.7276    4.6681   12.1889 O.2       2 ALA2        0.0000 
     38 O          -5.9782    5.4569   11.9360 O.2       2 ALA2        0.0000 
     39 OG         -0.9731    1.8481   11.5178 O.2       1 SER1        0.0000 
     40 OG         -2.2236    2.6368   11.2649 O.2       1 SER1        0.0000 
     41 DU         -3.4742    3.4256   11.0120 H         6 CUB7        0.0000 
     42 O          -4.7248    4.2143   10.7592 O.2       2 ALA2        0.0000 
     43 CZ         -0.9702    1.3943   10.0880 C.ar      4 PHE5        0.0000 
     44 O          -2.2208    2.1830    9.8352 O.2       2 ALA2        0.0000 
     45 O          -3.4713    2.9718    9.5823 O.2       2 ALA2        0.0000 
     46 CA         -3.0605    2.8057   15.9308 C.3       5 GLY6        0.0000 
     47 CA         -4.3111    3.5945   15.6780 C.3       5 GLY6        0.0000 
     48 CA         -5.5616    4.3833   15.4251 C.3       5 GLY6        0.0000 
     49 CA         -6.8122    5.1720   15.1723 C.3       5 GLY6        0.0000 
     50 OG         -3.0576    2.3520   14.5011 O.2       1 SER1        0.0000 
     51 DU         -4.3082    3.1407   14.2483 H         6 CUB7        0.0000 
     52 O          -5.5588    3.9295   13.9954 O.2       2 ALA2        0.0000 
     53 O          -6.8094    4.7182   13.7426 O.2       2 ALA2        0.0000 
     54 OG         -3.0548    1.8982   13.0714 O.2       1 SER1        0.0000 
     55 DU         -4.3053    2.6869   12.8186 H         6 CUB7        0.0000 
     56 O          -5.5559    3.4757   12.5657 O.2       2 ALA2        0.0000 
     57 OG         -1.8013    0.6556   11.8946 O.2       1 SER1        0.0000 
     58 OG         -3.0519    1.4444   11.6417 O.2       1 SER1        0.0000 
     59 O          -4.3025    2.2331   11.3889 O.2       2 ALA2        0.0000 
     60 CA         -1.7985    0.2018   10.4649 C.3       5 GLY6        0.0000 
     61 O          -3.0490    0.9906   10.2120 O.2       2 ALA2        0.0000 
     62 O          -4.2996    1.7793    9.9592 O.2       2 ALA2        0.0000 
     63 CA         -6.3928    3.6446   17.2317 C.3       5 GLY6        0.0000 
     64 O          -3.8888    1.6133   16.3077 O.2       2 ALA2        0.0000 
     65 CA         -5.1394    2.4020   16.0548 C.3       5 GLY6        0.0000 
     66 CA         -6.3899    3.1908   15.8020 C.3       5 GLY6        0.0000 
     67 OG         -3.8859    1.1595   14.8780 O.2       1 SER1        0.0000 
     68 N          -5.1365    1.9483   14.6251 N.2       2 ALA2        0.0000 
     69 CA         -6.3871    2.7370   14.3723 C.3       5 GLY6        0.0000 
     70 OG         -3.8831    0.7057   13.4483 O.2       1 SER1        0.0000 
     71 N          -5.1336    1.4945   13.1954 N.2       2 ALA2        0.0000 
     72 CA         -2.6296   -0.5368   12.2714 C.3       5 GLY6        0.0000 
     73 CA         -3.8802    0.2519   12.0186 C.3       5 GLY6        0.0000 
     74 N          -5.1308    1.0407   11.7657 N.2       2 ALA2        0.0000 
     75 CA         -2.6268   -0.9906   10.8417 C.3       5 GLY6        0.0000 
     76 O          -3.8773   -0.2019   10.5888 O.2       2 ALA2        0.0000 
     77 O          -5.1279    0.5869   10.3360 O.2       2 ALA2        0.0000 
     78 CA         -5.9705    1.6634   17.8614 C.3       5 GLY6        0.0000 
     79 CA         -7.2211    2.4521   17.6085 C.3       5 GLY6        0.0000 
     80 OG         -4.7171    0.4208   16.6845 O.2       1 SER1        0.0000 
     81 OD1        -5.9676    1.2096   16.4316 O.3       3 ASP3        0.0000 
     82 CA         -7.2182    1.9983   16.1788 C.3       5 GLY6        0.0000 
     83 OD1        -4.7142   -0.0329   15.2548 O.3       3 ASP3        0.0000 
     84 OD1        -5.9648    0.7558   15.0019 O.3       3 ASP3        0.0000 
     85 OD1        -4.7113   -0.4867   13.8251 O.3       3 ASP3        0.0000 
     86 CA         -3.4579   -1.7293   12.6482 C.3       5 GLY6        0.0000 
     87 N          -4.7085   -0.9405   12.3954 N.2       2 ALA2        0.0000 
     88 CA         -3.4550   -2.1831   11.2185 C.3       5 GLY6        0.0000 
     89 CA         -4.7056   -1.3943   10.9657 C.3       5 GLY6        0.0000 
@<TRIPOS>BOND
@<TRIPOS>SUBSTRUCTURE
     1 SER1       30 GROUP   
     2 ALA2        5 GROUP   
     3 ASP3       81 GROUP   
     4 PHE5        2 GROUP   
     5 GLY6        1 GROUP   
     6 CUB7        6 GROUP   
@<TRIPOS>SET

