#    Name: 2hl4_BO1_1_INTS_M
#    Modification time : Tue Mar 25 16:41:12 2014

@<TRIPOS>MOLECULE
2hl4_BO1_1_INTS_M
   42     0    12     0     0
SMALL
NO_CHARGES


@<TRIPOS>ATOM
      1 N          -4.1090    0.6925   18.4655 N.am      2 SEC2        0.0000 
      2 N          -5.4260    1.0860   18.0080 N.am     10 SEL2        0.0000 
      3 N          -2.7920    0.2990   18.9230 N.am      6 SEP2        0.0000 
      4 O          -4.6160   -1.2735   16.8145 O.2       1 ALC1        0.0000 
      5 O          -5.4870   -0.4620   16.1140 O.2       9 ALL1        0.0000 
      6 O          -3.7450   -2.0850   17.5150 O.2       5 ALP1        0.0000 
      7 Zn         -6.1140   -1.0540   15.6825 Zn        3 ZIC7        0.0000 
      8 Zn         -5.4870   -0.4620   16.1140 Zn       11 ZIL7        0.0000 
      9 Zn         -6.7410   -1.6460   15.2510 Zn        7 ZIP7        0.0000 
     10 CA         -7.9455    3.3265   14.9870 C.3       4 GLC5        0.0000 
     11 CA         -6.0080    3.3220   15.2590 C.3      12 GLL5        0.0000 
     12 CA         -9.8830    3.3310   14.7150 C.3       8 GLP5        0.0000 
     13 CA         -1.7715    1.5110   14.6435 C.3       4 GLC5        0.0000 
     14 CA         -3.2600    3.1490   14.6640 C.3      12 GLL5        0.0000 
     15 CA         -0.2830   -0.1270   14.6230 C.3       8 GLP5        0.0000 
     16 CA         -2.6315    0.5060   14.9420 C.3       4 GLC5        0.0000 
     17 CA         -3.8660    2.1560   15.4160 C.3      12 GLL5        0.0000 
     18 CA         -1.3970   -1.1440   14.4680 C.3       8 GLP5        0.0000 
     19 CA         -4.9140    7.5765   14.2890 C.3       4 GLC5        0.0000 
     20 CA         -3.8590    6.5120   13.1010 C.3      12 GLL5        0.0000 
     21 CA         -5.9690    8.6410   15.4770 C.3       8 GLP5        0.0000 
     22 CA         -5.8330    8.1470   13.7105 C.3       4 GLC5        0.0000 
     23 CA         -5.6970    7.6530   11.9440 C.3      12 GLL5        0.0000 
     24 CA         -8.2930    8.8785   11.2455 C.3       4 GLC5        0.0000 
     25 CA         -6.9700    7.3730   11.1970 C.3      12 GLL5        0.0000 
     26 CA         -9.6160   10.3840   11.2940 C.3       8 GLP5        0.0000 
     27 CA         -8.4515    6.2650   10.9870 C.3       4 GLC5        0.0000 
     28 CA         -9.9330    5.1570   10.7770 C.3       8 GLP5        0.0000 
     29 CA         -7.1520    8.1160   13.2565 C.3       4 GLC5        0.0000 
     30 CA         -7.3340    8.8590   15.3160 C.3       8 GLP5        0.0000 
     31 N          -7.2895    5.1885   10.5635 N.am      2 SEC2        0.0000 
     32 N          -6.7370    6.4480   10.1410 N.am     10 SEL2        0.0000 
     33 N          -7.8420    3.9290   10.9860 N.am      6 SEP2        0.0000 
     34 CA         -5.0420    3.8905   16.8708 C.3       4 GLC5        0.0000 
     35 CA         -4.4590    5.0080   18.2490 C.3       8 GLP5        0.0000 
     36 CA         -4.5815    4.6490   16.2963 C.3       4 GLC5        0.0000 
     37 CA         -5.4050    4.3220   14.5030 C.3      12 GLL5        0.0000 
     38 CA         -3.0060    3.1248   16.8655 C.3       4 GLC5        0.0000 
     39 CA         -2.4490    3.5970   18.6910 C.3       8 GLP5        0.0000 
     40 CA         -4.4840    8.9469   13.4026 C.3       4 GLC5        0.0000 
     41 CA         -2.8340    7.3080   12.2910 C.3      12 GLL5        0.0000 
     42 CA         -5.0670    9.6620   15.1920 C.3       8 GLP5        0.0000 
@<TRIPOS>BOND
@<TRIPOS>SUBSTRUCTURE
     1 ALC1        4 GROUP        1 X    ALC  0     ROOT ALC X 1
     2 SEC2        1 GROUP        1 X    SEC  0     **** SEC X 2
     3 ZIC7        7 GROUP        1 X    ZIC  0     **** ZIC X 5
     4 GLC5       10 GROUP        1 X    GLC  0     **** GLC X 6
     5 ALP1        6 GROUP        1 Y    ALP  0     ROOT ALP Y 8
     6 SEP2        3 GROUP        1 Y    SEP  0     **** SEP Y 9
     7 ZIP7        9 GROUP        1 Y    ZIP  0     **** ZIP Y 12
     8 GLP5       12 GROUP        1 Y    GLP  0     **** GLP Y 13
     9 ALL1        5 GROUP        1 Z    ALL  0     ROOT ALL Z 15
    10 SEL2        2 GROUP        1 Z    SEL  0     **** SEL Z 16
    11 ZIL7        8 GROUP        1 Z    ZIL  0     **** ZIL Z 19
    12 GLL5       11 GROUP        1 Z    GLL  0     **** GLL Z 20
@<TRIPOS>SET

