#    Name: 2hl4_BO1_1_ligand
#    Modification time : Tue Mar 25 16:41:13 2014

@<TRIPOS>MOLECULE
2hl4_BO1_1_ligand
   39    40     1     0     0
SMALL
NO_CHARGES


@<TRIPOS>ATOM
      1 S1         -5.9720    0.9500   16.6870 S.o2      1 BO1264      0.0000 
      2 O1         -5.4260    1.0860   18.0080 O.2       1 BO1264      0.0000 
      3 O2         -7.3950    1.0440   16.5180 O.2       1 BO1264      0.0000 
      4 N1         -5.4870   -0.4620   16.1140 N.pl3     1 BO1264      0.0000 
      5 C1         -5.2420    2.2240   15.7260 C.ar      1 BO1264      0.0000 
      6 C2         -6.0080    3.3220   15.2590 C.ar      1 BO1264      0.0000 
      7 C3         -5.4050    4.3220   14.5030 C.ar      1 BO1264      0.0000 
      8 C4         -4.0030    4.2580   14.1840 C.ar      1 BO1264      0.0000 
      9 C5         -3.2600    3.1490   14.6640 C.ar      1 BO1264      0.0000 
     10 C6         -3.8660    2.1560   15.4160 C.ar      1 BO1264      0.0000 
     11 N2         -3.3500    5.2310   13.4360 N.pl3     1 BO1264      0.0000 
     12 C7         -3.8590    6.5120   13.1010 C.3       1 BO1264      0.0000 
     13 C8         -2.8340    7.3080   12.2910 C.3       1 BO1264      0.0000 
     14 C9         -3.4220    8.6770   11.9380 C.3       1 BO1264      0.0000 
     15 C10        -4.6740    8.4710   11.1120 C.3       1 BO1264      0.0000 
     16 C11        -5.6970    7.6530   11.9440 C.3       1 BO1264      0.0000 
     17 C12        -6.9700    7.3730   11.1970 C.3       1 BO1264      0.0000 
     18 O3         -5.1070    6.3680   12.3240 O.3       1 BO1264      0.0000 
     19 O4         -1.6550    7.4390   13.0930 O.3       1 BO1264      0.0000 
     20 O5         -2.4590    9.4140   11.1850 O.3       1 BO1264      0.0000 
     21 O6         -5.2430    9.7390   10.7680 O.3       1 BO1264      0.0000 
     22 O7         -6.7370    6.4480   10.1410 O.3       1 BO1264      0.0000 
     23 H          -4.6084   -0.7967   16.4546 H         1 BO1264      0.0000 
     24 H          -7.0061    3.3681   15.4850 H         1 BO1264      0.0000 
     25 H          -5.9470    5.1218   14.1595 H         1 BO1264      0.0000 
     26 H          -2.2540    3.0945   14.4419 H         1 BO1264      0.0000 
     27 H          -3.3167    1.3539   15.7585 H         1 BO1264      0.0000 
     28 H          -2.3712    5.0027   13.0741 H         1 BO1264      0.0000 
     29 H          -4.0753    7.0881   14.0010 H         1 BO1264      0.0000 
     30 H          -2.6392    6.7701   11.3849 H         1 BO1264      0.0000 
     31 H          -3.6828    9.1736   12.8484 H         1 BO1264      0.0000 
     32 H          -4.4269    7.8956   10.2426 H         1 BO1264      0.0000 
     33 H          -5.9290    8.2189   12.8380 H         1 BO1264      0.0000 
     34 H          -7.3624    8.3298   10.8143 H         1 BO1264      0.0000 
     35 H          -7.7123    6.9856   11.9145 H         1 BO1264      0.0000 
     36 H          -1.8190    8.2429   13.6647 H         1 BO1264      0.0000 
     37 H          -2.7875   10.3584   11.1988 H         1 BO1264      0.0000 
     38 H          -5.7381    9.5773    9.9143 H         1 BO1264      0.0000 
     39 H          -7.2962    6.7776    9.3803 H         1 BO1264      0.0000 
@<TRIPOS>BOND
     1    2    1 2    
     2    3    1 2    
     3    4    1 1    
     4    5    1 1    
     5   23    4 1    
     6    6    5 ar   
     7   10    5 ar   
     8    7    6 ar   
     9   24    6 1    
    10    8    7 ar   
    11   25    7 1    
    12    9    8 ar   
    13   11    8 1    
    14   10    9 ar   
    15   26    9 1    
    16   27   10 1    
    17   12   11 1    
    18   28   11 1    
    19   13   12 1    
    20   18   12 1    
    21   29   12 1    
    22   14   13 1    
    23   19   13 1    
    24   30   13 1    
    25   15   14 1    
    26   20   14 1    
    27   31   14 1    
    28   16   15 1    
    29   21   15 1    
    30   32   15 1    
    31   17   16 1    
    32   18   16 1    
    33   33   16 1    
    34   22   17 1    
    35   34   17 1    
    36   35   17 1    
    37   36   19 1    
    38   37   20 1    
    39   38   21 1    
    40   39   22 1    
@<TRIPOS>SUBSTRUCTURE
     1 BO1264      1 GROUP   
@<TRIPOS>SET

