#    Name: 3ivi_2LI_1_INTS_M
#    Modification time : Tue Mar 25 17:32:26 2014

@<TRIPOS>MOLECULE
3ivi_2LI_1_INTS_M
   79     0     9     0     0
SMALL
NO_CHARGES


@<TRIPOS>ATOM
      1 CA         13.1685   -7.8630   52.2595 C.3       3 GLC5        0.0000 
      2 CA         15.1790   -6.9490   52.0240 C.3       9 GLL5        0.0000 
      3 CA         11.1580   -8.7770   52.4950 C.3       6 GLP5        0.0000 
      4 CA          8.2945   -2.0495   46.1075 C.3       3 GLC5        0.0000 
      5 CA          8.1650   -3.0390   47.9860 C.3       9 GLL5        0.0000 
      6 CA          8.4240   -1.0600   44.2290 C.3       6 GLP5        0.0000 
      7 CA          2.1105   -0.3510   49.0900 C.3       3 GLC5        0.0000 
      8 CA          3.6170   -1.1810   48.3510 C.3       9 GLL5        0.0000 
      9 CA          0.6040    0.4790   49.8290 C.3       6 GLP5        0.0000 
     10 CA          2.2715   -2.1260   48.3440 C.3       3 GLC5        0.0000 
     11 CA          0.9260   -3.0710   48.3370 C.3       6 GLP5        0.0000 
     12 CA          7.2105   -4.2385   52.4200 C.3       3 GLC5        0.0000 
     13 CA          5.7940   -2.8110   52.2500 C.3       9 GLL5        0.0000 
     14 CA          8.6270   -5.6660   52.5900 C.3       6 GLP5        0.0000 
     15 CA          6.1665   -2.6890   54.1715 C.3       3 GLC5        0.0000 
     16 CA          6.5390   -2.5670   56.0930 C.3       6 GLP5        0.0000 
     17 CA          5.1285   -4.2715   52.3015 C.3       3 GLC5        0.0000 
     18 CA          4.4630   -5.7320   52.3530 C.3       6 GLP5        0.0000 
     19 CA          8.4140   -3.2100   51.3805 C.3       3 GLC5        0.0000 
     20 CA          6.8880   -2.8910   50.1550 C.3       9 GLL5        0.0000 
     21 CA          9.9400   -3.5290   52.6060 C.3       6 GLP5        0.0000 
     22 O           8.5280   -0.3905   47.4590 O.2       1 ALC1        0.0000 
     23 O           9.0980   -0.9260   48.7030 O.2       7 ALL1        0.0000 
     24 O           7.9580    0.1450   46.2150 O.2       4 ALP1        0.0000 
     25 CA         10.0740    1.1980   51.3875 C.3       3 GLC5        0.0000 
     26 CA          8.6680    1.1840   49.8040 C.3       9 GLL5        0.0000 
     27 CA         11.4800    1.2120   52.9710 C.3       6 GLP5        0.0000 
     28 CA          9.1555    1.7380   47.7025 C.3       3 GLC5        0.0000 
     29 CA          9.6430    2.2920   45.6010 C.3       6 GLP5        0.0000 
     30 N          10.4540   -0.9570   52.2095 N.am      2 SEC2        0.0000 
     31 N           9.5060   -0.7120   50.9230 N.am      8 SEL2        0.0000 
     32 N          11.4020   -1.2020   53.4960 N.am      5 SEP2        0.0000 
     33 CA          9.5425   -1.8370   45.9785 C.3       3 GLC5        0.0000 
     34 CA         10.6610   -2.6140   47.7280 C.3       9 GLL5        0.0000 
     35 O          10.4230   -4.6925   46.8425 O.2       1 ALC1        0.0000 
     36 O          11.0560   -3.9890   47.7650 O.2       7 ALL1        0.0000 
     37 O           9.7900   -5.3960   45.9200 O.2       4 ALP1        0.0000 
     38 O          10.6230   -3.8895   46.1400 O.2       1 ALC1        0.0000 
     39 O          10.1900   -3.7900   44.5150 O.2       4 ALP1        0.0000 
     40 N          18.2215    1.7400   50.3675 N.am      2 SEC2        0.0000 
     41 N          17.1510    1.5240   49.8870 N.am      8 SEL2        0.0000 
     42 N          19.2920    1.9560   50.8480 N.am      5 SEP2        0.0000 
     43 CA         14.5310   -2.9985   45.9720 C.3       3 GLC5        0.0000 
     44 CA         15.5100   -2.0060   47.6180 C.3       9 GLL5        0.0000 
     45 CA         13.5520   -3.9910   44.3260 C.3       6 GLP5        0.0000 
     46 CA         13.1705   -1.3480   53.1335 C.3       3 GLC5        0.0000 
     47 CA         14.5900   -2.8050   52.2350 C.3       9 GLL5        0.0000 
     48 CA         11.7510    0.1090   54.0320 C.3       6 GLP5        0.0000 
     49 CA         16.4765   -2.4600   53.1670 C.3       3 GLC5        0.0000 
     50 CA         18.3630   -2.1150   54.0990 C.3       6 GLP5        0.0000 
     51 CA         16.4485   -7.2150   47.7985 C.3       3 GLC5        0.0000 
     52 CA         15.7820   -6.6240   49.6510 C.3       9 GLL5        0.0000 
     53 CA         17.1150   -7.8060   45.9460 C.3       6 GLP5        0.0000 
     54 CA         16.9580   -5.5755   48.4940 C.3       3 GLC5        0.0000 
     55 CA         18.1340   -4.5270   47.3370 C.3       6 GLP5        0.0000 
     56 CA         12.6880   -7.1905   48.5965 C.3       3 GLC5        0.0000 
     57 CA         13.4250   -6.9030   50.2670 C.3       9 GLL5        0.0000 
     58 CA         11.9510   -7.4780   46.9260 C.3       6 GLP5        0.0000 
     59 CA         12.2915   -7.8400   51.3810 C.3       3 GLC5        0.0000 
     60 CA         11.7045   -6.0535   50.4885 C.3       3 GLC5        0.0000 
     61 CA          9.9840   -5.2040   50.7100 C.3       6 GLP5        0.0000 
     62 CA         16.4980    1.6142   47.8845 C.3       3 GLC5        0.0000 
     63 CA         15.5350    0.2800   49.1850 C.3       9 GLL5        0.0000 
     64 CA         16.8190    3.2840   46.7180 C.3       6 GLP5        0.0000 
     65 CA         12.8769   -3.4741   52.7188 C.3       3 GLC5        0.0000 
     66 CA         14.6890   -4.1830   52.1330 C.3       9 GLL5        0.0000 
     67 CA         11.1450   -3.6510   53.5400 C.3       6 GLP5        0.0000 
     68 CA          7.1282   -4.6502   47.8580 C.3       3 GLC5        0.0000 
     69 CA          6.7120   -6.4500   47.3310 C.3       6 GLP5        0.0000 
     70 CA          3.7822   -2.1965   46.8856 C.3       3 GLC5        0.0000 
     71 CA          3.1330   -2.8450   45.3140 C.3       6 GLP5        0.0000 
     72 CA          9.8531   -3.9286   49.3558 C.3       3 GLC5        0.0000 
     73 CA          9.4020   -2.3460   48.5640 C.3       9 GLL5        0.0000 
     74 CA         18.8705   -1.0110   48.0928 C.3       3 GLC5        0.0000 
     75 CA         16.8730   -1.7250   48.2520 C.3       9 GLL5        0.0000 
     76 CA         20.8950   -0.9640   47.6010 C.3       6 GLP5        0.0000 
     77 CA         17.1628   -3.1963   47.6360 C.3       3 GLC5        0.0000 
     78 CA         16.8525   -1.0090   46.5201 C.3       3 GLC5        0.0000 
     79 CA         17.5270   -0.4860   44.9390 C.3       6 GLP5        0.0000 
@<TRIPOS>BOND
@<TRIPOS>SUBSTRUCTURE
     1 ALC1       22 GROUP        1 X    ALC  0     ROOT ALC X 1
     2 SEC2       30 GROUP        1 X    SEC  0     **** SEC X 2
     3 GLC5        1 GROUP        1 X    GLC  0     **** GLC X 6
     4 ALP1       24 GROUP        1 Y    ALP  0     ROOT ALP Y 8
     5 SEP2       32 GROUP        1 Y    SEP  0     **** SEP Y 9
     6 GLP5        3 GROUP        1 Y    GLP  0     **** GLP Y 13
     7 ALL1       23 GROUP        1 Z    ALL  0     ROOT ALL Z 15
     8 SEL2       31 GROUP        1 Z    SEL  0     **** SEL Z 16
     9 GLL5        2 GROUP        1 Z    GLL  0     **** GLL Z 20
@<TRIPOS>SET

