#    Name: 3ivi_2LI_1_ligand
#    Modification time : Tue Mar 25 17:32:26 2014

@<TRIPOS>MOLECULE
3ivi_2LI_1_ligand
   72    75     1     0     0
SMALL
NO_CHARGES


@<TRIPOS>ATOM
      1 C4         15.5350    0.2800   49.1850 C.2       1 2LI1        0.0000 
      2 C5         14.1880   -0.2680   48.8130 C.3       1 2LI1        0.0000 
      3 C6         14.3000   -1.7560   48.5190 C.3       1 2LI1        0.0000 
      4 C7         14.4200   -2.5880   49.8060 C.ar      1 2LI1        0.0000 
      5 C8         14.4670   -2.0180   51.0890 C.ar      1 2LI1        0.0000 
      6 C10        14.6890   -4.1830   52.1330 C.ar      1 2LI1        0.0000 
      7 C13        14.7490   -6.2920   50.7090 C.3       1 2LI1        0.0000 
      8 C15        15.1790   -6.9490   52.0240 C.3       1 2LI1        0.0000 
      9 C20         9.4020   -2.3460   48.5640 C.3       1 2LI1        0.0000 
     10 C22         9.1380   -0.2440   49.8570 C.2       1 2LI1        0.0000 
     11 C26         8.1650   -3.0390   47.9860 C.3       1 2LI1        0.0000 
     12 C28         5.8090   -2.0830   48.1800 C.ar      1 2LI1        0.0000 
     13 F34         3.6170   -1.1810   48.3510 F         1 2LI1        0.0000 
     14 C29         4.6830   -1.7470   48.9470 C.ar      1 2LI1        0.0000 
     15 C30         4.6530   -1.9840   50.3210 C.ar      1 2LI1        0.0000 
     16 C31         5.7690   -2.5580   50.9250 C.ar      1 2LI1        0.0000 
     17 F33         5.7940   -2.8110   52.2500 F         1 2LI1        0.0000 
     18 C32         6.8880   -2.8910   50.1550 C.ar      1 2LI1        0.0000 
     19 C27         6.9240   -2.6620   48.7840 C.ar      1 2LI1        0.0000 
     20 N21         9.0980   -0.9260   48.7030 N.am      1 2LI1        0.0000 
     21 C23         8.6680    1.1840   49.8040 C.3       1 2LI1        0.0000 
     22 O25         9.5060   -0.7120   50.9230 O.2       1 2LI1        0.0000 
     23 C19        10.6610   -2.6140   47.7280 C.3       1 2LI1        0.0000 
     24 O24        11.0560   -3.9890   47.7650 O.3       1 2LI1        0.0000 
     25 C18        11.7920   -1.7540   48.2610 C.3       1 2LI1        0.0000 
     26 N17        13.1100   -2.1150   47.7740 N.4       1 2LI1        0.0000 
     27 C35        15.8150    1.4740   49.7930 C.2       1 2LI1        0.0000 
     28 C3         16.8190   -0.3910   48.9170 C.2       1 2LI1        0.0000 
     29 N37        17.8210    0.3960   49.3700 N.pl3     1 2LI1        0.0000 
     30 N36        17.1510    1.5240   49.8870 N.2       1 2LI1        0.0000 
     31 C2         16.8730   -1.7250   48.2520 C.3       1 2LI1        0.0000 
     32 C1         15.5100   -2.0060   47.6180 C.3       1 2LI1        0.0000 
     33 C9         14.5900   -2.8050   52.2350 C.ar      1 2LI1        0.0000 
     34 C11        14.6430   -4.7890   50.8660 C.ar      1 2LI1        0.0000 
     35 C12        14.5110   -3.9750   49.7230 C.ar      1 2LI1        0.0000 
     36 C16        15.7820   -6.6240   49.6510 C.3       1 2LI1        0.0000 
     37 C14        13.4250   -6.9030   50.2670 C.3       1 2LI1        0.0000 
     38 H          13.8119    0.2424   47.9285 H         1 2LI1        0.0000 
     39 H          13.4881   -0.1187   49.6328 H         1 2LI1        0.0000 
     40 H          14.4086   -0.9874   51.1828 H         1 2LI1        0.0000 
     41 H          14.7951   -4.7635   52.9692 H         1 2LI1        0.0000 
     42 H           9.5643   -2.7766   49.5645 H         1 2LI1        0.0000 
     43 H           8.3083   -4.1159   48.0259 H         1 2LI1        0.0000 
     44 H           8.0366   -2.7339   46.9505 H         1 2LI1        0.0000 
     45 H           5.8077   -1.8998   47.1688 H         1 2LI1        0.0000 
     46 H           3.8311   -1.7419   50.8709 H         1 2LI1        0.0000 
     47 H           7.7105   -3.3197   50.6219 H         1 2LI1        0.0000 
     48 H           8.8310   -0.4393   47.7992 H         1 2LI1        0.0000 
     49 H          10.4576   -2.2912   46.7116 H         1 2LI1        0.0000 
     50 H          11.7616   -1.8027   49.3751 H         1 2LI1        0.0000 
     51 H          11.5610   -0.6921   48.0089 H         1 2LI1        0.0000 
     52 H          15.1846    2.1174   50.0802 H         1 2LI1        0.0000 
     53 H          18.7342    0.2608   49.3604 H         1 2LI1        0.0000 
     54 H          17.0882   -2.4998   48.9773 H         1 2LI1        0.0000 
     55 H          17.6279   -1.7293   47.4756 H         1 2LI1        0.0000 
     56 H          15.4078   -1.3854   46.7045 H         1 2LI1        0.0000 
     57 H          15.4873   -3.0608   47.2761 H         1 2LI1        0.0000 
     58 H          14.6069   -2.3532   53.1621 H         1 2LI1        0.0000 
     59 H          14.4812   -4.4328   48.7890 H         1 2LI1        0.0000 
     60 H          16.0699   -6.6152   52.3320 H         1 2LI1        0.0000 
     61 H          14.5273   -6.7674   52.7604 H         1 2LI1        0.0000 
     62 H          15.2526   -7.9424   51.9362 H         1 2LI1        0.0000 
     63 H           8.7272    1.6279   50.6981 H         1 2LI1        0.0000 
     64 H           9.2130    1.7310   49.1685 H         1 2LI1        0.0000 
     65 H           7.7157    1.2508   49.5061 H         1 2LI1        0.0000 
     66 H          16.6898   -6.2858   49.8992 H         1 2LI1        0.0000 
     67 H          15.8652   -7.6105   49.5098 H         1 2LI1        0.0000 
     68 H          15.5505   -6.2198   48.7661 H         1 2LI1        0.0000 
     69 H          13.5012   -7.8895   50.1220 H         1 2LI1        0.0000 
     70 H          12.7053   -6.7614   50.9467 H         1 2LI1        0.0000 
     71 H          13.1003   -6.5049   49.4091 H         1 2LI1        0.0000 
     72 H          10.5413   -4.4259   47.0273 H         1 2LI1        0.0000 
@<TRIPOS>BOND
     1    2    1 1    
     2   27    1 1    
     3   28    1 2    
     4    3    2 1    
     5   38    2 1    
     6   39    2 1    
     7    4    3 1    
     8   26    3 1    
     9   32    3 1    
    10    5    4 ar   
    11   35    4 ar   
    12   33    5 ar   
    13   40    5 1    
    14   33    6 ar   
    15   34    6 ar   
    16   41    6 1    
    17    8    7 1    
    18   34    7 1    
    19   36    7 1    
    20   37    7 1    
    21   60    8 1    
    22   61    8 1    
    23   62    8 1    
    24   11    9 1    
    25   20    9 1    
    26   23    9 1    
    27   42    9 1    
    28   20   10 am   
    29   21   10 1    
    30   22   10 2    
    31   19   11 1    
    32   43   11 1    
    33   44   11 1    
    34   14   12 ar   
    35   19   12 ar   
    36   45   12 1    
    37   14   13 1    
    38   15   14 ar   
    39   16   15 ar   
    40   46   15 1    
    41   17   16 1    
    42   18   16 ar   
    43   19   18 ar   
    44   47   18 1    
    45   48   20 1    
    46   63   21 1    
    47   64   21 1    
    48   65   21 1    
    49   24   23 1    
    50   25   23 1    
    51   49   23 1    
    52   72   24 1    
    53   26   25 1    
    54   50   25 1    
    55   51   25 1    
    56   30   27 2    
    57   52   27 1    
    58   29   28 1    
    59   31   28 1    
    60   30   29 1    
    61   53   29 1    
    62   32   31 1    
    63   54   31 1    
    64   55   31 1    
    65   56   32 1    
    66   57   32 1    
    67   58   33 1    
    68   35   34 ar   
    69   59   35 1    
    70   66   36 1    
    71   67   36 1    
    72   68   36 1    
    73   69   37 1    
    74   70   37 1    
    75   71   37 1    
@<TRIPOS>SUBSTRUCTURE
     1 2LI1        1 GROUP   
@<TRIPOS>SET

