#    Name: 3lu1_UD2_4_INTS_M
#    Modification time : Mon Mar 24 22:17:53 2014

@<TRIPOS>MOLECULE
3lu1_UD2_4_INTS_M
   96     0    12     0     0
SMALL
NO_CHARGES


@<TRIPOS>ATOM
      1 CA        -29.1570  -48.5160  -15.4310 C.3       4 GLC5        0.0000 
      2 CA        -28.0600  -49.7890  -14.0750 C.3      12 GLL5        0.0000 
      3 CA        -30.2540  -47.2430  -16.7870 C.3       8 GLP5        0.0000 
      4 CA        -27.6665  -51.1945  -16.6260 C.3       4 GLC5        0.0000 
      5 CA        -27.1920  -50.9460  -14.5480 C.3      12 GLL5        0.0000 
      6 CA        -28.1410  -51.4430  -18.7040 C.3       8 GLP5        0.0000 
      7 CA        -25.5600  -48.5565  -16.0995 C.3       4 GLC5        0.0000 
      8 CA        -25.2470  -49.3860  -14.0530 C.3      12 GLL5        0.0000 
      9 CA        -25.8730  -47.7270  -18.1460 C.3       8 GLP5        0.0000 
     10 CA        -26.7555  -45.0690  -14.1895 C.3       4 GLC5        0.0000 
     11 CA        -25.8200  -46.8880  -13.5150 C.3      12 GLL5        0.0000 
     12 CA        -27.6910  -43.2500  -14.8640 C.3       8 GLP5        0.0000 
     13 CA        -23.8520  -47.8820  -13.3060 C.3       4 GLC5        0.0000 
     14 CA        -21.8840  -48.8760  -13.0970 C.3       8 GLP5        0.0000 
     15 CA        -29.5970  -54.3535  -12.3205 C.3       4 GLC5        0.0000 
     16 CA        -29.2730  -54.1110  -14.1460 C.3      12 GLL5        0.0000 
     17 CA        -29.9210  -54.5960  -10.4950 C.3       8 GLP5        0.0000 
     18 CA        -30.8205  -54.8285  -15.0110 C.3       4 GLC5        0.0000 
     19 CA        -32.3680  -55.5460  -15.8760 C.3       8 GLP5        0.0000 
     20 CA        -29.4080  -55.8645  -13.5830 C.3       4 GLC5        0.0000 
     21 CA        -29.5430  -57.6180  -13.0200 C.3       8 GLP5        0.0000 
     22 N         -25.3335  -53.1530  -14.8385 N.am      2 SEC2        0.0000 
     23 N         -24.9090  -51.7460  -14.5960 N.am     10 SEL2        0.0000 
     24 N         -25.7580  -54.5600  -15.0810 N.am      6 SEP2        0.0000 
     25 O         -24.8845  -51.3550  -16.1990 O.2       1 ALC1        0.0000 
     26 O         -24.9090  -51.7460  -14.5960 O.2       9 ALL1        0.0000 
     27 O         -24.8600  -50.9640  -17.8020 O.2       5 ALP1        0.0000 
     28 N         -24.2745  -48.2565  -16.3925 N.am      2 SEC2        0.0000 
     29 N         -24.9160  -49.1030  -15.4130 N.am     10 SEL2        0.0000 
     30 N         -23.6330  -47.4100  -17.3720 N.am      6 SEP2        0.0000 
     31 O         -24.8880  -50.0335  -16.6075 O.2       1 ALC1        0.0000 
     32 O         -24.9160  -49.1030  -15.4130 O.2       9 ALL1        0.0000 
     33 N         -25.8495  -44.9920  -15.0490 N.am      2 SEC2        0.0000 
     34 N         -25.3850  -46.4630  -14.8040 N.am     10 SEL2        0.0000 
     35 N         -26.3140  -43.5210  -15.2940 N.am      6 SEP2        0.0000 
     36 O         -24.5090  -46.9365  -16.0880 O.2       1 ALC1        0.0000 
     37 O         -25.3850  -46.4630  -14.8040 O.2       9 ALL1        0.0000 
     38 O         -23.6330  -47.4100  -17.3720 O.2       5 ALP1        0.0000 
     39 O         -35.9030  -46.6005   -3.6955 O.2       1 ALC1        0.0000 
     40 O         -35.1430  -46.3380   -4.8180 O.2       9 ALL1        0.0000 
     41 O         -36.6630  -46.8630   -2.5730 O.2       5 ALP1        0.0000 
     42 N         -37.4370  -48.3340   -5.5845 N.am      2 SEC2        0.0000 
     43 N         -36.0690  -48.3460   -5.3890 N.am     10 SEL2        0.0000 
     44 N         -38.8050  -48.3220   -5.7800 N.am      6 SEP2        0.0000 
     45 N         -33.6990  -43.0705   -4.7310 N.am      2 SEC2        0.0000 
     46 N         -34.1300  -44.3430   -4.3710 N.am     10 SEL2        0.0000 
     47 N         -33.2680  -41.7980   -5.0910 N.am      6 SEP2        0.0000 
     48 CA        -33.1060  -48.5895   -6.2625 C.3       4 GLC5        0.0000 
     49 CA        -34.4830  -48.7920   -7.6480 C.3      12 GLL5        0.0000 
     50 CA        -31.7290  -48.3870   -4.8770 C.3       8 GLP5        0.0000 
     51 CA        -35.0435  -50.4715   -6.8905 C.3       4 GLC5        0.0000 
     52 CA        -35.6040  -52.1510   -6.1330 C.3       8 GLP5        0.0000 
     53 CA        -34.6170  -47.2205  -10.6910 C.3       4 GLC5        0.0000 
     54 CA        -34.2190  -48.5040   -9.1260 C.3      12 GLL5        0.0000 
     55 CA        -35.0150  -45.9370  -12.2560 C.3       8 GLP5        0.0000 
     56 N         -36.0570  -47.1280   -9.0235 N.am      2 SEC2        0.0000 
     57 N         -35.4670  -48.2830   -9.7940 N.am     10 SEL2        0.0000 
     58 N         -36.6470  -45.9730   -8.2530 N.am      6 SEP2        0.0000 
     59 CA        -32.2485  -49.3320   -6.6290 C.3       4 GLC5        0.0000 
     60 CA        -32.7680  -50.2770   -8.3810 C.3      12 GLL5        0.0000 
     61 CA        -33.0335  -51.3080   -6.7810 C.3       4 GLC5        0.0000 
     62 CA        -33.2990  -52.3390   -5.1810 C.3       8 GLP5        0.0000 
     63 O         -34.4325  -50.6810  -11.5280 O.2       1 ALC1        0.0000 
     64 O         -34.4960  -50.7890   -9.9750 O.2       9 ALL1        0.0000 
     65 O         -34.3690  -50.5730  -13.0810 O.2       5 ALP1        0.0000 
     66 O         -35.3655  -51.0765  -11.1015 O.2       1 ALC1        0.0000 
     67 O         -36.2350  -51.3640  -12.2280 O.2       5 ALP1        0.0000 
     68 CA        -30.4070  -49.6605   -6.9295 C.3       4 GLC5        0.0000 
     69 CA        -31.2880  -49.8530   -8.3770 C.3      12 GLL5        0.0000 
     70 CA        -29.5260  -49.4680   -5.4820 C.3       8 GLP5        0.0000 
     71 NZ        -31.3340  -45.7800  -10.0070 N.4       3 LYC4        0.0000 
     72 NZ        -30.1270  -46.8000  -10.1960 N.4      11 LYL4        0.0000 
     73 NZ        -33.0810  -45.4700  -10.7990 N.4       7 LYP4        0.0000 
     74 N         -31.2530  -46.6185  -10.7870 N.am      2 SEC2        0.0000 
     75 N         -30.1270  -46.8000  -10.1960 N.am     10 SEL2        0.0000 
     76 N         -32.3790  -46.4370  -11.3780 N.am      6 SEP2        0.0000 
     77 N         -31.3340  -45.7800  -10.0070 N.am      2 SEC2        0.0000 
     78 N         -32.5410  -44.7600   -9.8180 N.am      6 SEP2        0.0000 
     79 N         -28.9250  -47.3655   -6.9655 N.am      2 SEC2        0.0000 
     80 N         -28.9820  -48.0100   -8.2860 N.am     10 SEL2        0.0000 
     81 N         -28.8680  -46.7210   -5.6450 N.am      6 SEP2        0.0000 
     82 NZ        -31.3450  -51.7165  -11.9380 N.4       3 LYC4        0.0000 
     83 NZ        -30.2380  -50.8090  -11.5760 N.4      11 LYL4        0.0000 
     84 NZ        -31.8900  -53.6550  -11.6780 N.4       7 LYP4        0.0000 
     85 N         -30.4460  -52.1720  -11.3825 N.am      2 SEC2        0.0000 
     86 N         -30.2380  -50.8090  -11.5760 N.am     10 SEL2        0.0000 
     87 N         -30.6540  -53.5350  -11.1890 N.am      6 SEP2        0.0000 
     88 N         -31.3450  -51.7165  -11.9380 N.am      2 SEC2        0.0000 
     89 N         -32.4520  -52.6240  -12.3000 N.am      6 SEP2        0.0000 
     90 CA        -24.1631  -49.6112  -13.7560 C.3       4 GLC5        0.0000 
     91 CA        -25.7880  -50.8260  -13.9430 C.3      12 GLL5        0.0000 
     92 CA        -22.4330  -49.9900  -13.7380 C.3       8 GLP5        0.0000 
     93 CA        -32.5673  -47.1937   -5.7480 C.3       4 GLC5        0.0000 
     94 CA        -33.4500  -46.5620   -7.0310 C.3      12 GLL5        0.0000 
     95 CA        -36.3615  -48.1610   -8.2510 C.3       4 GLC5        0.0000 
     96 CA        -38.3720  -47.6740   -8.1150 C.3       8 GLP5        0.0000 
@<TRIPOS>BOND
@<TRIPOS>SUBSTRUCTURE
     1 ALC1       25 GROUP        1 X    ALC  0     ROOT ALC X 1
     2 SEC2       22 GROUP        1 X    SEC  0     **** SEC X 2
     3 LYC4       71 GROUP        1 X    LYC  0     **** LYC X 4
     4 GLC5        1 GROUP        1 X    GLC  0     **** GLC X 6
     5 ALP1       27 GROUP        1 Y    ALP  0     ROOT ALP Y 8
     6 SEP2       24 GROUP        1 Y    SEP  0     **** SEP Y 9
     7 LYP4       73 GROUP        1 Y    LYP  0     **** LYP Y 11
     8 GLP5        3 GROUP        1 Y    GLP  0     **** GLP Y 13
     9 ALL1       26 GROUP        1 Z    ALL  0     ROOT ALL Z 15
    10 SEL2       23 GROUP        1 Z    SEL  0     **** SEL Z 16
    11 LYL4       72 GROUP        1 Z    LYL  0     **** LYL Z 18
    12 GLL5        2 GROUP        1 Z    GLL  0     **** GLL Z 20
@<TRIPOS>SET

