#    Name: 3lu1_UD2_4_ligand
#    Modification time : Mon Mar 24 22:17:53 2014

@<TRIPOS>MOLECULE
3lu1_UD2_4_ligand
   64    66     1     0     0
SMALL
NO_CHARGES


@<TRIPOS>ATOM
      1 C1'       -28.0600  -49.7890  -14.0750 C.3       1 UD2343      0.0000 
      2 C2'       -27.1920  -50.9460  -14.5480 C.3       1 UD2343      0.0000 
      3 C3'       -25.7880  -50.8260  -13.9430 C.3       1 UD2343      0.0000 
      4 C4'       -25.2470  -49.3860  -14.0530 C.3       1 UD2343      0.0000 
      5 C5'       -26.2690  -48.3590  -13.5500 C.3       1 UD2343      0.0000 
      6 C6'       -25.8200  -46.8880  -13.5150 C.3       1 UD2343      0.0000 
      7 C7'       -28.8500  -52.7660  -14.7250 C.2       1 UD2343      0.0000 
      8 C8'       -29.2730  -54.1110  -14.1460 C.3       1 UD2343      0.0000 
      9 N2'       -27.7910  -52.2210  -14.1300 N.am      1 UD2343      0.0000 
     10 O1'       -28.1850  -49.9560  -12.6500 O.3       1 UD2343      0.0000 
     11 O3'       -24.9090  -51.7460  -14.5960 O.3       1 UD2343      0.0000 
     12 O4'       -24.9160  -49.1030  -15.4130 O.3       1 UD2343      0.0000 
     13 O5'       -27.4150  -48.5330  -14.3990 O.3       1 UD2343      0.0000 
     14 O6'       -25.3850  -46.4630  -14.8040 O.3       1 UD2343      0.0000 
     15 O7'       -29.4640  -52.2660  -15.6710 O.2       1 UD2343      0.0000 
     16 N1        -34.3890  -47.5900   -6.7640 N.am      1 UD2343      0.0000 
     17 C2        -35.2420  -47.4700   -5.6480 C.2       1 UD2343      0.0000 
     18 N3        -35.1430  -46.3380   -4.8180 N.am      1 UD2343      0.0000 
     19 C4        -34.2040  -45.3280   -5.1030 C.2       1 UD2343      0.0000 
     20 C5        -33.3610  -45.4390   -6.2070 C.2       1 UD2343      0.0000 
     21 C6        -33.4500  -46.5620   -7.0310 C.2       1 UD2343      0.0000 
     22 O2        -36.0690  -48.3460   -5.3890 O.2       1 UD2343      0.0000 
     23 O4        -34.1300  -44.3430   -4.3710 O.2       1 UD2343      0.0000 
     24 C1B       -34.4830  -48.7920   -7.6480 C.3       1 UD2343      0.0000 
     25 C2B       -34.2190  -48.5040   -9.1260 C.3       1 UD2343      0.0000 
     26 O2'       -35.4670  -48.2830   -9.7940 O.3       1 UD2343      0.0000 
     27 C3B       -33.5360  -49.7850   -9.6120 C.3       1 UD2343      0.0000 
     28 C4B       -32.7680  -50.2770   -8.3810 C.3       1 UD2343      0.0000 
     29 O4B       -33.4410  -49.7080   -7.2210 O.3       1 UD2343      0.0000 
     30 O3B       -34.4960  -50.7890   -9.9750 O.3       1 UD2343      0.0000 
     31 C5B       -31.2880  -49.8530   -8.3770 C.3       1 UD2343      0.0000 
     32 O5B       -31.0700  -48.9090   -9.3960 O.3       1 UD2343      0.0000 
     33 PA        -29.7410  -48.0590   -9.5440 P.3       1 UD2343      0.0000 
     34 O1A       -30.1270  -46.8000  -10.1960 O.co2     1 UD2343      0.0000 
     35 O2A       -28.9820  -48.0100   -8.2860 O.co2     1 UD2343      0.0000 
     36 O3A       -28.8870  -48.9540  -10.5610 O.3       1 UD2343      0.0000 
     37 PB        -29.5130  -49.5580  -11.8910 P.3       1 UD2343      0.0000 
     38 O1B       -30.2380  -50.8090  -11.5760 O.co2     1 UD2343      0.0000 
     39 O2B       -30.1900  -48.4760  -12.6480 O.co2     1 UD2343      0.0000 
     40 H         -29.0109  -49.8787  -14.5522 H         1 UD2343      0.0000 
     41 H         -27.1061  -50.9038  -15.6162 H         1 UD2343      0.0000 
     42 H         -25.8684  -51.0654  -12.8815 H         1 UD2343      0.0000 
     43 H         -24.3662  -49.3165  -13.4222 H         1 UD2343      0.0000 
     44 H         -26.5490  -48.6611  -12.5284 H         1 UD2343      0.0000 
     45 H         -25.0202  -46.8069  -12.7649 H         1 UD2343      0.0000 
     46 H         -26.6713  -46.2937  -13.1529 H         1 UD2343      0.0000 
     47 H         -27.3174  -52.6836  -13.3126 H         1 UD2343      0.0000 
     48 H         -35.7568  -46.2478   -4.0025 H         1 UD2343      0.0000 
     49 H         -32.6806  -44.7023   -6.4132 H         1 UD2343      0.0000 
     50 H         -32.8288  -46.6541   -7.8471 H         1 UD2343      0.0000 
     51 H         -35.4365  -49.2584   -7.5453 H         1 UD2343      0.0000 
     52 H         -33.5421  -47.7062   -9.1948 H         1 UD2343      0.0000 
     53 H         -32.8493  -49.5524  -10.3644 H         1 UD2343      0.0000 
     54 H         -32.8274  -51.3496   -8.3476 H         1 UD2343      0.0000 
     55 H         -30.6908  -50.7626   -8.5121 H         1 UD2343      0.0000 
     56 H         -31.0690  -49.4531   -7.3798 H         1 UD2343      0.0000 
     57 H         -28.5447  -54.7923  -14.2190 H         1 UD2343      0.0000 
     58 H         -29.5118  -54.0399  -13.1776 H         1 UD2343      0.0000 
     59 H         -30.0717  -54.4840  -14.6182 H         1 UD2343      0.0000 
     60 H         -24.7415  -51.3480  -15.4980 H         1 UD2343      0.0000 
     61 H         -25.1698  -49.9280  -15.9181 H         1 UD2343      0.0000 
     62 H         -25.1762  -47.3071  -15.2979 H         1 UD2343      0.0000 
     63 H         -35.8110  -49.1972  -10.0086 H         1 UD2343      0.0000 
     64 H         -34.5263  -50.7687  -10.9743 H         1 UD2343      0.0000 
@<TRIPOS>BOND
     1    2    1 1    
     2   10    1 1    
     3   13    1 1    
     4   40    1 1    
     5    3    2 1    
     6    9    2 1    
     7   41    2 1    
     8    4    3 1    
     9   11    3 1    
    10   42    3 1    
    11    5    4 1    
    12   12    4 1    
    13   43    4 1    
    14    6    5 1    
    15   13    5 1    
    16   44    5 1    
    17   14    6 1    
    18   45    6 1    
    19   46    6 1    
    20    8    7 1    
    21    9    7 am   
    22   15    7 2    
    23   57    8 1    
    24   58    8 1    
    25   59    8 1    
    26   47    9 1    
    27   37   10 1    
    28   60   11 1    
    29   61   12 1    
    30   62   14 1    
    31   17   16 1    
    32   21   16 1    
    33   24   16 1    
    34   18   17 1    
    35   22   17 2    
    36   19   18 1    
    37   48   18 1    
    38   20   19 1    
    39   23   19 2    
    40   21   20 2    
    41   49   20 1    
    42   50   21 1    
    43   25   24 1    
    44   29   24 1    
    45   51   24 1    
    46   26   25 1    
    47   27   25 1    
    48   52   25 1    
    49   63   26 1    
    50   28   27 1    
    51   30   27 1    
    52   53   27 1    
    53   29   28 1    
    54   31   28 1    
    55   54   28 1    
    56   64   30 1    
    57   32   31 1    
    58   55   31 1    
    59   56   31 1    
    60   33   32 1    
    61   34   33 ar   
    62   35   33 ar   
    63   36   33 1    
    64   37   36 1    
    65   38   37 ar   
    66   39   37 ar   
@<TRIPOS>SUBSTRUCTURE
     1 UD2343      1 GROUP   
@<TRIPOS>SET

