#    Name: 3uku_C69_1_INTS_M
#    Modification time : Mon Mar 24 22:53:47 2014

@<TRIPOS>MOLECULE
3uku_C69_1_INTS_M
   60     0     6     0     0
SMALL
NO_CHARGES


@<TRIPOS>ATOM
      1 CA         13.2895   18.8640   48.3585 C.3       2 GLC5        0.0000 
      2 CA         14.0440   17.3540   49.5310 C.3       6 GLL5        0.0000 
      3 CA         12.5350   20.3740   47.1860 C.3       4 GLP5        0.0000 
      4 CA         13.1010   17.4095   48.1355 C.3       2 GLC5        0.0000 
      5 CA         12.1580   17.4650   46.7400 C.3       4 GLP5        0.0000 
      6 CA         14.1505   14.9765   53.9460 C.3       2 GLC5        0.0000 
      7 CA         12.7390   14.8050   52.6030 C.3       6 GLL5        0.0000 
      8 CA         15.5620   15.1480   55.2890 C.3       4 GLP5        0.0000 
      9 CA         14.7350   12.0845   51.3630 C.3       2 GLC5        0.0000 
     10 CA         12.9150   12.7030   51.7970 C.3       6 GLL5        0.0000 
     11 CA         16.5550   11.4660   50.9290 C.3       4 GLP5        0.0000 
     12 CA         11.6730   12.2430   52.6095 C.3       2 GLC5        0.0000 
     13 CA         10.4310   11.7830   53.4220 C.3       4 GLP5        0.0000 
     14 N           8.9645   18.8775   50.4475 N.am      1 SEC2        0.0000 
     15 N           9.5430   18.4790   51.7450 N.am      5 SEL2        0.0000 
     16 N           8.3860   19.2760   49.1500 N.am      3 SEP2        0.0000 
     17 CA          8.3495   21.3550   52.3165 C.3       2 GLC5        0.0000 
     18 CA         10.3670   20.7360   51.8200 C.3       6 GLL5        0.0000 
     19 CA          6.3320   21.9740   52.8130 C.3       4 GLP5        0.0000 
     20 CA         10.0150   21.3260   53.4905 C.3       2 GLC5        0.0000 
     21 CA          9.6630   21.9160   55.1610 C.3       4 GLP5        0.0000 
     22 CA          9.7120   22.7355   51.8735 C.3       2 GLC5        0.0000 
     23 CA          9.0570   24.7350   51.9270 C.3       4 GLP5        0.0000 
     24 CA         13.4505   22.7820   51.6665 C.3       2 GLC5        0.0000 
     25 CA         11.9870   21.2430   51.1540 C.3       6 GLL5        0.0000 
     26 CA         14.9140   24.3210   52.1790 C.3       4 GLP5        0.0000 
     27 CA         11.4625   21.9670   53.0960 C.3       2 GLC5        0.0000 
     28 CA         10.9380   22.6910   55.0380 C.3       4 GLP5        0.0000 
     29 CA         11.1660   22.8185   50.2000 C.3       2 GLC5        0.0000 
     30 CA         10.3450   24.3940   49.2460 C.3       4 GLP5        0.0000 
     31 CA         11.3705   18.7700   56.7690 C.3       2 GLC5        0.0000 
     32 CA         13.1350   19.9850   57.0590 C.3       6 GLL5        0.0000 
     33 CA          9.6060   17.5550   56.4790 C.3       4 GLP5        0.0000 
     34 CA         11.3005   20.7120   56.8185 C.3       2 GLC5        0.0000 
     35 CA          9.4660   21.4390   56.5780 C.3       4 GLP5        0.0000 
     36 CA         12.0995   19.4095   58.4995 C.3       2 GLC5        0.0000 
     37 CA         11.0640   18.8340   59.9400 C.3       4 GLP5        0.0000 
     38 CA         16.3600   20.3025   56.7990 C.3       2 GLC5        0.0000 
     39 CA         15.2570   20.2680   55.1920 C.3       6 GLL5        0.0000 
     40 CA         17.4630   20.3370   58.4060 C.3       4 GLP5        0.0000 
     41 CA         14.9780   22.2480   52.4885 C.3       2 GLC5        0.0000 
     42 CA         15.0420   20.1750   52.7980 C.3       6 GLL5        0.0000 
     43 CA         14.9655   16.3903   53.1305 C.3       2 GLC5        0.0000 
     44 CA         13.2980   16.9430   51.6460 C.3       6 GLL5        0.0000 
     45 CA         16.4520   16.4840   54.4370 C.3       4 GLP5        0.0000 
     46 CA         11.2622   13.4090   53.0742 C.3       2 GLC5        0.0000 
     47 CA         11.1555   20.9132   49.5160 C.3       2 GLC5        0.0000 
     48 CA         11.1340   20.8370   47.5450 C.3       4 GLP5        0.0000 
     49 CA         13.8548   22.0765   54.6642 C.3       2 GLC5        0.0000 
     50 CA         13.1080   19.8670   54.1870 C.3       6 GLL5        0.0000 
     51 CA         14.2080   24.2000   54.5740 C.3       4 GLP5        0.0000 
     52 CA         14.0240   18.0415   56.3032 C.3       2 GLC5        0.0000 
     53 CA         13.8950   20.0390   55.3220 C.3       6 GLL5        0.0000 
     54 CA         14.5330   16.0710   56.4160 C.3       4 GLP5        0.0000 
     55 CA         12.2912   21.3296   54.7376 C.3       2 GLC5        0.0000 
     56 CA         14.8768   22.2525   54.5670 C.3       2 GLC5        0.0000 
     57 CA         15.8340   20.3420   53.9280 C.3       6 GLL5        0.0000 
     58 CA         17.2350   19.3017   53.0420 C.3       2 GLC5        0.0000 
     59 CA         19.0320   18.3450   52.7210 C.3       4 GLP5        0.0000 
     60 CA         15.8729   18.3620   54.0580 C.3       2 GLC5        0.0000 
@<TRIPOS>BOND
@<TRIPOS>SUBSTRUCTURE
     1 SEC2       14 GROUP        1 X    SEC  0     ROOT SEC X 2
     2 GLC5        1 GROUP        1 X    GLC  0     **** GLC X 6
     3 SEP2       16 GROUP        1 Y    SEP  0     ROOT SEP Y 9
     4 GLP5        3 GROUP        1 Y    GLP  0     **** GLP Y 13
     5 SEL2       15 GROUP        1 Z    SEL  0     ROOT SEL Z 16
     6 GLL5        2 GROUP        1 Z    GLL  0     **** GLL Z 20
@<TRIPOS>SET

