#    Name: 3uku_C69_1_ligand
#    Modification time : Mon Mar 24 22:53:47 2014

@<TRIPOS>MOLECULE
3uku_C69_1_ligand
   39    41     1     0     0
SMALL
NO_CHARGES


@<TRIPOS>ATOM
      1 CAB        14.0440   17.3540   49.5310 C.3       1 C69501      0.0000 
      2 OAA        14.1670   17.6880   50.9160 O.3       1 C69501      0.0000 
      3 CAD        13.2980   16.9430   51.6460 C.ar      1 C69501      0.0000 
      4 CAC        13.6600   15.6500   52.0020 C.ar      1 C69501      0.0000 
      5 CAN        12.7390   14.8050   52.6030 C.ar      1 C69501      0.0000 
      6 OAM        13.1050   13.5420   52.9400 O.3       1 C69501      0.0000 
      7 CAL        12.9150   12.7030   51.7970 C.3       1 C69501      0.0000 
      8 CAO        11.4480   15.2650   52.8500 C.ar      1 C69501      0.0000 
      9 CAP        11.1010   16.5640   52.5000 C.ar      1 C69501      0.0000 
     10 CAE        12.0180   17.4220   51.9070 C.ar      1 C69501      0.0000 
     11 NAF        11.7690   18.7320   51.8810 N.am      1 C69501      0.0000 
     12 CAQ        10.5260   19.2100   51.8420 C.2       1 C69501      0.0000 
     13 OAW         9.5430   18.4790   51.7450 O.2       1 C69501      0.0000 
     14 CAR        10.3670   20.7360   51.8200 C.3       1 C69501      0.0000 
     15 SAS        11.9870   21.2430   51.1540 S.3       1 C69501      0.0000 
     16 CAG        12.8470   19.7100   51.6510 C.3       1 C69501      0.0000 
     17 CAH        13.6800   19.9280   52.9180 C.ar      1 C69501      0.0000 
     18 CAI        13.1080   19.8670   54.1870 C.ar      1 C69501      0.0000 
     19 CAJ        13.8950   20.0390   55.3220 C.ar      1 C69501      0.0000 
     20 BRA        13.1350   19.9850   57.0590 Br        1 C69501      0.0000 
     21 CAV        15.2570   20.2680   55.1920 C.ar      1 C69501      0.0000 
     22 CAU        15.8340   20.3420   53.9280 C.ar      1 C69501      0.0000 
     23 CAT        15.0420   20.1750   52.7980 C.ar      1 C69501      0.0000 
     24 H          14.6190   15.3175   51.8180 H         1 C69501      0.0000 
     25 H          10.7570   14.6461   53.2887 H         1 C69501      0.0000 
     26 H          10.1363   16.9000   52.6857 H         1 C69501      0.0000 
     27 H          10.3685   21.1667   52.7490 H         1 C69501      0.0000 
     28 H           9.7202   21.0754   51.1024 H         1 C69501      0.0000 
     29 H          13.4234   19.4946   50.8065 H         1 C69501      0.0000 
     30 H          12.0974   19.6937   54.2850 H         1 C69501      0.0000 
     31 H          15.8429   20.3835   56.0302 H         1 C69501      0.0000 
     32 H          16.8402   20.5192   53.8311 H         1 C69501      0.0000 
     33 H          15.4705   20.2352   51.8599 H         1 C69501      0.0000 
     34 H          14.6692   17.8892   48.9629 H         1 C69501      0.0000 
     35 H          14.2474   16.3896   49.3621 H         1 C69501      0.0000 
     36 H          13.1197   17.5229   49.1889 H         1 C69501      0.0000 
     37 H          13.4655   13.0052   51.0188 H         1 C69501      0.0000 
     38 H          13.1701   11.7547   51.9858 H         1 C69501      0.0000 
     39 H          11.9614   12.6956   51.4961 H         1 C69501      0.0000 
@<TRIPOS>BOND
     1    2    1 1    
     2   34    1 1    
     3   35    1 1    
     4   36    1 1    
     5    3    2 1    
     6    4    3 ar   
     7   10    3 ar   
     8    5    4 ar   
     9   24    4 1    
    10    6    5 1    
    11    8    5 ar   
    12    7    6 1    
    13   37    7 1    
    14   38    7 1    
    15   39    7 1    
    16    9    8 ar   
    17   25    8 1    
    18   10    9 ar   
    19   26    9 1    
    20   11   10 1    
    21   12   11 am   
    22   16   11 1    
    23   13   12 2    
    24   14   12 1    
    25   15   14 1    
    26   27   14 1    
    27   28   14 1    
    28   16   15 1    
    29   17   16 1    
    30   29   16 1    
    31   18   17 ar   
    32   23   17 ar   
    33   19   18 ar   
    34   30   18 1    
    35   20   19 1    
    36   21   19 ar   
    37   22   21 ar   
    38   31   21 1    
    39   23   22 ar   
    40   32   22 1    
    41   33   23 1    
@<TRIPOS>SUBSTRUCTURE
     1 C69501      1 GROUP   
@<TRIPOS>SET

