#    Name: 3EMQ_1_CAVITY_N1_ALL.mol2
#    Modification time : Mon Mar 10 13:43:21 2014

@<TRIPOS>MOLECULE
3EMQ_1_CAVITY_N1_ALL.mol2
  147     0     7     0     0
SMALL
NO_CHARGES


@<TRIPOS>ATOM
      1 CA         10.7047   11.9416   -2.0988 C.3       6 GLY6        0.0000 
      2 CA         13.6233   15.8713   -1.2106 C.3       6 GLY6        0.0000 
      3 CA         12.6540   14.7891   -0.8373 C.3       6 GLY6        0.0000 
      4 DU         13.2929   11.7233   -2.0384 H         7 CUB7        0.0000 
      5 CA         12.4888   12.7151   -1.2512 C.3       6 GLY6        0.0000 
      6 N          11.6847   13.7070   -0.4639 N.2       2 ALA2        0.0000 
      7 DU         13.1276    9.6493   -2.4523 H         7 CUB7        0.0000 
      8 CZ         12.3235   10.6412   -1.6650 C.ar      5 PHE5        0.0000 
      9 CA         11.5195   11.6330   -0.8778 C.3       6 GLY6        0.0000 
     10 CZ         11.3542    9.5590   -1.2917 C.ar      5 PHE5        0.0000 
     11 CZ         10.2197    6.4029   -1.3322 C.ar      5 PHE5        0.0000 
     12 N          11.6626    2.3452   -3.3206 N.2       2 ALA2        0.0000 
     13 N          10.8585    3.3371   -2.5334 N.2       2 ALA2        0.0000 
     14 DU         10.0544    4.3289   -1.7461 H         7 CUB7        0.0000 
     15 CZ          9.2504    5.3207   -0.9589 C.ar      5 PHE5        0.0000 
     16 OG          9.8892    2.2549   -2.1600 O.2       1 SER1        0.0000 
     17 OG          9.0851    3.2467   -1.3727 O.2       1 SER1        0.0000 
     18 CZ          8.2811    4.2386   -0.5855 C.ar      5 PHE5        0.0000 
     19 CZ          7.4770    5.2304    0.2018 C.ar      5 PHE5        0.0000 
     20 OG          7.3118    3.1564   -0.2121 O.2       1 SER1        0.0000 
     21 CZ          6.5077    4.1483    0.5751 C.ar      5 PHE5        0.0000 
     22 N           5.7037    5.1401    1.3624 N.2       2 ALA2        0.0000 
     23 CA          0.3836    4.8691    4.8442 C.3       6 GLY6        0.0000 
     24 O          14.6034   17.6367    0.4243 O.2       2 ALA2        0.0000 
     25 DU         14.4382   15.5627    0.0104 H         7 CUB7        0.0000 
     26 O          13.6341   16.5545    0.7976 O.2       2 ALA2        0.0000 
     27 DU         14.2729   13.4887   -0.4035 H         7 CUB7        0.0000 
     28 CA         13.4689   14.4805    0.3837 C.3       6 GLY6        0.0000 
     29 N          12.6648   15.4724    1.1710 N.2       2 ALA2        0.0000 
     30 N          15.7158    9.4311   -2.3919 N.2       2 ALA2        0.0000 
     31 DU         14.9117   10.4229   -1.6047 H         7 CUB7        0.0000 
     32 DU         14.1077   11.4147   -0.8174 H         7 CUB7        0.0000 
     33 CA         13.3036   12.4065   -0.0302 C.3       6 GLY6        0.0000 
     34 N          12.4996   13.3984    0.7571 N.2       2 ALA2        0.0000 
     35 CZ         15.5505    7.3571   -2.8058 C.ar      5 PHE5        0.0000 
     36 CZ         14.7465    8.3489   -2.0186 C.ar      5 PHE5        0.0000 
     37 DU         13.9424    9.3407   -1.2313 H         7 CUB7        0.0000 
     38 CZ         13.1384   10.3326   -0.4440 C.ar      5 PHE5        0.0000 
     39 CZ         12.3343   11.3244    0.3432 C.ar      5 PHE5        0.0000 
     40 N          14.5812    6.2749   -2.4324 N.2       2 ALA2        0.0000 
     41 CZ         13.7772    7.2668   -1.6452 C.ar      5 PHE5        0.0000 
     42 CZ         12.9731    8.2586   -0.8579 C.ar      5 PHE5        0.0000 
     43 CZ         12.1691    9.2504   -0.0707 C.ar      5 PHE5        0.0000 
     44 N          12.8079    6.1846   -1.2718 N.2       2 ALA2        0.0000 
     45 CZ         12.0038    7.1764   -0.4846 C.ar      5 PHE5        0.0000 
     46 N          12.6426    4.1106   -1.6857 N.2       2 ALA2        0.0000 
     47 DU         11.8386    5.1025   -0.8985 H         7 CUB7        0.0000 
     48 CZ         11.0345    6.0943   -0.1112 C.ar      5 PHE5        0.0000 
     49 NZ         11.6733    3.0285   -1.3124 N.2       4 LYS4        0.0000 
     50 NZ         10.8693    4.0203   -0.5251 N.2       4 LYS4        0.0000 
     51 CZ         10.0652    5.0121    0.2621 C.ar      5 PHE5        0.0000 
     52 CZ          9.2612    6.0040    1.0494 C.ar      5 PHE5        0.0000 
     53 OG          9.9000    2.9382   -0.1517 O.2       1 SER1        0.0000 
     54 CZ          9.0959    3.9300    0.6355 C.ar      5 PHE5        0.0000 
     55 CZ          8.2919    4.9218    1.4228 C.ar      5 PHE5        0.0000 
     56 CZ          7.4878    5.9136    2.2100 C.ar      5 PHE5        0.0000 
     57 CZ          6.6837    6.9055    2.9973 C.ar      5 PHE5        0.0000 
     58 CA          5.8797    7.8973    3.7845 C.3       6 GLY6        0.0000 
     59 CA          5.0756    8.8891    4.5718 C.3       6 GLY6        0.0000 
     60 CZ          7.3225    3.8397    1.7961 C.ar      5 PHE5        0.0000 
     61 CA          6.5185    4.8315    2.5834 C.3       6 GLY6        0.0000 
     62 CA          5.7144    5.8233    3.3706 C.3       6 GLY6        0.0000 
     63 CA          4.1063    7.8070    4.9451 C.3       6 GLY6        0.0000 
     64 OG          3.3023    8.7988    5.7324 O.2       1 SER1        0.0000 
     65 CZ          5.5492    3.7493    2.9567 C.ar      5 PHE5        0.0000 
     66 CA          4.7451    4.7412    3.7440 C.3       6 GLY6        0.0000 
     67 CA          3.9411    5.7330    4.5312 C.3       6 GLY6        0.0000 
     68 CA          3.1370    6.7248    5.3185 C.3       6 GLY6        0.0000 
     69 O           2.3329    7.7167    6.1057 O.2       2 ALA2        0.0000 
     70 O           4.5799    2.6672    3.3301 O.2       2 ALA2        0.0000 
     71 O           3.7758    3.6590    4.1173 O.2       2 ALA2        0.0000 
     72 CA          2.9718    4.6508    4.9046 C.3       6 GLY6        0.0000 
     73 CA          2.1677    5.6427    5.6919 C.3       6 GLY6        0.0000 
     74 DU          2.0025    3.5687    5.2780 H         7 CUB7        0.0000 
     75 O           1.1984    4.5605    6.0652 O.2       2 ALA2        0.0000 
     76 OG         15.2530   15.2541    1.2314 O.2       1 SER1        0.0000 
     77 DU         15.8918   12.1883    0.0302 H         7 CUB7        0.0000 
     78 CA         15.0877   13.1801    0.8175 C.3       6 GLY6        0.0000 
     79 CA         14.2837   14.1719    1.6047 C.3       6 GLY6        0.0000 
     80 N          15.7266   10.1143   -0.3837 N.2       2 ALA2        0.0000 
     81 DU         14.9225   11.1061    0.4036 H         7 CUB7        0.0000 
     82 CA         14.1184   12.0980    1.1908 C.3       6 GLY6        0.0000 
     83 CZ         15.5613    8.0403   -0.7976 C.ar      5 PHE5        0.0000 
     84 DU         14.7573    9.0322   -0.0103 H         7 CUB7        0.0000 
     85 CZ         13.9532   10.0240    0.7770 C.ar      5 PHE5        0.0000 
     86 CZ         14.5920    6.9582   -0.4242 C.ar      5 PHE5        0.0000 
     87 CZ         13.7880    7.9500    0.3631 C.ar      5 PHE5        0.0000 
     88 CZ         13.6227    5.8760   -0.0508 C.ar      5 PHE5        0.0000 
     89 CZ         12.8186    6.8679    0.7364 C.ar      5 PHE5        0.0000 
     90 NZ         12.6534    4.7939    0.3225 N.2       4 LYS4        0.0000 
     91 CZ         11.8493    5.7857    1.1098 C.ar      5 PHE5        0.0000 
     92 NZ         11.6841    3.7117    0.6959 N.2       4 LYS4        0.0000 
     93 DU         10.8800    4.7035    1.4831 H         7 CUB7        0.0000 
     94 CZ         10.0760    5.6954    2.2704 C.ar      5 PHE5        0.0000 
     95 CZ          9.9107    3.6214    1.8565 C.ar      5 PHE5        0.0000 
     96 CZ          9.1067    4.6132    2.6438 C.ar      5 PHE5        0.0000 
     97 CZ          8.3026    5.6051    3.4310 C.ar      5 PHE5        0.0000 
     98 CZ          7.4986    6.5969    4.2183 C.ar      5 PHE5        0.0000 
     99 CZ          6.6945    7.5887    5.0055 C.ar      5 PHE5        0.0000 
    100 CA          5.8904    8.5805    5.7928 C.3       6 GLY6        0.0000 
    101 CA          5.0864    9.5724    6.5800 C.3       6 GLY6        0.0000 
    102 CZ          7.3333    4.5229    3.8044 C.ar      5 PHE5        0.0000 
    103 CA          6.5293    5.5147    4.5916 C.3       6 GLY6        0.0000 
    104 N           5.7252    6.5066    5.3789 N.2       2 ALA2        0.0000 
    105 N           4.9211    7.4984    6.1661 N.2       2 ALA2        0.0000 
    106 CA          4.1171    8.4902    6.9534 C.3       6 GLY6        0.0000 
    107 CZ          6.3640    3.4408    4.1777 C.ar      5 PHE5        0.0000 
    108 N           5.5599    4.4326    4.9650 N.2       2 ALA2        0.0000 
    109 N           4.7559    5.4244    5.7522 N.2       2 ALA2        0.0000 
    110 N           3.9518    6.4162    6.5395 N.2       2 ALA2        0.0000 
    111 O           3.1478    7.4081    7.3267 O.2       2 ALA2        0.0000 
    112 O           4.5906    3.3504    5.3383 O.2       2 ALA2        0.0000 
    113 N           3.7866    4.3423    6.1256 N.2       2 ALA2        0.0000 
    114 N           2.9825    5.3341    6.9129 N.2       2 ALA2        0.0000 
    115 N          16.7066   11.8797    1.2512 N.2       2 ALA2        0.0000 
    116 NZ         15.9026   12.8715    2.0385 N.2       4 LYS4        0.0000 
    117 N          16.5414    9.8057    0.8373 N.2       2 ALA2        0.0000 
    118 N          15.7373   10.7975    1.6246 N.2       2 ALA2        0.0000 
    119 OD1        16.3761    7.7317    0.4234 O.3       3 ASP3        0.0000 
    120 OD1        15.5721    8.7236    1.2107 O.3       3 ASP3        0.0000 
    121 CZ         14.7680    9.7154    1.9979 C.ar      5 PHE5        0.0000 
    122 CZ         15.4068    6.6496    0.7968 C.ar      5 PHE5        0.0000 
    123 DU         14.6028    7.6414    1.5841 H         7 CUB7        0.0000 
    124 CZ         13.7987    8.6332    2.3713 C.ar      5 PHE5        0.0000 
    125 CZ         14.4375    5.5674    1.1702 C.ar      5 PHE5        0.0000 
    126 CZ         13.6335    6.5593    1.9574 C.ar      5 PHE5        0.0000 
    127 CZ         12.8294    7.5511    2.7447 C.ar      5 PHE5        0.0000 
    128 NZ         13.4682    4.4853    1.5435 N.2       4 LYS4        0.0000 
    129 NZ         12.6642    5.4771    2.3308 N.2       4 LYS4        0.0000 
    130 N          11.6949    4.3950    2.7041 N.2       2 ALA2        0.0000 
    131 CZ         10.8908    5.3868    3.4914 C.ar      5 PHE5        0.0000 
    132 CA          9.9215    4.3046    3.8648 C.3       6 GLY6        0.0000 
    133 CA          9.1174    5.2965    4.6520 C.3       6 GLY6        0.0000 
    134 NZ          6.7053    8.2719    7.0138 N.2       4 LYS4        0.0000 
    135 CA          8.1481    4.2143    5.0254 C.3       6 GLY6        0.0000 
    136 N           5.7360    7.1898    7.3871 N.2       2 ALA2        0.0000 
    137 N          16.5522   10.4890    2.8456 N.2       2 ALA2        0.0000 
    138 OD1        16.3869    8.4150    2.4317 O.3       3 ASP3        0.0000 
    139 O          15.5828    9.4068    3.2189 O.2       2 ALA2        0.0000 
    140 CZ         16.2217    6.3410    2.0178 C.ar      5 PHE5        0.0000 
    141 O          15.4176    7.3328    2.8051 O.2       2 ALA2        0.0000 
    142 O          14.6135    8.3247    3.5923 O.2       2 ALA2        0.0000 
    143 CZ         15.2524    5.2588    2.3912 C.ar      5 PHE5        0.0000 
    144 NZ         14.4483    6.2507    3.1784 N.2       4 LYS4        0.0000 
    145 NZ         13.6442    7.2425    3.9657 N.2       4 LYS4        0.0000 
    146 NZ         13.4790    5.1685    3.5518 N.2       4 LYS4        0.0000 
    147 O          16.2324    7.0242    4.0261 O.2       2 ALA2        0.0000 
@<TRIPOS>BOND
@<TRIPOS>SUBSTRUCTURE
     1 SER1       16 GROUP   
     2 ALA2        6 GROUP   
     3 ASP3      119 GROUP   
     4 LYS4       49 GROUP   
     5 PHE5        8 GROUP   
     6 GLY6        1 GROUP   
     7 CUB7        4 GROUP   
@<TRIPOS>SET

