#    Name: 3emq_HAH_1_INTS_M
#    Modification time : Tue Mar 25 02:10:28 2014

@<TRIPOS>MOLECULE
3emq_HAH_1_INTS_M
   49     0    12     0     0
SMALL
NO_CHARGES


@<TRIPOS>ATOM
      1 CA         12.2655    5.2580    5.0405 C.3       4 GLC5        0.0000 
      2 CA         13.7050    5.6160    3.4380 C.3      12 GLL5        0.0000 
      3 CA         10.8260    4.9000    6.6430 C.3       8 GLP5        0.0000 
      4 CA         11.9035    6.9185    3.3520 C.3       4 GLC5        0.0000 
      5 CA         10.1020    8.2210    3.2660 C.3       8 GLP5        0.0000 
      6 OD1        13.4360    3.2655    2.6545 O.co2     3 ASC3        0.0000 
      7 OD1        12.6630    4.5490    3.1790 O.co2    11 ASL3        0.0000 
      8 OD1        14.2090    1.9820    2.1300 O.co2     7 ASP3        0.0000 
      9 OD1        13.6635    5.0315    4.7360 O.co2     3 ASC3        0.0000 
     10 OD1        14.6640    5.5140    6.2930 O.co2     7 ASP3        0.0000 
     11 N          16.2920    2.7880    2.8760 N.am      2 SEC2        0.0000 
     12 N          15.5310    3.9800    3.4420 N.am     10 SEL2        0.0000 
     13 N          17.0530    1.5960    2.3100 N.am      6 SEP2        0.0000 
     14 O          15.0975    4.7470    4.8675 O.2       1 ALC1        0.0000 
     15 O          15.5310    3.9800    3.4420 O.2       9 ALL1        0.0000 
     16 O          14.6640    5.5140    6.2930 O.2       5 ALP1        0.0000 
     17 O          15.7825    3.9005    4.9695 O.2       1 ALC1        0.0000 
     18 O          16.0340    3.8210    6.4970 O.2       5 ALP1        0.0000 
     19 CA         16.9330    7.0350    4.8770 C.3       4 GLC5        0.0000 
     20 CA         16.1100    6.3300    3.2930 C.3      12 GLL5        0.0000 
     21 CA         17.7560    7.7400    6.4610 C.3       8 GLP5        0.0000 
     22 N          18.2295    6.9625    2.0595 N.am      2 SEC2        0.0000 
     23 N          17.3880    6.0140    2.7440 N.am     10 SEL2        0.0000 
     24 N          19.0710    7.9110    1.3750 N.am      6 SEP2        0.0000 
     25 O          18.2585    5.3575    3.5735 O.2       1 ALC1        0.0000 
     26 O          17.3880    6.0140    2.7440 O.2       9 ALL1        0.0000 
     27 O          19.1290    4.7010    4.4030 O.2       5 ALP1        0.0000 
     28 CA         16.0995    8.0445    4.7905 C.3       4 GLC5        0.0000 
     29 CA         15.6150    7.6860    2.7480 C.3      12 GLL5        0.0000 
     30 CA         16.5840    8.4030    6.8330 C.3       8 GLP5        0.0000 
     31 N          16.0695    8.8490    4.6005 N.am      2 SEC2        0.0000 
     32 N          16.5190    8.7060    3.1400 N.am     10 SEL2        0.0000 
     33 N          15.6200    8.9920    6.0610 N.am      6 SEP2        0.0000 
     34 CA         14.5225    8.7180    5.0510 C.3       4 GLC5        0.0000 
     35 CA         14.3980    7.9200    3.2210 C.3      12 GLL5        0.0000 
     36 CA         14.6470    9.5160    6.8810 C.3       8 GLP5        0.0000 
     37 CA         12.8795    9.0205    2.8060 C.3       4 GLC5        0.0000 
     38 CA         11.3610   10.1210    2.3910 C.3       8 GLP5        0.0000 
     39 CA         11.9855    7.9900    2.5705 C.3       4 GLC5        0.0000 
     40 CA         13.3450    7.0310    2.9570 C.3      12 GLL5        0.0000 
     41 CA         10.6260    8.9490    2.1840 C.3       8 GLP5        0.0000 
     42 CA         11.2645    2.4650    1.6775 C.3       4 GLC5        0.0000 
     43 CA         12.0900    4.4760    1.7020 C.3      12 GLL5        0.0000 
     44 CA         10.4390    0.4540    1.6530 C.3       8 GLP5        0.0000 
     45 CA         10.3615    4.8800    4.7255 C.3       4 GLC5        0.0000 
     46 CA          9.8970    4.8600    2.8080 C.3      12 GLL5        0.0000 
     47 CA         16.0950    5.4272    1.1710 C.3       4 GLC5        0.0000 
     48 CA         15.1220    5.2470    2.9630 C.3      12 GLL5        0.0000 
     49 CA         16.5740    5.0660   -0.7860 C.3       8 GLP5        0.0000 
@<TRIPOS>BOND
@<TRIPOS>SUBSTRUCTURE
     1 ALC1       14 GROUP        1 X    ALC  0     ROOT ALC X 1
     2 SEC2       11 GROUP        1 X    SEC  0     **** SEC X 2
     3 ASC3        6 GROUP        1 X    ASC  0     **** ASC X 3
     4 GLC5        1 GROUP        1 X    GLC  0     **** GLC X 6
     5 ALP1       16 GROUP        1 Y    ALP  0     ROOT ALP Y 8
     6 SEP2       13 GROUP        1 Y    SEP  0     **** SEP Y 9
     7 ASP3        8 GROUP        1 Y    ASP  0     **** ASP Y 10
     8 GLP5        3 GROUP        1 Y    GLP  0     **** GLP Y 13
     9 ALL1       15 GROUP        1 Z    ALL  0     ROOT ALL Z 15
    10 SEL2       12 GROUP        1 Z    SEL  0     **** SEL Z 16
    11 ASL3        7 GROUP        1 Z    ASL  0     **** ASL Z 17
    12 GLL5        2 GROUP        1 Z    GLL  0     **** GLL Z 20
@<TRIPOS>SET

