#    Name: 3emq_HAH_1_ligand
#    Modification time : Tue Mar 25 02:10:28 2014

@<TRIPOS>MOLECULE
3emq_HAH_1_ligand
   34    35     1     0     0
SMALL
NO_CHARGES


@<TRIPOS>ATOM
      1 C1         13.7050    5.6160    3.4380 C.3       1 HAH1000     0.0000 
      2 N1         12.6630    4.5490    3.1790 N.4       1 HAH1000     0.0000 
      3 C2         15.1220    5.2470    2.9630 C.3       1 HAH1000     0.0000 
      4 O2         15.5310    3.9800    3.4420 O.3       1 HAH1000     0.0000 
      5 C3         16.1100    6.3300    3.2930 C.3       1 HAH1000     0.0000 
      6 O3         17.3880    6.0140    2.7440 O.3       1 HAH1000     0.0000 
      7 C4         15.6150    7.6860    2.7480 C.3       1 HAH1000     0.0000 
      8 O4         16.5190    8.7060    3.1400 O.3       1 HAH1000     0.0000 
      9 C5         14.3980    7.9200    3.2210 C.2       1 HAH1000     0.0000 
     10 C6         13.3450    7.0310    2.9570 C.2       1 HAH1000     0.0000 
     11 C10        12.0900    4.4760    1.7020 C.3       1 HAH1000     0.0000 
     12 C11        10.6010    4.5100    1.6780 C.ar      1 HAH1000     0.0000 
     13 C12         9.8400    4.1780    0.4840 C.ar      1 HAH1000     0.0000 
     14 O12        10.4680    3.7890   -0.7670 O.3       1 HAH1000     0.0000 
     15 C13         8.4400    4.2180    0.4770 C.ar      1 HAH1000     0.0000 
     16 C14         7.7710    4.5790    1.6470 C.ar      1 HAH1000     0.0000 
     17 C15         8.4520    4.8990    2.8000 C.ar      1 HAH1000     0.0000 
     18 C16         9.8970    4.8600    2.8080 C.ar      1 HAH1000     0.0000 
     19 H          13.8015    5.7096    4.5743 H         1 HAH1000     0.0000 
     20 H          15.0564    5.2115    1.8412 H         1 HAH1000     0.0000 
     21 H          16.1673    6.4221    4.3756 H         1 HAH1000     0.0000 
     22 H          15.6295    7.5811    1.6566 H         1 HAH1000     0.0000 
     23 H          14.1874    8.7620    3.7973 H         1 HAH1000     0.0000 
     24 H          12.5199    7.2020    2.5529 H         1 HAH1000     0.0000 
     25 H          12.4672    3.5531    1.2555 H         1 HAH1000     0.0000 
     26 H          12.5093    5.3215    1.1518 H         1 HAH1000     0.0000 
     27 H           7.9219    3.9873   -0.3681 H         1 HAH1000     0.0000 
     28 H           6.7297    4.6047    1.6399 H         1 HAH1000     0.0000 
     29 H           7.9698    5.1651    3.6567 H         1 HAH1000     0.0000 
     30 H          10.3776    5.1020    3.6842 H         1 HAH1000     0.0000 
     31 H          15.7527    4.1272    4.4060 H         1 HAH1000     0.0000 
     32 H          17.9258    5.6781    3.5173 H         1 HAH1000     0.0000 
     33 H          16.6973    9.2282    2.3060 H         1 HAH1000     0.0000 
     34 H          10.1944    2.8377   -0.9090 H         1 HAH1000     0.0000 
@<TRIPOS>BOND
     1    2    1 1    
     2    3    1 1    
     3   10    1 1    
     4   19    1 1    
     5   11    2 1    
     6    4    3 1    
     7    5    3 1    
     8   20    3 1    
     9   31    4 1    
    10    6    5 1    
    11    7    5 1    
    12   21    5 1    
    13   32    6 1    
    14    8    7 1    
    15    9    7 1    
    16   22    7 1    
    17   33    8 1    
    18   10    9 2    
    19   23    9 1    
    20   24   10 1    
    21   12   11 1    
    22   25   11 1    
    23   26   11 1    
    24   13   12 ar   
    25   18   12 ar   
    26   14   13 1    
    27   15   13 ar   
    28   34   14 1    
    29   16   15 ar   
    30   27   15 1    
    31   17   16 ar   
    32   28   16 1    
    33   18   17 ar   
    34   29   17 1    
    35   30   18 1    
@<TRIPOS>SUBSTRUCTURE
     1 HAH1000     1 GROUP   
@<TRIPOS>SET

