#    Name: 2ojf_4PY_1_INTS_M
#    Modification time : Tue Mar 25 22:47:30 2014

@<TRIPOS>MOLECULE
2ojf_4PY_1_INTS_M
   68     0     9     0     0
SMALL
NO_CHARGES


@<TRIPOS>ATOM
      1 CA         14.2360   13.8845    3.1705 C.3       3 GLC5        0.0000 
      2 CA         13.3740   13.0890    1.3650 C.3       9 GLL5        0.0000 
      3 CA         15.0980   14.6800    4.9760 C.3       6 GLP5        0.0000 
      4 CA         13.2195   11.9285    4.9955 C.3       3 GLC5        0.0000 
      5 CA         14.3980   10.7900    3.5360 C.3       9 GLL5        0.0000 
      6 CA         12.0410   13.0670    6.4550 C.3       6 GLP5        0.0000 
      7 CA         14.7480   12.7350    4.2560 C.3       3 GLC5        0.0000 
      8 CA         15.8270   12.2505    2.7730 C.3       3 GLC5        0.0000 
      9 CA         17.2560   13.7110    2.0100 C.3       6 GLP5        0.0000 
     10 CA         10.8620   11.4780   -1.6730 C.3       3 GLC5        0.0000 
     11 CA         10.9420   10.1600   -0.2710 C.3       9 GLL5        0.0000 
     12 CA         10.7820   12.7960   -3.0750 C.3       6 GLP5        0.0000 
     13 CA          9.0150   11.7705   -1.5380 C.3       3 GLC5        0.0000 
     14 CA          8.5940   10.2670   -0.5150 C.3       9 GLL5        0.0000 
     15 CA          9.4360   13.2740   -2.5610 C.3       6 GLP5        0.0000 
     16 CA          9.2125    8.7580   -1.6420 C.3       3 GLC5        0.0000 
     17 CA          9.8310    7.2490   -2.7690 C.3       6 GLP5        0.0000 
     18 CA         13.1525   14.9365   -2.3485 C.3       3 GLC5        0.0000 
     19 CA         13.6330   13.7020   -1.0080 C.3       9 GLL5        0.0000 
     20 CA         12.6720   16.1710   -3.6890 C.3       6 GLP5        0.0000 
     21 N          10.3110   10.8140   -2.1995 N.am      2 SEC2        0.0000 
     22 N           9.8470   10.2970   -1.0690 N.am      8 SEL2        0.0000 
     23 N          10.7750   11.3310   -3.3300 N.am      5 SEP2        0.0000 
     24 CA          3.9275    8.5595   -0.6915 C.3       3 GLC5        0.0000 
     25 CA          4.5810    9.8910    0.8800 C.3       9 GLL5        0.0000 
     26 CA          3.2740    7.2280   -2.2630 C.3       6 GLP5        0.0000 
     27 CA          4.5380   10.7415   -0.9915 C.3       3 GLC5        0.0000 
     28 CA          4.4950   11.5920   -2.8630 C.3       6 GLP5        0.0000 
     29 O           1.8920   10.1770    2.4260 O.2       1 ALC1        0.0000 
     30 O           3.1040    9.9740    2.9800 O.2       7 ALL1        0.0000 
     31 O           0.6800   10.3800    1.8720 O.2       4 ALP1        0.0000 
     32 N           2.0275    9.6420    4.8095 N.am      2 SEC2        0.0000 
     33 N           3.3670   10.0980    4.2980 N.am      8 SEL2        0.0000 
     34 N           0.6880    9.1860    5.3210 N.am      5 SEP2        0.0000 
     35 CA         15.5310   13.1260    1.6390 C.3       3 GLC5        0.0000 
     36 CA         12.9853   15.2250    1.5805 C.3       3 GLC5        0.0000 
     37 CA         12.7510   16.9280    2.3410 C.3       6 GLP5        0.0000 
     38 CA         11.2997   13.6130    1.2550 C.3       3 GLC5        0.0000 
     39 CA         13.0650   13.9550    0.2750 C.3       9 GLL5        0.0000 
     40 CA          9.3800   13.7040    1.6900 C.3       6 GLP5        0.0000 
     41 CA         16.2037   12.1292    1.8357 C.3       3 GLC5        0.0000 
     42 CA         14.7290   10.9640    2.0510 C.3       9 GLL5        0.0000 
     43 CA         15.9568   12.9380    0.6737 C.3       3 GLC5        0.0000 
     44 CA         14.8100   11.7400   -0.1280 C.3       9 GLL5        0.0000 
     45 CA         10.9468    8.4992   -0.7033 C.3       3 GLC5        0.0000 
     46 CA         10.8350    9.9870    1.1300 C.3       9 GLL5        0.0000 
     47 CA         11.0050    6.9250   -1.8360 C.3       6 GLP5        0.0000 
     48 CA          8.7545   11.9399    1.0012 C.3       3 GLC5        0.0000 
     49 CA          8.3660   10.0990    0.8690 C.3       9 GLL5        0.0000 
     50 CA          7.5000    8.2809    0.2592 C.3       3 GLC5        0.0000 
     51 CA          6.8710    6.3860    0.2060 C.3       6 GLP5        0.0000 
     52 CA          6.6670   12.1337    3.0623 C.3       3 GLC5        0.0000 
     53 CA          6.6430   10.1660    2.7970 C.3       9 GLL5        0.0000 
     54 CA          7.3580   14.1230    3.1220 C.3       6 GLP5        0.0000 
     55 CA          4.7370   11.7103    2.8647 C.3       3 GLC5        0.0000 
     56 CA          3.4980   13.2760    2.7270 C.3       6 GLP5        0.0000 
     57 CA          5.7560    8.2287    1.9608 C.3       3 GLC5        0.0000 
     58 CA          5.3090   10.1230    3.2080 C.3       9 GLL5        0.0000 
     59 CA          5.5360    6.3130    0.9190 C.3       6 GLP5        0.0000 
     60 CA          3.9568   11.6058    2.1382 C.3       3 GLC5        0.0000 
     61 CA          4.9740    8.4326    3.6329 C.3       3 GLC5        0.0000 
     62 CA          4.2500    9.9800    2.2190 C.3       9 GLL5        0.0000 
     63 CA          4.8350    6.8030    4.6550 C.3       6 GLP5        0.0000 
     64 CA          4.9757    8.1242    1.2342 C.3       3 GLC5        0.0000 
     65 CA         14.1950   15.7583   -0.4782 C.3       3 GLC5        0.0000 
     66 CA         15.0410   17.6880   -0.5900 C.3       6 GLP5        0.0000 
     67 CA         12.1745   13.1732   -1.7444 C.3       3 GLC5        0.0000 
     68 CA          9.7926   11.8594    1.3764 C.3       3 GLC5        0.0000 
@<TRIPOS>BOND
@<TRIPOS>SUBSTRUCTURE
     1 ALC1       29 GROUP        1 X    ALC  0     ROOT ALC X 1
     2 SEC2       21 GROUP        1 X    SEC  0     **** SEC X 2
     3 GLC5        1 GROUP        1 X    GLC  0     **** GLC X 6
     4 ALP1       31 GROUP        1 Y    ALP  0     ROOT ALP Y 8
     5 SEP2       23 GROUP        1 Y    SEP  0     **** SEP Y 9
     6 GLP5        3 GROUP        1 Y    GLP  0     **** GLP Y 13
     7 ALL1       30 GROUP        1 Z    ALL  0     ROOT ALL Z 15
     8 SEL2       22 GROUP        1 Z    SEL  0     **** SEL Z 16
     9 GLL5        2 GROUP        1 Z    GLL  0     **** GLL Z 20
@<TRIPOS>SET

