#    Name: 2ojf_4PY_1_ligand
#    Modification time : Tue Mar 25 22:47:30 2014

@<TRIPOS>MOLECULE
2ojf_4PY_1_ligand
   50    54     1     0     0
SMALL
NO_CHARGES


@<TRIPOS>ATOM
      1 C4         13.3740   13.0890    1.3650 C.ar      1 4PY1000     0.0000 
      2 C5         15.5740   10.1310    1.2720 C.2       1 4PY1000     0.0000 
      3 C6         14.3980   10.7900    3.5360 C.3       1 4PY1000     0.0000 
      4 C8         14.5050   12.5900   -1.1970 C.ar      1 4PY1000     0.0000 
      5 C10        13.4150    9.5980    3.8410 C.3       1 4PY1000     0.0000 
      6 C15        10.8350    9.9870    1.1300 C.ar      1 4PY1000     0.0000 
      7 C17        10.9420   10.1600   -0.2710 C.ar      1 4PY1000     0.0000 
      8 C20         6.9620   10.0700    1.4110 C.ar      1 4PY1000     0.0000 
      9 C21         8.5940   10.2670   -0.5150 C.ar      1 4PY1000     0.0000 
     10 C22         6.6430   10.1660    2.7970 C.ar      1 4PY1000     0.0000 
     11 C24         5.3090   10.1230    3.2080 C.ar      1 4PY1000     0.0000 
     12 C26         4.2500    9.9800    2.2190 C.ar      1 4PY1000     0.0000 
     13 C1         14.2380   11.9930    1.1710 C.ar      1 4PY1000     0.0000 
     14 C2         14.7290   10.9640    2.0510 C.2       1 4PY1000     0.0000 
     15 C3         14.8100   11.7400   -0.1280 C.ar      1 4PY1000     0.0000 
     16 N7         15.6170   10.5960   -0.0110 N.pl3     1 4PY1000     0.0000 
     17 C9         13.0650   13.9550    0.2750 C.ar      1 4PY1000     0.0000 
     18 C11        13.6330   13.7020   -1.0080 C.ar      1 4PY1000     0.0000 
     19 C12        11.9520    9.6930    3.3180 C.3       1 4PY1000     0.0000 
     20 N13        14.0050    8.3540    3.3330 N.4       1 4PY1000     0.0000 
     21 O14        12.0090    9.8580    1.8940 O.3       1 4PY1000     0.0000 
     22 C16         9.5220    9.9560    1.6960 C.ar      1 4PY1000     0.0000 
     23 C18         8.3660   10.0990    0.8690 C.ar      1 4PY1000     0.0000 
     24 N19         9.8470   10.2970   -1.0690 N.ar      1 4PY1000     0.0000 
     25 N23         5.8920    9.9360    0.5030 N.ar      1 4PY1000     0.0000 
     26 C25         4.5810    9.8910    0.8800 C.ar      1 4PY1000     0.0000 
     27 C27         4.6750   10.1940    4.5240 C.2       1 4PY1000     0.0000 
     28 N28         3.1040    9.9740    2.9800 N.pl3     1 4PY1000     0.0000 
     29 N29         3.3670   10.0980    4.2980 N.2       1 4PY1000     0.0000 
     30 H          12.9660   13.2693    2.2815 H         1 4PY1000     0.0000 
     31 H          16.0307    9.3664    1.6214 H         1 4PY1000     0.0000 
     32 H          15.3230   10.6167    4.1012 H         1 4PY1000     0.0000 
     33 H          13.9407   11.7107    3.9212 H         1 4PY1000     0.0000 
     34 H          14.9044   12.4222   -2.1246 H         1 4PY1000     0.0000 
     35 H          13.3603    9.5047    4.9473 H         1 4PY1000     0.0000 
     36 H          11.9007   10.1801   -0.6835 H         1 4PY1000     0.0000 
     37 H           7.7522   10.3724   -1.1338 H         1 4PY1000     0.0000 
     38 H           7.3971   10.2656    3.4774 H         1 4PY1000     0.0000 
     39 H          16.1157   10.2152   -0.7382 H         1 4PY1000     0.0000 
     40 H          12.4454   14.7454    0.4116 H         1 4PY1000     0.0000 
     41 H          13.4158   14.3157   -1.7896 H         1 4PY1000     0.0000 
     42 H          11.4865   10.5384    3.8116 H         1 4PY1000     0.0000 
     43 H          11.4457    8.7788    3.6061 H         1 4PY1000     0.0000 
     44 H           9.4102    9.8302    2.7030 H         1 4PY1000     0.0000 
     45 H           3.8346    9.7911    0.1745 H         1 4PY1000     0.0000 
     46 H           5.1591   10.2878    5.3142 H         1 4PY1000     0.0000 
     47 H           2.2017    9.8884    2.5941 H         1 4PY1000     0.0000 
     48 H          14.1628    8.3936    2.3463 H         1 4PY1000     0.0000 
     49 H          14.8863    8.1582    3.7631 H         1 4PY1000     0.0000 
     50 H          13.4139    7.5657    3.5038 H         1 4PY1000     0.0000 
@<TRIPOS>BOND
     1   13    1 ar   
     2   17    1 ar   
     3   30    1 1    
     4   14    2 2    
     5   16    2 1    
     6   31    2 1    
     7    5    3 1    
     8   14    3 1    
     9   32    3 1    
    10   33    3 1    
    11   15    4 ar   
    12   18    4 ar   
    13   34    4 1    
    14   19    5 1    
    15   20    5 1    
    16   35    5 1    
    17    7    6 ar   
    18   21    6 1    
    19   22    6 ar   
    20   24    7 ar   
    21   36    7 1    
    22   10    8 ar   
    23   23    8 1    
    24   25    8 ar   
    25   23    9 ar   
    26   24    9 ar   
    27   37    9 1    
    28   11   10 ar   
    29   38   10 1    
    30   12   11 ar   
    31   27   11 1    
    32   26   12 ar   
    33   28   12 1    
    34   14   13 1    
    35   15   13 ar   
    36   16   15 1    
    37   39   16 1    
    38   18   17 ar   
    39   40   17 1    
    40   41   18 1    
    41   21   19 1    
    42   42   19 1    
    43   43   19 1    
    44   48   20 1    
    45   49   20 1    
    46   50   20 1    
    47   23   22 ar   
    48   44   22 1    
    49   26   25 ar   
    50   45   26 1    
    51   29   27 2    
    52   46   27 1    
    53   29   28 1    
    54   47   28 1    
@<TRIPOS>SUBSTRUCTURE
     1 4PY1000     1 GROUP   
@<TRIPOS>SET

