#    Name: 4bdd_Z0O_1_INTS_M
#    Modification time : Tue Mar 25 07:33:39 2014

@<TRIPOS>MOLECULE
4bdd_Z0O_1_INTS_M
   39     0     6     0     0
SMALL
NO_CHARGES


@<TRIPOS>ATOM
      1 CA        -38.4990   29.4865    0.4965 C.3       2 GLC5        0.0000 
      2 CA        -40.5050   29.0830    1.4190 C.3       6 GLL5        0.0000 
      3 CA        -36.4930   29.8900   -0.4260 C.3       4 GLP5        0.0000 
      4 CA        -41.1525   31.3985    6.6090 C.3       2 GLC5        0.0000 
      5 CA        -39.1400   31.7390    6.1040 C.3       6 GLL5        0.0000 
      6 CA        -43.1650   31.0580    7.1140 C.3       4 GLP5        0.0000 
      7 CA        -40.6275   31.0020    8.4515 C.3       2 GLC5        0.0000 
      8 CA        -38.9390   31.4760    7.4620 C.3       6 GLL5        0.0000 
      9 CA        -42.3160   30.5280    9.4410 C.3       4 GLP5        0.0000 
     10 CA        -35.7445   33.5495    6.7215 C.3       2 GLC5        0.0000 
     11 CA        -37.8560   33.7830    6.3210 C.3       6 GLL5        0.0000 
     12 CA        -33.6330   33.3160    7.1220 C.3       4 GLP5        0.0000 
     13 CA        -36.0580   36.7695    9.3925 C.3       2 GLC5        0.0000 
     14 CA        -36.4140   35.4220    7.8830 C.3       6 GLL5        0.0000 
     15 CA        -35.7020   38.1170   10.9020 C.3       4 GLP5        0.0000 
     16 CA        -34.4370   36.3375    6.6140 C.3       2 GLC5        0.0000 
     17 CA        -36.5740   35.6680    6.5220 C.3       6 GLL5        0.0000 
     18 CA        -32.3000   37.0070    6.7060 C.3       4 GLP5        0.0000 
     19 CA        -37.0645   36.9180    4.9255 C.3       2 GLC5        0.0000 
     20 CA        -37.5550   38.1680    3.3290 C.3       4 GLP5        0.0000 
     21 CA        -35.2825   35.3520    5.1280 C.3       2 GLC5        0.0000 
     22 CA        -33.9910   35.0360    3.7340 C.3       4 GLP5        0.0000 
     23 N         -37.0170   35.4030    4.2825 N.am      1 SEC2        0.0000 
     24 N         -37.2860   34.8810    5.7300 N.am      5 SEL2        0.0000 
     25 N         -36.7480   35.9250    2.8350 N.am      3 SEP2        0.0000 
     26 CA        -39.1402   29.2740    2.5905 C.3       2 GLC5        0.0000 
     27 CA        -37.2260   29.3440    3.2500 C.3       4 GLP5        0.0000 
     28 CA        -38.0480   30.8265    4.5328 C.3       2 GLC5        0.0000 
     29 CA        -39.7343   33.2583    8.6297 C.3       2 GLC5        0.0000 
     30 CA        -40.8830   34.6070    9.4050 C.3       4 GLP5        0.0000 
     31 CA        -39.3250   34.1292    8.2067 C.3       2 GLC5        0.0000 
     32 CA        -37.6780   33.5200    7.6960 C.3       6 GLL5        0.0000 
     33 CA        -36.3434   31.8784    7.4026 C.3       2 GLC5        0.0000 
     34 CA        -34.5550   31.0420    7.0300 C.3       4 GLP5        0.0000 
     35 CA        -36.6370   33.7300    4.5320 C.3       2 GLC5        0.0000 
     36 CA        -35.0460   34.1290    3.1400 C.3       4 GLP5        0.0000 
     37 CA        -37.9145   36.7680    7.1318 C.3       2 GLC5        0.0000 
     38 CA        -39.3350   37.9910    7.0610 C.3       4 GLP5        0.0000 
     39 CA        -35.0635   34.4305    7.1623 C.3       2 GLC5        0.0000 
@<TRIPOS>BOND
@<TRIPOS>SUBSTRUCTURE
     1 SEC2       23 GROUP        1 X    SEC  0     ROOT SEC X 2
     2 GLC5        1 GROUP        1 X    GLC  0     **** GLC X 6
     3 SEP2       25 GROUP        1 Y    SEP  0     ROOT SEP Y 9
     4 GLP5        3 GROUP        1 Y    GLP  0     **** GLP Y 13
     5 SEL2       24 GROUP        1 Z    SEL  0     ROOT SEL Z 16
     6 GLL5        2 GROUP        1 Z    GLL  0     **** GLL Z 20
@<TRIPOS>SET

