#    Name: 4bdd_Z0O_1_ligand
#    Modification time : Tue Mar 25 07:33:39 2014

@<TRIPOS>MOLECULE
4bdd_Z0O_1_ligand
   34    35     1     0     0
SMALL
NO_CHARGES


@<TRIPOS>ATOM
      1 O         -40.0170   31.7010    3.2650 O.2       1 Z0O1514     0.0000 
      2 C         -40.3000   30.8040    4.0610 C.2       1 Z0O1514     0.0000 
      3 N3        -41.0220   29.6920    3.7580 N.am      1 Z0O1514     0.0000 
      4 C9        -41.6040   29.3250    2.4430 C.3       1 Z0O1514     0.0000 
      5 C12       -42.3850   28.0380    2.6640 C.3       1 Z0O1514     0.0000 
      6 C11       -42.5470   30.4120    1.9430 C.3       1 Z0O1514     0.0000 
      7 C10       -40.5050   29.0830    1.4190 C.3       1 Z0O1514     0.0000 
      8 N         -39.9270   30.8000    5.3860 N.am      1 Z0O1514     0.0000 
      9 C1        -39.1400   31.7390    6.1040 C.ar      1 Z0O1514     0.0000 
     10 C8        -38.9390   31.4760    7.4620 C.ar      1 Z0O1514     0.0000 
     11 C7        -38.2320   32.3430    8.2470 C.ar      1 Z0O1514     0.0000 
     12 C6        -37.6780   33.5200    7.6960 C.ar      1 Z0O1514     0.0000 
     13 C3        -37.8560   33.7830    6.3210 C.ar      1 Z0O1514     0.0000 
     14 C2        -38.6000   32.8790    5.5270 C.ar      1 Z0O1514     0.0000 
     15 N2        -36.9450   34.3710    8.4870 N.ar      1 Z0O1514     0.0000 
     16 C5        -36.4140   35.4220    7.8830 C.ar      1 Z0O1514     0.0000 
     17 C4        -36.5740   35.6680    6.5220 C.ar      1 Z0O1514     0.0000 
     18 N1        -37.2860   34.8810    5.7300 N.ar      1 Z0O1514     0.0000 
     19 H         -41.2182   28.9691    4.5266 H         1 Z0O1514     0.0000 
     20 H         -40.2807   29.9570    5.9863 H         1 Z0O1514     0.0000 
     21 H         -39.3371   30.6078    7.8664 H         1 Z0O1514     0.0000 
     22 H         -38.0904   32.1548    9.2520 H         1 Z0O1514     0.0000 
     23 H         -38.7324   33.0764    4.5317 H         1 Z0O1514     0.0000 
     24 H         -35.8393   36.1211    8.4316 H         1 Z0O1514     0.0000 
     25 H         -36.0951   36.5275    6.1313 H         1 Z0O1514     0.0000 
     26 H         -41.7979   27.2996    2.9957 H         1 Z0O1514     0.0000 
     27 H         -43.1146   28.1573    3.3374 H         1 Z0O1514     0.0000 
     28 H         -42.8145   27.7147    1.8208 H         1 Z0O1514     0.0000 
     29 H         -42.0783   31.2885    1.8329 H         1 Z0O1514     0.0000 
     30 H         -42.9451   30.1790    1.0558 H         1 Z0O1514     0.0000 
     31 H         -43.3073   30.5635    2.5747 H         1 Z0O1514     0.0000 
     32 H         -39.9402   29.8966    1.2810 H         1 Z0O1514     0.0000 
     33 H         -39.8918   28.3447    1.6998 H         1 Z0O1514     0.0000 
     34 H         -40.8782   28.8304    0.5263 H         1 Z0O1514     0.0000 
@<TRIPOS>BOND
     1    2    1 2    
     2    3    2 am   
     3    8    2 am   
     4    4    3 1    
     5   19    3 1    
     6    5    4 1    
     7    6    4 1    
     8    7    4 1    
     9   26    5 1    
    10   27    5 1    
    11   28    5 1    
    12   29    6 1    
    13   30    6 1    
    14   31    6 1    
    15   32    7 1    
    16   33    7 1    
    17   34    7 1    
    18    9    8 1    
    19   20    8 1    
    20   10    9 ar   
    21   14    9 ar   
    22   11   10 ar   
    23   21   10 1    
    24   12   11 ar   
    25   22   11 1    
    26   13   12 ar   
    27   15   12 ar   
    28   14   13 ar   
    29   18   13 ar   
    30   23   14 1    
    31   16   15 ar   
    32   17   16 ar   
    33   24   16 1    
    34   18   17 ar   
    35   25   17 1    
@<TRIPOS>SUBSTRUCTURE
     1 Z0O1514     1 GROUP   
@<TRIPOS>SET

