#    Name: 3dj7_AK7_1_INTS_M
#    Modification time : Mon Mar 24 23:29:41 2014

@<TRIPOS>MOLECULE
3dj7_AK7_1_INTS_M
  103     0     9     0     0
SMALL
NO_CHARGES


@<TRIPOS>ATOM
      1 O           3.0550   34.2025    7.2880 O.2       1 ALC1        0.0000 
      2 O           3.3880   32.8230    6.6870 O.2       7 ALL1        0.0000 
      3 O           2.7220   35.5820    7.8890 O.2       4 ALP1        0.0000 
      4 CA         10.8000   18.7155    5.6285 C.3       3 GLC5        0.0000 
      5 CA         11.7430   19.7850    7.0750 C.3       9 GLL5        0.0000 
      6 CA          9.8570   17.6460    4.1820 C.3       6 GLP5        0.0000 
      7 CA         13.5135   20.4940    6.2540 C.3       3 GLC5        0.0000 
      8 CA         12.7720   18.9840    7.5550 C.3       9 GLL5        0.0000 
      9 CA         14.2550   22.0040    4.9530 C.3       6 GLP5        0.0000 
     10 CA         12.0330   17.1325    7.7030 C.3       3 GLC5        0.0000 
     11 CA         11.2940   15.2810    7.8510 C.3       6 GLP5        0.0000 
     12 N           9.5615   23.2160    7.1035 N.am      2 SEC2        0.0000 
     13 N           9.9200   23.0620    8.4630 N.am      8 SEL2        0.0000 
     14 N           9.2030   23.3700    5.7440 N.am      5 SEP2        0.0000 
     15 CA         14.6290   21.3560   10.1885 C.3       3 GLC5        0.0000 
     16 CA         13.0920   20.5040    9.4070 C.3       9 GLL5        0.0000 
     17 CA         16.1660   22.2080   10.9700 C.3       6 GLP5        0.0000 
     18 CA          8.4680   29.1290   11.1585 C.3       3 GLC5        0.0000 
     19 CA          9.3550   27.4880   10.2770 C.3       9 GLL5        0.0000 
     20 CA          7.5810   30.7700   12.0400 C.3       6 GLP5        0.0000 
     21 CA          8.2170   27.0125   11.6115 C.3       3 GLC5        0.0000 
     22 CA          7.0790   26.5370   12.9460 C.3       6 GLP5        0.0000 
     23 CA         11.4160   27.2315   10.2260 C.3       3 GLC5        0.0000 
     24 CA         13.4770   26.9750   10.1750 C.3       6 GLP5        0.0000 
     25 CA          7.8790   29.5950   10.1970 C.3       3 GLC5        0.0000 
     26 CA          8.1770   28.4200    8.3540 C.3       9 GLL5        0.0000 
     27 CA          7.9820   30.4575    8.6420 C.3       3 GLC5        0.0000 
     28 CA          7.7870   32.4950    8.9300 C.3       6 GLP5        0.0000 
     29 CA          5.7765   26.9515    6.7935 C.3       3 GLC5        0.0000 
     30 CA          6.7540   27.9470    8.0580 C.3       9 GLL5        0.0000 
     31 CA          4.7990   25.9560    5.5290 C.3       6 GLP5        0.0000 
     32 CA          6.1970   26.8640    9.5470 C.3       3 GLC5        0.0000 
     33 CA          5.6400   25.7810   11.0360 C.3       6 GLP5        0.0000 
     34 CA          2.9810   29.8605    9.9415 C.3       3 GLC5        0.0000 
     35 CA          4.4220   31.0040    9.5780 C.3       9 GLL5        0.0000 
     36 CA          1.5400   28.7170   10.3050 C.3       6 GLP5        0.0000 
     37 CA          6.0015   30.8870   10.8090 C.3       3 GLC5        0.0000 
     38 CA          3.0475   31.8360   10.8070 C.3       3 GLC5        0.0000 
     39 CA          1.6730   32.6680   12.0360 C.3       6 GLP5        0.0000 
     40 CA          4.6875   33.1170    9.6405 C.3       3 GLC5        0.0000 
     41 CA          4.9530   35.2300    9.7030 C.3       6 GLP5        0.0000 
     42 CA          6.1045   31.7495    9.2540 C.3       3 GLC5        0.0000 
     43 CA          6.5735   31.2165    8.3180 C.3       3 GLC5        0.0000 
     44 CA          5.3600   29.9380    7.7060 C.3       9 GLL5        0.0000 
     45 CA          2.0670   31.0450    7.2710 C.3       3 GLC5        0.0000 
     46 CA          3.9860   31.8860    7.4620 C.3       9 GLL5        0.0000 
     47 CA          0.1480   30.2040    7.0800 C.3       6 GLP5        0.0000 
     48 CA          4.4695   33.5580    8.5825 C.3       3 GLC5        0.0000 
     49 CA          5.8865   32.1905    8.1960 C.3       3 GLC5        0.0000 
     50 CA          2.8985   30.4110    4.8525 C.3       3 GLC5        0.0000 
     51 CA          4.9410   30.8730    5.0090 C.3       9 GLL5        0.0000 
     52 CA          0.8560   29.9490    4.6960 C.3       6 GLP5        0.0000 
     53 CA          6.4235   31.9840    4.0280 C.3       3 GLC5        0.0000 
     54 CA          7.9060   33.0950    3.0470 C.3       6 GLP5        0.0000 
     55 N           3.3830   33.0410    9.6930 N.am      2 SEC2        0.0000 
     56 N           3.8330   31.9260    8.8030 N.am      8 SEL2        0.0000 
     57 N           2.9330   34.1560   10.5830 N.am      5 SEP2        0.0000 
     58 N          11.3970   27.3630   10.7080 N.am      2 SEC2        0.0000 
     59 N           9.9290   26.5170   10.7280 N.am      8 SEL2        0.0000 
     60 N          12.8650   28.2090   10.6880 N.am      5 SEP2        0.0000 
     61 CA          8.1555   24.5540    7.7330 C.3       3 GLC5        0.0000 
     62 CA          9.2250   25.8430    8.4270 C.3       9 GLL5        0.0000 
     63 CA          7.0860   23.2650    7.0390 C.3       6 GLP5        0.0000 
     64 CA         11.3800   26.4150    8.5320 C.3       3 GLC5        0.0000 
     65 CA         13.5350   26.9870    8.6370 C.3       6 GLP5        0.0000 
     66 O          11.3745   24.2975   11.3925 O.2       1 ALC1        0.0000 
     67 O          10.5530   24.3350   10.1770 O.2       7 ALL1        0.0000 
     68 O          12.1960   24.2600   12.6080 O.2       4 ALP1        0.0000 
     69 O          12.2435   22.3260   10.9405 O.2       1 ALC1        0.0000 
     70 O          11.7210   22.4730    9.6440 O.2       7 ALL1        0.0000 
     71 O          12.7660   22.1790   12.2370 O.2       4 ALP1        0.0000 
     72 O          11.9585   23.3665   11.1260 O.2       1 ALC1        0.0000 
     73 CA         10.4445   19.8460    8.4030 C.3       3 GLC5        0.0000 
     74 CA         12.0570   21.3070    8.9320 C.3       9 GLL5        0.0000 
     75 CA          8.8320   18.3850    7.8740 C.3       6 GLP5        0.0000 
     76 CA         12.6660   16.3255    8.7900 C.3       3 GLC5        0.0000 
     77 CA         14.0380   17.3700    9.7290 C.3       9 GLL5        0.0000 
     78 CA         14.4285   18.3840   11.7240 C.3       3 GLC5        0.0000 
     79 CA         15.2790   19.0980   10.1230 C.3       9 GLL5        0.0000 
     80 CA         13.5780   17.6700   13.3250 C.3       6 GLP5        0.0000 
     81 CA         11.7733   21.1318    5.6692 C.3       3 GLC5        0.0000 
     82 CA         11.3880   20.9400    7.7640 C.3       9 GLL5        0.0000 
     83 CA         11.9810   21.9010    3.9190 C.3       6 GLP5        0.0000 
     84 CA         10.5004   19.0291    7.6806 C.3       3 GLC5        0.0000 
     85 CA          7.3567   26.1850    9.9005 C.3       3 GLC5        0.0000 
     86 CA          8.9220   27.3350    9.1030 C.3       9 GLL5        0.0000 
     87 CA          9.9034   29.2699    9.6665 C.3       3 GLC5        0.0000 
     88 CA         11.1490   30.6240   10.3110 C.3       6 GLP5        0.0000 
     89 CA          4.0728   28.6730    7.1800 C.3       3 GLC5        0.0000 
     90 CA          3.0880   26.9330    7.0640 C.3       6 GLP5        0.0000 
     91 CA          6.3690   32.0328    6.2518 C.3       3 GLC5        0.0000 
     92 CA          4.7550   30.8880    6.8860 C.3       9 GLL5        0.0000 
     93 CA          7.8900   33.1850    6.5560 C.3       6 GLP5        0.0000 
     94 CA         11.9854   19.5259   10.5116 C.3       3 GLC5        0.0000 
     95 CA         10.9590   18.9270   12.0800 C.3       6 GLP5        0.0000 
     96 CA         13.3665   17.4290   11.0412 C.3       3 GLC5        0.0000 
     97 CA         12.4340   16.9400   12.6130 C.3       6 GLP5        0.0000 
     98 CA         15.5427   20.4950   10.3182 C.3       3 GLC5        0.0000 
     99 CA         14.5600   18.4660    9.2100 C.3       9 GLL5        0.0000 
    100 CA         15.5212   16.4582    8.4191 C.3       3 GLC5        0.0000 
    101 CA         16.2240   14.8830    8.0080 C.3       6 GLP5        0.0000 
    102 CA         16.3809   17.8814   10.4923 C.3       3 GLC5        0.0000 
    103 CA         17.7130   17.1970   11.5080 C.3       6 GLP5        0.0000 
@<TRIPOS>BOND
@<TRIPOS>SUBSTRUCTURE
     1 ALC1        1 GROUP        1 X    ALC  0     ROOT ALC X 1
     2 SEC2       12 GROUP        1 X    SEC  0     **** SEC X 2
     3 GLC5        4 GROUP        1 X    GLC  0     **** GLC X 6
     4 ALP1        3 GROUP        1 Y    ALP  0     ROOT ALP Y 8
     5 SEP2       14 GROUP        1 Y    SEP  0     **** SEP Y 9
     6 GLP5        6 GROUP        1 Y    GLP  0     **** GLP Y 13
     7 ALL1        2 GROUP        1 Z    ALL  0     ROOT ALL Z 15
     8 SEL2       13 GROUP        1 Z    SEL  0     **** SEL Z 16
     9 GLL5        5 GROUP        1 Z    GLL  0     **** GLL Z 20
@<TRIPOS>SET

