#    Name: 3dj7_AK7_1_ligand
#    Modification time : Mon Mar 24 23:29:41 2014

@<TRIPOS>MOLECULE
3dj7_AK7_1_ligand
   45    47     1     0     0
SMALL
NO_CHARGES


@<TRIPOS>ATOM
      1 N29         3.3880   32.8230    6.6870 N.pl3     1 AK71        0.0000 
      2 C24        11.3880   20.9400    7.7640 C.ar      1 AK71        0.0000 
      3 C23        11.7430   19.7850    7.0750 C.ar      1 AK71        0.0000 
      4 C22        12.7720   18.9840    7.5550 C.ar      1 AK71        0.0000 
      5 C16        10.7500   23.3310    9.3170 C.2       1 AK71        0.0000 
      6 O18         9.9200   23.0620    8.4630 O.2       1 AK71        0.0000 
      7 C20        13.0920   20.5040    9.4070 C.ar      1 AK71        0.0000 
      8 C12         9.9710   25.5000    9.8730 C.2       1 AK71        0.0000 
      9 C14         9.3550   27.4880   10.2770 C.2       1 AK71        0.0000 
     10 C10         8.9220   27.3350    9.1030 C.2       1 AK71        0.0000 
     11 C9          8.1770   28.4200    8.3540 C.3       1 AK71        0.0000 
     12 C8          6.7540   27.9470    8.0580 C.3       1 AK71        0.0000 
     13 C4          4.4220   31.0040    9.5780 C.ar      1 AK71        0.0000 
     14 C6          5.3600   29.9380    7.7060 C.ar      1 AK71        0.0000 
     15 C2          3.9860   31.8860    7.4620 C.ar      1 AK71        0.0000 
     16 C1          4.7550   30.8880    6.8860 C.ar      1 AK71        0.0000 
     17 BR30        4.9410   30.8730    5.0090 Br        1 AK71        0.0000 
     18 N5          5.1730   30.0270    9.0460 N.ar      1 AK71        0.0000 
     19 N3          3.8330   31.9260    8.8030 N.ar      1 AK71        0.0000 
     20 N7          6.1300   28.9410    7.1900 N.pl3     1 AK71        0.0000 
     21 N13         9.9290   26.5170   10.7280 N.2       1 AK71        0.0000 
     22 S11         9.2250   25.8430    8.4270 S.3       1 AK71        0.0000 
     23 N15        10.5530   24.3350   10.1770 N.am      1 AK71        0.0000 
     24 N17        11.7210   22.4730    9.6440 N.am      1 AK71        0.0000 
     25 C19        12.0570   21.3070    8.9320 C.ar      1 AK71        0.0000 
     26 C21        13.4490   19.3440    8.7170 C.ar      1 AK71        0.0000 
     27 C25        14.5600   18.4660    9.2100 C.3       1 AK71        0.0000 
     28 F26        14.0380   17.3700    9.7290 F         1 AK71        0.0000 
     29 F27        15.3380   18.1490    8.1910 F         1 AK71        0.0000 
     30 F28        15.2790   19.0980   10.1230 F         1 AK71        0.0000 
     31 H           3.0878   32.5197    5.7827 H         1 AK71        0.0000 
     32 H           3.2999   33.7348    7.0880 H         1 AK71        0.0000 
     33 H          10.6214   21.5334    7.4088 H         1 AK71        0.0000 
     34 H          11.2460   19.5257    6.2147 H         1 AK71        0.0000 
     35 H          13.0341   18.1260    7.0533 H         1 AK71        0.0000 
     36 H          13.5931   20.7645   10.2648 H         1 AK71        0.0000 
     37 H           9.2193   28.3833   10.7971 H         1 AK71        0.0000 
     38 H           8.6830   28.6331    7.4192 H         1 AK71        0.0000 
     39 H           8.1348   29.3192    8.9582 H         1 AK71        0.0000 
     40 H           6.2209   27.8555    8.9966 H         1 AK71        0.0000 
     41 H           6.8081   26.9803    7.5721 H         1 AK71        0.0000 
     42 H           4.2936   31.0465   10.6217 H         1 AK71        0.0000 
     43 H           6.3006   28.8499    6.1786 H         1 AK71        0.0000 
     44 H          10.8888   24.1953   11.1935 H         1 AK71        0.0000 
     45 H          12.3110   22.6656   10.5206 H         1 AK71        0.0000 
@<TRIPOS>BOND
     1   15    1 1    
     2   31    1 1    
     3   32    1 1    
     4    3    2 ar   
     5   25    2 ar   
     6   33    2 1    
     7    4    3 ar   
     8   34    3 1    
     9   26    4 ar   
    10   35    4 1    
    11    6    5 2    
    12   23    5 am   
    13   24    5 am   
    14   25    7 ar   
    15   26    7 ar   
    16   36    7 1    
    17   21    8 2    
    18   22    8 1    
    19   23    8 1    
    20   10    9 2    
    21   21    9 1    
    22   37    9 1    
    23   11   10 1    
    24   22   10 1    
    25   12   11 1    
    26   38   11 1    
    27   39   11 1    
    28   20   12 1    
    29   40   12 1    
    30   41   12 1    
    31   18   13 ar   
    32   19   13 ar   
    33   42   13 1    
    34   16   14 ar   
    35   18   14 ar   
    36   20   14 1    
    37   16   15 ar   
    38   19   15 ar   
    39   17   16 1    
    40   43   20 1    
    41   44   23 1    
    42   25   24 1    
    43   45   24 1    
    44   27   26 1    
    45   28   27 1    
    46   29   27 1    
    47   30   27 1    
@<TRIPOS>SUBSTRUCTURE
     1 AK71        1 GROUP   
@<TRIPOS>SET

