#    Name: 2hc0_AB2_1_INTS_M
#    Modification time : Tue Mar 25 15:51:18 2014

@<TRIPOS>MOLECULE
2hc0_AB2_1_INTS_M
   99     0     9     0     0
SMALL
NO_CHARGES


@<TRIPOS>ATOM
      1 CA         54.7085   24.6155    5.2130 C.3       3 GLC5        0.0000 
      2 CA         53.1930   23.5340    6.0630 C.3       9 GLL5        0.0000 
      3 CA         56.2240   25.6970    4.3630 C.3       6 GLP5        0.0000 
      4 CA         53.6190   24.6675    7.2645 C.3       3 GLC5        0.0000 
      5 CA         54.0450   25.8010    8.4660 C.3       6 GLP5        0.0000 
      6 CA         51.2105   24.1870    6.3800 C.3       3 GLC5        0.0000 
      7 CA         49.2280   24.8400    6.6970 C.3       6 GLP5        0.0000 
      8 CA         51.8185   22.6980    6.7455 C.3       3 GLC5        0.0000 
      9 CA         50.4440   21.8620    7.4280 C.3       6 GLP5        0.0000 
     10 N          55.3740   24.6140    7.0255 N.am      2 SEC2        0.0000 
     11 N          54.4760   23.3770    6.6050 N.am      8 SEL2        0.0000 
     12 N          56.2720   25.8510    7.4460 N.am      5 SEP2        0.0000 
     13 CA         55.7115   23.9760    5.6640 C.3       3 GLC5        0.0000 
     14 CA         55.1990   22.2550    6.9650 C.3       9 GLL5        0.0000 
     15 CA         54.6220   24.0280    7.7155 C.3       3 GLC5        0.0000 
     16 CA         55.8685   24.3065    8.2845 C.3       3 GLC5        0.0000 
     17 CA         56.2500   22.2870    7.9880 C.3       9 GLL5        0.0000 
     18 CA         55.4870   26.3260    8.5810 C.3       6 GLP5        0.0000 
     19 CA         55.4670   17.6725    6.2820 C.3       3 GLC5        0.0000 
     20 CA         55.5830   19.8640    6.5960 C.3       9 GLL5        0.0000 
     21 CA         55.3510   15.4810    5.9680 C.3       6 GLP5        0.0000 
     22 CA         52.9120   20.7600    6.7420 C.3       3 GLC5        0.0000 
     23 CA         54.8740   21.0580    6.2690 C.3       9 GLL5        0.0000 
     24 CA         50.9500   20.4620    7.2150 C.3       6 GLP5        0.0000 
     25 CA         61.0175   19.7325    1.8395 C.3       3 GLC5        0.0000 
     26 CA         59.9670   18.2810    2.9300 C.3       9 GLL5        0.0000 
     27 CA         62.0680   21.1840    0.7490 C.3       6 GLP5        0.0000 
     28 CA         60.1435   17.7945    1.0970 C.3       3 GLC5        0.0000 
     29 CA         60.3200   17.3080   -0.7360 C.3       6 GLP5        0.0000 
     30 CA         61.8355   20.2535    2.6285 C.3       3 GLC5        0.0000 
     31 CA         61.6030   19.3230    4.5080 C.3       9 GLL5        0.0000 
     32 CA         63.7560   19.4035    4.6430 C.3       3 GLC5        0.0000 
     33 CA         65.9090   19.4840    4.7780 C.3       6 GLP5        0.0000 
     34 CA         62.2245   20.8215    4.7730 C.3       3 GLC5        0.0000 
     35 CA         62.8460   22.3200    5.0380 C.3       6 GLP5        0.0000 
     36 CA         59.9665   21.1955    7.2415 C.3       3 GLC5        0.0000 
     37 CA         60.3150   19.1620    7.5380 C.3       9 GLL5        0.0000 
     38 CA         59.6180   23.2290    6.9450 C.3       6 GLP5        0.0000 
     39 N          63.6795   19.3610    7.5870 N.am      2 SEC2        0.0000 
     40 N          62.6320   18.8780    8.3770 N.am      8 SEL2        0.0000 
     41 N          64.7270   19.8440    6.7970 N.am      5 SEP2        0.0000 
     42 N          62.9945   20.1490    8.4810 N.am      2 SEC2        0.0000 
     43 N          63.3570   21.4200    8.5850 N.am      5 SEP2        0.0000 
     44 O          62.2510   19.7125    9.1565 O.2       1 ALC1        0.0000 
     45 O          62.6320   18.8780    8.3770 O.2       7 ALL1        0.0000 
     46 O          61.8700   20.5470    9.9360 O.2       4 ALP1        0.0000 
     47 CA         58.8270   18.6910   11.4315 C.3       3 GLC5        0.0000 
     48 CA         59.3020   16.7480   11.4530 C.3       9 GLL5        0.0000 
     49 CA         58.3520   20.6340   11.4100 C.3       6 GLP5        0.0000 
     50 CA         59.6585   16.3630   14.1665 C.3       3 GLC5        0.0000 
     51 CA         58.5860   15.8110   12.2840 C.3       9 GLL5        0.0000 
     52 CA         60.7310   16.9150   16.0490 C.3       6 GLP5        0.0000 
     53 CA         57.2935   14.3155   11.4350 C.3       3 GLC5        0.0000 
     54 CA         59.1750   14.5390   12.5560 C.3       9 GLL5        0.0000 
     55 CA         55.4120   14.0920   10.3140 C.3       6 GLP5        0.0000 
     56 CA         64.6840   15.7695    8.1800 C.3       3 GLC5        0.0000 
     57 CA         62.7950   15.2510    8.0420 C.3       9 GLL5        0.0000 
     58 CA         66.5730   16.2880    8.3180 C.3       6 GLP5        0.0000 
     59 CA         64.7820   12.0495    5.4575 C.3       3 GLC5        0.0000 
     60 CA         63.9280   13.0300    7.2490 C.3       9 GLL5        0.0000 
     61 CA         65.6360   11.0690    3.6660 C.3       6 GLP5        0.0000 
     62 CA         63.7980   10.9885    6.5705 C.3       3 GLC5        0.0000 
     63 CA         63.6680    8.9470    5.8920 C.3       6 GLP5        0.0000 
     64 CA         64.1045   13.9990    5.5970 C.3       3 GLC5        0.0000 
     65 CA         64.2810   14.9680    3.9450 C.3       6 GLP5        0.0000 
     66 CA         61.5155    9.8015   11.8540 C.3       3 GLC5        0.0000 
     67 CA         62.8510   10.7790   13.1870 C.3       9 GLL5        0.0000 
     68 CA         60.1800    8.8240   10.5210 C.3       6 GLP5        0.0000 
     69 CA         61.9780   15.7925   14.8970 C.3       3 GLC5        0.0000 
     70 CA         63.2250   14.6700   13.7450 C.3       9 GLL5        0.0000 
     71 CA         64.2650   17.0140   13.1450 C.3       3 GLC5        0.0000 
     72 CA         64.1130   14.8980   12.6360 C.3       9 GLL5        0.0000 
     73 CA         64.4170   19.1300   13.6540 C.3       6 GLP5        0.0000 
     74 CA         55.5610   21.9363    9.8620 C.3       3 GLC5        0.0000 
     75 CA         56.9620   21.0680    8.2780 C.3       9 GLL5        0.0000 
     76 CA         54.5160   22.1950   11.5910 C.3       6 GLP5        0.0000 
     77 CA         55.9817   19.2078    9.3435 C.3       3 GLC5        0.0000 
     78 CA         55.1510   17.9420   10.7610 C.3       6 GLP5        0.0000 
     79 CA         58.1063   21.9751    8.1582 C.3       3 GLC5        0.0000 
     80 CA         56.6630   19.8790    7.5740 C.3       9 GLL5        0.0000 
     81 CA         59.5780   23.1720    8.4630 C.3       6 GLP5        0.0000 
     82 CA         57.4932   20.7061    9.6318 C.3       3 GLC5        0.0000 
     83 CA         62.2484   18.0475    2.9824 C.3       3 GLC5        0.0000 
     84 CA         60.3740   18.4170    4.4010 C.3       9 GLL5        0.0000 
     85 CA         63.6100   17.2590    1.8780 C.3       6 GLP5        0.0000 
     86 CA         57.1070   16.3768   11.5353 C.3       3 GLC5        0.0000 
     87 CA         55.2700   16.4740   11.2020 C.3       6 GLP5        0.0000 
     88 CA         58.7882   13.7085   11.2385 C.3       3 GLC5        0.0000 
     89 CA         58.6960   12.2420   10.0570 C.3       6 GLP5        0.0000 
     90 CA         57.5113   14.5570   13.3900 C.3       3 GLC5        0.0000 
     91 CA         56.1420   13.9390   14.3600 C.3       6 GLP5        0.0000 
     92 CA         59.7475   13.4078   10.8483 C.3       3 GLC5        0.0000 
     93 CA         60.4510   14.1180   12.0740 C.3       9 GLL5        0.0000 
     94 CA         63.5295   14.7942    5.8580 C.3       3 GLC5        0.0000 
     95 CA         64.9002   14.8460    7.0853 C.3       3 GLC5        0.0000 
     96 CA         62.7610   13.9900    7.5000 C.3       9 GLL5        0.0000 
     97 CA         66.4560   16.1820    6.7960 C.3       6 GLP5        0.0000 
     98 CA         62.0057   12.0390    6.4337 C.3       3 GLC5        0.0000 
     99 CA         60.6670   10.5680    5.4930 C.3       6 GLP5        0.0000 
@<TRIPOS>BOND
@<TRIPOS>SUBSTRUCTURE
     1 ALC1       44 GROUP        1 X    ALC  0     ROOT ALC X 1
     2 SEC2       10 GROUP        1 X    SEC  0     **** SEC X 2
     3 GLC5        1 GROUP        1 X    GLC  0     **** GLC X 6
     4 ALP1       46 GROUP        1 Y    ALP  0     ROOT ALP Y 8
     5 SEP2       12 GROUP        1 Y    SEP  0     **** SEP Y 9
     6 GLP5        3 GROUP        1 Y    GLP  0     **** GLP Y 13
     7 ALL1       45 GROUP        1 Z    ALL  0     ROOT ALL Z 15
     8 SEL2       11 GROUP        1 Z    SEL  0     **** SEL Z 16
     9 GLL5        2 GROUP        1 Z    GLL  0     **** GLL Z 20
@<TRIPOS>SET

