#    Name: 2hc0_AB2_1_ligand
#    Modification time : Tue Mar 25 15:51:18 2014

@<TRIPOS>MOLECULE
2hc0_AB2_1_ligand
   88    92     1     0     0
SMALL
NO_CHARGES


@<TRIPOS>ATOM
      1 C1         53.1930   23.5340    6.0630 C.3       1 AB23500     0.0000 
      2 O1         54.4760   23.3770    6.6050 O.3       1 AB23500     0.0000 
      3 C2         55.1990   22.2550    6.9650 C.ar      1 AB23500     0.0000 
      4 C3         56.2500   22.2870    7.9880 C.ar      1 AB23500     0.0000 
      5 C4         56.9620   21.0680    8.2780 C.ar      1 AB23500     0.0000 
      6 C5         56.6630   19.8790    7.5740 C.ar      1 AB23500     0.0000 
      7 C6         55.5830   19.8640    6.5960 C.ar      1 AB23500     0.0000 
      8 C7         54.8740   21.0580    6.2690 C.ar      1 AB23500     0.0000 
      9 S1         57.7370   18.4360    7.6840 S.o2      1 AB23500     0.0000 
     10 O2         57.9130   18.2340    9.0710 O.2       1 AB23500     0.0000 
     11 O3         57.0780   17.3690    7.0930 O.2       1 AB23500     0.0000 
     12 N1         59.1490   18.8140    6.7520 N.pl3     1 AB23500     0.0000 
     13 C8         59.2890   19.0050    5.3030 C.3       1 AB23500     0.0000 
     14 C9         60.3740   18.4170    4.4010 C.3       1 AB23500     0.0000 
     15 C10        59.9670   18.2810    2.9300 C.3       1 AB23500     0.0000 
     16 C11        61.6030   19.3230    4.5080 C.3       1 AB23500     0.0000 
     17 C12        60.3150   19.1620    7.5380 C.3       1 AB23500     0.0000 
     18 C13        61.4050   18.3390    8.0130 C.3       1 AB23500     0.0000 
     19 O4         62.6320   18.8780    8.3770 O.3       1 AB23500     0.0000 
     20 C14        60.8940   16.9650    8.5600 C.3       1 AB23500     0.0000 
     21 C15        61.3680   17.2940   10.0370 C.3       1 AB23500     0.0000 
     22 C16        60.5760   16.3180   10.9400 C.ar      1 AB23500     0.0000 
     23 C17        59.3020   16.7480   11.4530 C.ar      1 AB23500     0.0000 
     24 C18        58.5860   15.8110   12.2840 C.ar      1 AB23500     0.0000 
     25 C19        59.1750   14.5390   12.5560 C.ar      1 AB23500     0.0000 
     26 C20        60.4510   14.1180   12.0740 C.ar      1 AB23500     0.0000 
     27 C21        61.1470   15.0290   11.2050 C.ar      1 AB23500     0.0000 
     28 N2         61.5050   15.6960    8.0910 N.pl3     1 AB23500     0.0000 
     29 C22        62.7950   15.2510    8.0420 C.2       1 AB23500     0.0000 
     30 C23        62.7610   13.9900    7.5000 C.2       1 AB23500     0.0000 
     31 C24        63.9280   13.0300    7.2490 C.3       1 AB23500     0.0000 
     32 O5         64.6120   12.4660    8.3730 O.3       1 AB23500     0.0000 
     33 C25        64.0400   11.4310    9.1890 C.2       1 AB23500     0.0000 
     34 O6         62.9470   10.9320    9.1830 O.2       1 AB23500     0.0000 
     35 N3         64.5300   11.7200   10.3400 N.am      1 AB23500     0.0000 
     36 C26        64.5210   11.0710   11.5830 C.3       1 AB23500     0.0000 
     37 C27        64.1110   10.0950   12.6660 C.3       1 AB23500     0.0000 
     38 O7         64.0730    8.6790   12.4480 O.3       1 AB23500     0.0000 
     39 C28        62.8510   10.7790   13.1870 C.3       1 AB23500     0.0000 
     40 C29        63.4330   12.1830   13.4170 C.ar      1 AB23500     0.0000 
     41 C30        62.9040   13.2990   14.1220 C.ar      1 AB23500     0.0000 
     42 C31        63.2250   14.6700   13.7450 C.ar      1 AB23500     0.0000 
     43 C32        64.1130   14.8980   12.6360 C.ar      1 AB23500     0.0000 
     44 C33        64.6100   13.7750   11.9070 C.ar      1 AB23500     0.0000 
     45 C34        64.3220   12.4120   12.3210 C.ar      1 AB23500     0.0000 
     46 N4         61.4550   13.7200    7.2690 N.2       1 AB23500     0.0000 
     47 N5         60.7390   14.7250    7.5640 N.2       1 AB23500     0.0000 
     48 H          56.4576   23.1364    8.4640 H         1 AB23500     0.0000 
     49 H          57.6838   21.0755    8.9976 H         1 AB23500     0.0000 
     50 H          55.3410   18.9830    6.1472 H         1 AB23500     0.0000 
     51 H          54.1589   21.0514    5.5601 H         1 AB23500     0.0000 
     52 H          59.2804   20.1549    5.0856 H         1 AB23500     0.0000 
     53 H          58.2694   18.7279    4.7998 H         1 AB23500     0.0000 
     54 H          60.6556   17.4439    4.7839 H         1 AB23500     0.0000 
     55 H          59.9122   19.7719    8.4871 H         1 AB23500     0.0000 
     56 H          60.8144   20.1084    6.9996 H         1 AB23500     0.0000 
     57 H          61.7320   17.8497    6.8263 H         1 AB23500     0.0000 
     58 H          59.8505   17.0006    8.5990 H         1 AB23500     0.0000 
     59 H          61.1036   18.2922   10.2610 H         1 AB23500     0.0000 
     60 H          62.4036   17.0975   10.1099 H         1 AB23500     0.0000 
     61 H          58.9339   17.6418   11.2469 H         1 AB23500     0.0000 
     62 H          57.6871   16.0560   12.6624 H         1 AB23500     0.0000 
     63 H          58.6322   13.8673   13.1514 H         1 AB23500     0.0000 
     64 H          60.8425   13.2426   12.3226 H         1 AB23500     0.0000 
     65 H          62.0247   14.7632   10.7885 H         1 AB23500     0.0000 
     66 H          63.5686   15.7193    8.3264 H         1 AB23500     0.0000 
     67 H          64.6583   13.5772    6.5740 H         1 AB23500     0.0000 
     68 H          63.5324   12.2089    6.5725 H         1 AB23500     0.0000 
     69 H          65.0995   12.7046   10.4037 H         1 AB23500     0.0000 
     70 H          65.8011   11.1599   11.8683 H         1 AB23500     0.0000 
     71 H          64.8699   10.3342   13.5189 H         1 AB23500     0.0000 
     72 H          62.5662   10.3634   14.0968 H         1 AB23500     0.0000 
     73 H          62.1275   10.8165   12.4409 H         1 AB23500     0.0000 
     74 H          62.2776   13.1508   14.9204 H         1 AB23500     0.0000 
     75 H          62.8293   15.4356   14.2553 H         1 AB23500     0.0000 
     76 H          64.3766   15.8353   12.3821 H         1 AB23500     0.0000 
     77 H          65.1830   13.9222   11.0726 H         1 AB23500     0.0000 
     78 H          52.9671   24.4970    5.9164 H         1 AB23500     0.0000 
     79 H          53.1043   23.0743    5.1794 H         1 AB23500     0.0000 
     80 H          52.4877   23.1555    6.6624 H         1 AB23500     0.0000 
     81 H          60.7032   17.8932    2.3753 H         1 AB23500     0.0000 
     82 H          59.1712   17.6858    2.8183 H         1 AB23500     0.0000 
     83 H          59.7307   19.1651    2.5268 H         1 AB23500     0.0000 
     84 H          61.9454   19.3751    5.4461 H         1 AB23500     0.0000 
     85 H          62.3568   18.9951    3.9386 H         1 AB23500     0.0000 
     86 H          61.4014   20.2583    4.2172 H         1 AB23500     0.0000 
     87 H          62.5178   19.1614    9.3292 H         1 AB23500     0.0000 
     88 H          64.9966    8.4383   12.1495 H         1 AB23500     0.0000 
@<TRIPOS>BOND
     1    2    1 1    
     2   78    1 1    
     3   79    1 1    
     4   80    1 1    
     5    3    2 1    
     6    4    3 ar   
     7    8    3 ar   
     8    5    4 ar   
     9   48    4 1    
    10    6    5 ar   
    11   49    5 1    
    12    7    6 ar   
    13    9    6 1    
    14    8    7 ar   
    15   50    7 1    
    16   51    8 1    
    17   10    9 2    
    18   11    9 2    
    19   12    9 1    
    20   13   12 1    
    21   17   12 1    
    22   14   13 1    
    23   52   13 1    
    24   53   13 1    
    25   15   14 1    
    26   16   14 1    
    27   54   14 1    
    28   81   15 1    
    29   82   15 1    
    30   83   15 1    
    31   84   16 1    
    32   85   16 1    
    33   86   16 1    
    34   18   17 1    
    35   55   17 1    
    36   56   17 1    
    37   19   18 1    
    38   20   18 1    
    39   57   18 1    
    40   87   19 1    
    41   21   20 1    
    42   28   20 1    
    43   58   20 1    
    44   22   21 1    
    45   59   21 1    
    46   60   21 1    
    47   23   22 ar   
    48   27   22 ar   
    49   24   23 ar   
    50   61   23 1    
    51   25   24 ar   
    52   62   24 1    
    53   26   25 ar   
    54   63   25 1    
    55   27   26 ar   
    56   64   26 1    
    57   65   27 1    
    58   29   28 1    
    59   47   28 1    
    60   30   29 2    
    61   66   29 1    
    62   31   30 1    
    63   46   30 1    
    64   32   31 1    
    65   67   31 1    
    66   68   31 1    
    67   33   32 1    
    68   34   33 2    
    69   35   33 am   
    70   36   35 1    
    71   69   35 1    
    72   37   36 1    
    73   45   36 1    
    74   70   36 1    
    75   38   37 1    
    76   39   37 1    
    77   71   37 1    
    78   88   38 1    
    79   40   39 1    
    80   72   39 1    
    81   73   39 1    
    82   41   40 ar   
    83   45   40 ar   
    84   42   41 ar   
    85   74   41 1    
    86   43   42 ar   
    87   75   42 1    
    88   44   43 ar   
    89   76   43 1    
    90   45   44 ar   
    91   77   44 1    
    92   47   46 2    
@<TRIPOS>SUBSTRUCTURE
     1 AB23500     1 GROUP   
@<TRIPOS>SET

