#    Name: 3U4H_1_CAVITY_N1_6.mol2
#    Modification time : Tue Mar 11 06:00:52 2014

@<TRIPOS>MOLECULE
3U4H_1_CAVITY_N1_6.mol2
   84     0     6     0     0
SMALL
NO_CHARGES


@<TRIPOS>ATOM
      1 CA         -2.3685    4.3260   -4.6322 C.3       5 GLY6        0.0000 
      2 OG         -3.3371    4.2260   -3.4913 O.2       1 SER1        0.0000 
      3 CA         -4.3058    4.1260   -2.3504 C.3       5 GLY6        0.0000 
      4 CZ         -3.5271    2.7665   -3.7805 C.ar      4 PHE5        0.0000 
      5 CA         -4.4958    2.6664   -2.6396 C.3       5 GLY6        0.0000 
      6 CZ         -2.7484    1.4069   -5.2107 C.ar      4 PHE5        0.0000 
      7 CZ         -3.7171    1.3069   -4.0698 C.ar      4 PHE5        0.0000 
      8 OG         -4.6858    1.2069   -2.9288 O.2       1 SER1        0.0000 
      9 CZ         -1.9698    0.0474   -6.6408 C.ar      4 PHE5        0.0000 
     10 CZ         -2.9384   -0.0526   -5.4999 C.ar      4 PHE5        0.0000 
     11 DU         -3.9071   -0.1526   -4.3590 H         6 CUB7        0.0000 
     12 DU         -4.8757   -0.2526   -3.2181 H         6 CUB7        0.0000 
     13 OG         -5.8444   -0.3526   -2.0772 O.2       1 SER1        0.0000 
     14 DU         -3.1284   -1.5121   -5.7892 H         6 CUB7        0.0000 
     15 DU         -4.0970   -1.6122   -4.6482 H         6 CUB7        0.0000 
     16 CA         -5.0657   -1.7122   -3.5073 C.3       5 GLY6        0.0000 
     17 CA         -6.0344   -1.8122   -2.3664 C.3       5 GLY6        0.0000 
     18 DU         -4.2870   -3.0717   -4.9375 H         6 CUB7        0.0000 
     19 N          -2.2077    3.8947   -2.5614 N.2       2 ALA2        0.0000 
     20 CA         -3.1764    3.7947   -1.4205 C.3       5 GLY6        0.0000 
     21 CZ         -2.3977    2.4352   -2.8506 C.ar      4 PHE5        0.0000 
     22 CA         -3.3663    2.3352   -1.7097 C.3       5 GLY6        0.0000 
     23 CZ         -2.5877    0.9756   -3.1399 C.ar      4 PHE5        0.0000 
     24 OG         -3.5563    0.8756   -1.9990 O.2       1 SER1        0.0000 
     25 OG         -4.5250    0.7756   -0.8581 O.2       1 SER1        0.0000 
     26 CZ         -2.7776   -0.4839   -3.4291 C.ar      4 PHE5        0.0000 
     27 CA         -3.7463   -0.5839   -2.2882 C.3       5 GLY6        0.0000 
     28 CA         -4.7150   -0.6839   -1.1473 C.3       5 GLY6        0.0000 
     29 CA         -1.0303   -1.7434   -6.0002 C.3       5 GLY6        0.0000 
     30 CZ         -1.9990   -1.8434   -4.8593 C.ar      4 PHE5        0.0000 
     31 DU         -2.9676   -1.9434   -3.7184 H         6 CUB7        0.0000 
     32 CA         -3.9363   -2.0435   -2.5775 C.3       5 GLY6        0.0000 
     33 NZ         -2.1889   -3.3030   -5.1485 N.2       3 LYS4        0.0000 
     34 O          -3.1576   -3.4030   -4.0076 O.2       2 ALA2        0.0000 
     35 O          -3.3476   -4.8625   -4.2969 O.2       2 ALA2        0.0000 
     36 O          -6.9154    3.7603   -6.5701 O.2       2 ALA2        0.0000 
     37 N          -1.0783    3.5634   -1.6315 N.2       2 ALA2        0.0000 
     38 CZ         -1.2683    2.1039   -1.9208 C.ar      4 PHE5        0.0000 
     39 OG         -2.2369    2.0039   -0.7799 O.2       1 SER1        0.0000 
     40 CZ         -1.4582    0.6444   -2.2100 C.ar      4 PHE5        0.0000 
     41 OG         -2.4269    0.5443   -1.0691 O.2       1 SER1        0.0000 
     42 OG         -3.3956    0.4443    0.0718 O.2       1 SER1        0.0000 
     43 CZ         -0.6796   -0.7152   -3.6402 C.ar      4 PHE5        0.0000 
     44 CZ         -1.6482   -0.8152   -2.4993 C.ar      4 PHE5        0.0000 
     45 CZ         -2.6169   -0.9152   -1.3583 C.ar      4 PHE5        0.0000 
     46 NZ         -0.8695   -2.1747   -3.9294 N.2       3 LYS4        0.0000 
     47 CZ         -1.8382   -2.2747   -2.7885 C.ar      4 PHE5        0.0000 
     48 NZ         -1.0595   -3.6342   -4.2187 N.2       3 LYS4        0.0000 
     49 O           1.0198    3.3322   -1.8426 O.2       2 ALA2        0.0000 
     50 NZ          0.0511    3.2321   -0.7017 N.2       3 LYS4        0.0000 
     51 CZ         -0.1388    1.7726   -0.9909 C.ar      4 PHE5        0.0000 
     52 OG         -1.1075    1.6726    0.1500 O.2       1 SER1        0.0000 
     53 CZ         -0.3288    0.3131   -1.2802 C.ar      4 PHE5        0.0000 
     54 OG         -1.2975    0.2131   -0.1392 O.2       1 SER1        0.0000 
     55 CZ          0.4499   -1.0464   -2.7103 C.ar      4 PHE5        0.0000 
     56 CZ         -0.5188   -1.1465   -1.5694 C.ar      4 PHE5        0.0000 
     57 O          -3.4979    4.6573   -5.5621 O.2       2 ALA2        0.0000 
     58 OG         -4.4666    4.5573   -4.4211 O.2       1 SER1        0.0000 
     59 O          -2.7192    3.2978   -6.9922 O.2       2 ALA2        0.0000 
     60 CZ         -3.6879    3.1978   -5.8513 C.ar      4 PHE5        0.0000 
     61 DU         -4.6565    3.0977   -4.7104 H         6 CUB7        0.0000 
     62 O          -5.6252    2.9977   -3.5695 O.2       2 ALA2        0.0000 
     63 CZ         -2.9092    1.8382   -7.2815 C.ar      4 PHE5        0.0000 
     64 CZ         -3.8779    1.7382   -6.1405 C.ar      4 PHE5        0.0000 
     65 DU         -4.8465    1.6382   -4.9996 H         6 CUB7        0.0000 
     66 OG         -5.8152    1.5382   -3.8587 O.2       1 SER1        0.0000 
     67 OG         -6.7838    1.4382   -2.7178 O.2       1 SER1        0.0000 
     68 DU         -4.0678    0.2787   -6.4298 H         6 CUB7        0.0000 
     69 DU         -6.0052    0.0787   -4.1479 H         6 CUB7        0.0000 
     70 OG         -6.9738   -0.0214   -3.0070 O.2       1 SER1        0.0000 
     71 O           2.1492    3.0009   -0.9127 O.2       2 ALA2        0.0000 
     72 NZ          1.1806    2.9009    0.2282 N.2       3 LYS4        0.0000 
     73 O           1.9593    1.5413   -1.2020 O.2       2 ALA2        0.0000 
     74 CA          0.9906    1.4413   -0.0611 C.3       5 GLY6        0.0000 
     75 CA          0.0219    1.3413    1.0799 C.3       5 GLY6        0.0000 
     76 CZ          1.7693    0.0818   -1.4912 C.ar      4 PHE5        0.0000 
     77 CA          0.8006   -0.0182   -0.3503 C.3       5 GLY6        0.0000 
     78 CA         -3.8487    3.6291   -7.9221 C.3       5 GLY6        0.0000 
     79 O          -4.8173    3.5290   -6.7812 O.2       2 ALA2        0.0000 
     80 O          -5.7860    3.4290   -5.6402 O.2       2 ALA2        0.0000 
     81 O          -6.7546    3.3290   -4.4993 O.2       2 ALA2        0.0000 
     82 DU         -5.0073    2.0695   -7.0704 H         6 CUB7        0.0000 
     83 DU         -5.9760    1.9695   -5.9295 H         6 CUB7        0.0000 
     84 DU         -6.9446    1.8695   -4.7886 H         6 CUB7        0.0000 
@<TRIPOS>BOND
@<TRIPOS>SUBSTRUCTURE
     1 SER1        2 GROUP   
     2 ALA2       19 GROUP   
     3 LYS4       33 GROUP   
     4 PHE5        4 GROUP   
     5 GLY6        1 GROUP   
     6 CUB7       11 GROUP   
@<TRIPOS>SET

