#    Name: 3u4h_C8R_1_INTS_M
#    Modification time : Mon Mar 24 21:36:38 2014

@<TRIPOS>MOLECULE
3u4h_C8R_1_INTS_M
   56     0    12     0     0
SMALL
NO_CHARGES


@<TRIPOS>ATOM
      1 N           2.1610   -0.1965   -1.4640 N.am      2 SEC2        0.0000 
      2 N           0.9580   -0.1910   -0.8750 N.am     10 SEL2        0.0000 
      3 N           3.3640   -0.2020   -2.0530 N.am      6 SEP2        0.0000 
      4 O           0.0745   -4.3915   -5.0675 O.2       1 ALC1        0.0000 
      5 O          -0.9730   -3.7690   -4.4360 O.2       9 ALL1        0.0000 
      6 O           1.1220   -5.0140   -5.6990 O.2       5 ALP1        0.0000 
      7 CA         -3.2150   -3.6100   -2.6495 C.3       4 GLC5        0.0000 
      8 CA         -3.5810   -2.3360   -4.3020 C.3      12 GLL5        0.0000 
      9 CA         -2.8490   -4.8840   -0.9970 C.3       8 GLP5        0.0000 
     10 NZ         -6.0130    4.7410   -6.8405 N.4       3 LYC4        0.0000 
     11 NZ         -5.7680    3.3900   -6.4200 N.4      11 LYL4        0.0000 
     12 NZ         -7.3990    6.7840   -7.3380 N.4       7 LYP4        0.0000 
     13 N          -6.0130    4.7410   -6.8405 N.am      2 SEC2        0.0000 
     14 N          -5.7680    3.3900   -6.4200 N.am     10 SEL2        0.0000 
     15 N          -6.2580    6.0920   -7.2610 N.am      6 SEP2        0.0000 
     16 N          -6.1065    4.4485   -2.3510 N.am      2 SEC2        0.0000 
     17 N          -5.5650    3.6300   -3.3390 N.am     10 SEL2        0.0000 
     18 N          -6.6480    5.2670   -1.3630 N.am      6 SEP2        0.0000 
     19 CA         -1.6055    1.7860    1.8555 C.3       4 GLC5        0.0000 
     20 CA         -0.7980    1.9120    0.0490 C.3      12 GLL5        0.0000 
     21 CA         -2.4130    1.6600    3.6620 C.3       8 GLP5        0.0000 
     22 CA         -2.8135    2.5590    0.6625 C.3       4 GLC5        0.0000 
     23 CA         -4.8290    3.2060    1.2760 C.3       8 GLP5        0.0000 
     24 CA         -4.9325   -3.2245   -2.1285 C.3       4 GLC5        0.0000 
     25 CA         -4.8210   -1.9440   -3.5250 C.3      12 GLL5        0.0000 
     26 CA         -5.0440   -4.5050   -0.7320 C.3       8 GLP5        0.0000 
     27 N          -2.6720    4.3760   -7.5620 N.am      2 SEC2        0.0000 
     28 N          -3.4120    3.1060   -7.4010 N.am     10 SEL2        0.0000 
     29 N          -1.9320    5.6460   -7.7230 N.am      6 SEP2        0.0000 
     30 N          -3.6265    6.5740   -4.1405 N.am      2 SEC2        0.0000 
     31 N          -3.7730    5.5780   -3.2300 N.am     10 SEL2        0.0000 
     32 N          -3.4800    7.5700   -5.0510 N.am      6 SEP2        0.0000 
     33 N          -4.0575    6.0195   -1.8510 N.am      2 SEC2        0.0000 
     34 N          -4.3420    6.4610   -0.4720 N.am      6 SEP2        0.0000 
     35 O           0.7170    3.3730    1.5380 O.2       1 ALC1        0.0000 
     36 O           1.4310    2.7130    0.6390 O.2       9 ALL1        0.0000 
     37 O           0.0030    4.0330    2.4370 O.2       5 ALP1        0.0000 
     38 N           1.6500    5.6495   -1.7045 N.am      2 SEC2        0.0000 
     39 N           0.9000    4.8340   -0.6890 N.am     10 SEL2        0.0000 
     40 N           2.4000    6.4650   -2.7200 N.am      6 SEP2        0.0000 
     41 O           0.2795    5.3450    0.2660 O.2       1 ALC1        0.0000 
     42 O           0.9000    4.8340   -0.6890 O.2       9 ALL1        0.0000 
     43 O          -0.3410    5.8560    1.2210 O.2       5 ALP1        0.0000 
     44 CA         -3.3470    3.6635   -0.6830 C.3       4 GLC5        0.0000 
     45 CA         -1.2060    3.8300   -1.2980 C.3      12 GLL5        0.0000 
     46 CA         -5.4880    3.4970   -0.0680 C.3       8 GLP5        0.0000 
     47 CA         -1.9005    5.9345   -1.2630 C.3       4 GLC5        0.0000 
     48 CA         -2.5950    8.0390   -1.2280 C.3       8 GLP5        0.0000 
     49 CA         -1.0585    2.9335   -4.2925 C.3       4 GLC5        0.0000 
     50 CA         -1.7310    3.4330   -2.6830 C.3      12 GLL5        0.0000 
     51 CA         -0.3860    2.4340   -5.9020 C.3       8 GLP5        0.0000 
     52 CA          0.4650    0.7775    1.2245 C.3       4 GLC5        0.0000 
     53 CA          0.5540    2.4120   -0.4530 C.3      12 GLL5        0.0000 
     54 CA          1.0520   -0.6070    2.6510 C.3       8 GLP5        0.0000 
     55 CA          1.1347    2.5820   -2.5922 C.3       4 GLC5        0.0000 
     56 CA          1.8400    2.1240   -4.3180 C.3       8 GLP5        0.0000 
@<TRIPOS>BOND
@<TRIPOS>SUBSTRUCTURE
     1 ALC1        4 GROUP        1 X    ALC  0     ROOT ALC X 1
     2 SEC2        1 GROUP        1 X    SEC  0     **** SEC X 2
     3 LYC4       10 GROUP        1 X    LYC  0     **** LYC X 4
     4 GLC5        7 GROUP        1 X    GLC  0     **** GLC X 6
     5 ALP1        6 GROUP        1 Y    ALP  0     ROOT ALP Y 8
     6 SEP2        3 GROUP        1 Y    SEP  0     **** SEP Y 9
     7 LYP4       12 GROUP        1 Y    LYP  0     **** LYP Y 11
     8 GLP5        9 GROUP        1 Y    GLP  0     **** GLP Y 13
     9 ALL1        5 GROUP        1 Z    ALL  0     ROOT ALL Z 15
    10 SEL2        2 GROUP        1 Z    SEL  0     **** SEL Z 16
    11 LYL4       11 GROUP        1 Z    LYL  0     **** LYL Z 18
    12 GLL5        8 GROUP        1 Z    GLL  0     **** GLL Z 20
@<TRIPOS>SET

