#    Name: 3u4h_C8R_1_ligand
#    Modification time : Mon Mar 24 21:36:38 2014

@<TRIPOS>MOLECULE
3u4h_C8R_1_ligand
   55    59     1     0     0
SMALL
NO_CHARGES


@<TRIPOS>ATOM
      1 N1         -1.2180    0.8440   -0.8780 N.am      1 C8R401      0.0000 
      2 C2         -2.4800    0.8380   -1.3420 C.2       1 C8R401      0.0000 
      3 N3         -2.9570   -0.0600   -2.2220 N.2       1 C8R401      0.0000 
      4 C4         -2.1630   -1.0480   -2.7150 C.2       1 C8R401      0.0000 
      5 C5         -0.7630   -1.1460   -2.2750 C.2       1 C8R401      0.0000 
      6 C6         -0.3030   -0.1290   -1.3210 C.2       1 C8R401      0.0000 
      7 O6          0.9580   -0.1910   -0.8750 O.2       1 C8R401      0.0000 
      8 N7         -0.1870   -2.1970   -2.8920 N.2       1 C8R401      0.0000 
      9 C8         -1.1740   -2.6920   -3.6460 C.2       1 C8R401      0.0000 
     10 N8         -0.9730   -3.7690   -4.4360 N.pl3     1 C8R401      0.0000 
     11 N9         -2.3490   -2.0590   -3.5590 N.pl3     1 C8R401      0.0000 
     12 PA         -4.3270    2.9980   -6.2170 P.3       1 C8R401      0.0000 
     13 PB         -4.1400    4.1400   -3.5330 P.3       1 C8R401      0.0000 
     14 C1'        -3.5810   -2.3360   -4.3020 C.3       1 C8R401      0.0000 
     15 O1A        -5.7680    3.3900   -6.4200 O.co2     1 C8R401      0.0000 
     16 O1B        -5.5650    3.6300   -3.3390 O.co2     1 C8R401      0.0000 
     17 C1D        -0.7980    1.9120    0.0490 C.3       1 C8R401      0.0000 
     18 C2'        -4.8210   -1.9440   -3.5250 C.3       1 C8R401      0.0000 
     19 O2'        -5.7460   -3.0130   -3.7070 O.3       1 C8R401      0.0000 
     20 O2A        -3.4120    3.1060   -7.4010 O.co2     1 C8R401      0.0000 
     21 O2B        -3.7730    5.5780   -3.2300 O.co2     1 C8R401      0.0000 
     22 C2D         0.5540    2.4120   -0.4530 C.3       1 C8R401      0.0000 
     23 O2D         1.4310    2.7130    0.6390 O.3       1 C8R401      0.0000 
     24 C3'        -5.3610   -0.7080   -4.2190 C.3       1 C8R401      0.0000 
     25 O3'        -6.7860   -0.7160   -4.2600 O.3       1 C8R401      0.0000 
     26 O3A        -3.6340    3.9150   -5.0590 O.3       1 C8R401      0.0000 
     27 C3D         0.3050    3.6680   -1.2800 C.3       1 C8R401      0.0000 
     28 O3D         0.9000    4.8340   -0.6890 O.3       1 C8R401      0.0000 
     29 C4'        -4.7890   -0.8470   -5.6140 C.3       1 C8R401      0.0000 
     30 O4'        -3.4970   -1.4260   -5.4060 O.3       1 C8R401      0.0000 
     31 C4D        -1.2060    3.8300   -1.2980 C.3       1 C8R401      0.0000 
     32 O4D        -1.6870    3.0050   -0.2210 O.3       1 C8R401      0.0000 
     33 C5'        -4.7400    0.4620   -6.3920 C.3       1 C8R401      0.0000 
     34 O5'        -4.2320    1.5290   -5.6000 O.3       1 C8R401      0.0000 
     35 C5D        -1.7310    3.4330   -2.6830 C.3       1 C8R401      0.0000 
     36 O5D        -3.1430    3.1670   -2.7150 O.3       1 C8R401      0.0000 
     37 H          -3.1487    1.5976   -0.9878 H         1 C8R401      0.0000 
     38 H          -0.0442   -3.8909   -4.7858 H         1 C8R401      0.0000 
     39 H          -1.7709   -4.3488   -4.6009 H         1 C8R401      0.0000 
     40 H          -3.6318   -3.3219   -4.6234 H         1 C8R401      0.0000 
     41 H          -0.7578    1.6286    1.0096 H         1 C8R401      0.0000 
     42 H          -4.5825   -1.7456   -2.5453 H         1 C8R401      0.0000 
     43 H           0.9677    1.6630   -1.1049 H         1 C8R401      0.0000 
     44 H          -4.9424    0.1455   -3.7665 H         1 C8R401      0.0000 
     45 H           0.6314    3.4925   -2.2759 H         1 C8R401      0.0000 
     46 H          -5.4219   -1.5574   -6.1498 H         1 C8R401      0.0000 
     47 H          -1.4186    4.8679   -1.1216 H         1 C8R401      0.0000 
     48 H          -5.7638    0.6744   -6.7522 H         1 C8R401      0.0000 
     49 H          -4.1198    0.2922   -7.2917 H         1 C8R401      0.0000 
     50 H          -1.1485    2.5464   -3.0161 H         1 C8R401      0.0000 
     51 H          -1.4612    4.2509   -3.3862 H         1 C8R401      0.0000 
     52 H          -6.5803   -2.5782   -4.0457 H         1 C8R401      0.0000 
     53 H           0.8625    3.2031    1.2998 H         1 C8R401      0.0000 
     54 H          -7.0294   -0.0151   -4.9304 H         1 C8R401      0.0000 
     55 H           0.1298    5.3723   -0.3469 H         1 C8R401      0.0000 
@<TRIPOS>BOND
     1    2    1 1    
     2    6    1 am   
     3   17    1 1    
     4    3    2 2    
     5   37    2 1    
     6    4    3 1    
     7    5    4 2    
     8   11    4 1    
     9    6    5 1    
    10    8    5 1    
    11    7    6 2    
    12    9    8 2    
    13   10    9 1    
    14   11    9 1    
    15   38   10 1    
    16   39   10 1    
    17   14   11 1    
    18   15   12 ar   
    19   20   12 ar   
    20   26   12 1    
    21   34   12 1    
    22   16   13 ar   
    23   21   13 ar   
    24   26   13 1    
    25   36   13 1    
    26   18   14 1    
    27   30   14 1    
    28   40   14 1    
    29   22   17 1    
    30   32   17 1    
    31   41   17 1    
    32   19   18 1    
    33   24   18 1    
    34   42   18 1    
    35   52   19 1    
    36   23   22 1    
    37   27   22 1    
    38   43   22 1    
    39   53   23 1    
    40   25   24 1    
    41   29   24 1    
    42   44   24 1    
    43   54   25 1    
    44   28   27 1    
    45   31   27 1    
    46   45   27 1    
    47   55   28 1    
    48   30   29 1    
    49   33   29 1    
    50   46   29 1    
    51   32   31 1    
    52   35   31 1    
    53   47   31 1    
    54   34   33 1    
    55   48   33 1    
    56   49   33 1    
    57   36   35 1    
    58   50   35 1    
    59   51   35 1    
@<TRIPOS>SUBSTRUCTURE
     1 C8R401      1 GROUP   
@<TRIPOS>SET

