#    Name: 2nq6_HM4_1_INTS_M
#    Modification time : Tue Mar 25 21:29:48 2014

@<TRIPOS>MOLECULE
2nq6_HM4_1_INTS_M
   24     0     6     0     0
SMALL
NO_CHARGES


@<TRIPOS>ATOM
      1 Zn         43.7975   21.7420   36.5155 Zn        1 ZIC7        0.0000 
      2 Zn         43.4430   21.8760   37.4730 Zn        5 ZIL7        0.0000 
      3 Zn         44.1520   21.6080   35.5580 Zn        3 ZIP7        0.0000 
      4 CA         49.1430   16.8130   36.5535 C.3       2 GLC5        0.0000 
      5 CA         47.6650   17.5820   35.1110 C.3       6 GLL5        0.0000 
      6 CA         50.6210   16.0440   37.9960 C.3       4 GLP5        0.0000 
      7 CA         48.0235   15.5945   34.8165 C.3       2 GLC5        0.0000 
      8 CA         48.3820   13.6070   34.5220 C.3       4 GLP5        0.0000 
      9 CA         47.3780   17.9040   42.4430 C.3       2 GLC5        0.0000 
     10 CA         45.8310   17.3250   43.7690 C.3       6 GLL5        0.0000 
     11 CA         48.9250   18.4830   41.1170 C.3       4 GLP5        0.0000 
     12 CA         47.2550   16.3335   43.5235 C.3       2 GLC5        0.0000 
     13 CA         48.6790   15.3420   43.2780 C.3       4 GLP5        0.0000 
     14 CA         46.3205   21.2125   43.5460 C.3       2 GLC5        0.0000 
     15 CA         45.6970   19.5330   44.6540 C.3       6 GLL5        0.0000 
     16 CA         46.9440   22.8920   42.4380 C.3       4 GLP5        0.0000 
     17 CA         49.1560   18.0478   33.7782 C.3       2 GLC5        0.0000 
     18 CA         50.7390   17.9530   32.8630 C.3       4 GLP5        0.0000 
     19 CA         46.7240   18.4608   32.9507 C.3       2 GLC5        0.0000 
     20 CA         47.4810   18.7030   34.2760 C.3       6 GLL5        0.0000 
     21 CA         45.8750   18.7790   31.2080 C.3       4 GLP5        0.0000 
     22 CA         44.6292   22.7379   39.4894 C.3       2 GLC5        0.0000 
     23 CA         42.7950   22.1450   40.1500 C.3       6 GLL5        0.0000 
     24 CA         46.3660   23.2100   39.9310 C.3       4 GLP5        0.0000 
@<TRIPOS>BOND
@<TRIPOS>SUBSTRUCTURE
     1 ZIC7        1 GROUP        1 X    ZIC  0     ROOT ZIC X 5
     2 GLC5        4 GROUP        1 X    GLC  0     **** GLC X 6
     3 ZIP7        3 GROUP        1 Y    ZIP  0     ROOT ZIP Y 12
     4 GLP5        6 GROUP        1 Y    GLP  0     **** GLP Y 13
     5 ZIL7        2 GROUP        1 Z    ZIL  0     ROOT ZIL Z 19
     6 GLL5        5 GROUP        1 Z    GLL  0     **** GLL Z 20
@<TRIPOS>SET

