#    Name: 2nq6_HM4_1_ligand
#    Modification time : Tue Mar 25 21:29:48 2014

@<TRIPOS>MOLECULE
2nq6_HM4_1_ligand
   37    38     1     0     0
SMALL
NO_CHARGES


@<TRIPOS>ATOM
      1 S          46.6490   17.7760   36.4070 S.3       1 HM4410      0.0000 
      2 N1         46.5630   19.5820   34.7430 N.2       1 HM4410      0.0000 
      3 N2         45.0780   20.0020   36.4810 N.am      1 HM4410      0.0000 
      4 N3         43.4430   21.8760   37.4730 N.ar      1 HM4410      0.0000 
      5 N4         44.2400   20.0750   40.5390 N.am      1 HM4410      0.0000 
      6 C1         47.6650   17.5820   35.1110 C.2       1 HM4410      0.0000 
      7 C2         47.4810   18.7030   34.2760 C.2       1 HM4410      0.0000 
      8 C3         46.0140   19.2520   35.8630 C.2       1 HM4410      0.0000 
      9 C4         44.8070   19.8850   37.7920 C.2       1 HM4410      0.0000 
     10 C5         43.9560   20.9590   38.3470 C.ar      1 HM4410      0.0000 
     11 C6         42.6480   22.8880   37.8300 C.ar      1 HM4410      0.0000 
     12 C7         42.3130   23.0380   39.1760 C.ar      1 HM4410      0.0000 
     13 C8         42.7950   22.1450   40.1500 C.ar      1 HM4410      0.0000 
     14 C9         43.6720   21.0260   39.7240 C.ar      1 HM4410      0.0000 
     15 C10        44.1660   19.9120   41.8960 C.2       1 HM4410      0.0000 
     16 C11        44.9300   18.5210   43.8040 C.3       1 HM4410      0.0000 
     17 C12        45.8310   17.3250   43.7690 C.3       1 HM4410      0.0000 
     18 C13        43.4540   18.0670   44.2760 C.3       1 HM4410      0.0000 
     19 C14        45.6970   19.5330   44.6540 C.3       1 HM4410      0.0000 
     20 O1         45.2950   18.9690   38.4750 O.2       1 HM4410      0.0000 
     21 O2         43.5450   20.6400   42.5860 O.2       1 HM4410      0.0000 
     22 O3         44.8570   18.8740   42.4100 O.3       1 HM4410      0.0000 
     23 H          44.8558   19.3209   40.0103 H         1 HM4410      0.0000 
     24 H          48.1773   16.8549   35.0774 H         1 HM4410      0.0000 
     25 H          47.9881   18.8105   33.4353 H         1 HM4410      0.0000 
     26 H          42.2750   23.5598   37.1455 H         1 HM4410      0.0000 
     27 H          41.7004   23.8171   39.4675 H         1 HM4410      0.0000 
     28 H          42.5705   22.2327   41.1228 H         1 HM4410      0.0000 
     29 H          46.7583   17.5668   43.4832 H         1 HM4410      0.0000 
     30 H          45.9050   16.8894   44.6661 H         1 HM4410      0.0000 
     31 H          45.4999   16.6291   43.1317 H         1 HM4410      0.0000 
     32 H          43.4657   17.6554   45.1873 H         1 HM4410      0.0000 
     33 H          42.8212   18.8405   44.3119 H         1 HM4410      0.0000 
     34 H          43.0566   17.3918   43.6545 H         1 HM4410      0.0000 
     35 H          46.5846   19.7585   44.2523 H         1 HM4410      0.0000 
     36 H          45.1938   20.3914   44.7537 H         1 HM4410      0.0000 
     37 H          45.8719   19.1870   45.5758 H         1 HM4410      0.0000 
@<TRIPOS>BOND
     1    6    1 1    
     2    8    1 1    
     3    7    2 1    
     4    8    2 2    
     5    8    3 1    
     6    9    3 am   
     7   10    4 ar   
     8   11    4 ar   
     9   14    5 1    
    10   15    5 am   
    11   23    5 1    
    12    7    6 2    
    13   24    6 1    
    14   25    7 1    
    15   10    9 1    
    16   20    9 2    
    17   14   10 ar   
    18   12   11 ar   
    19   26   11 1    
    20   13   12 ar   
    21   27   12 1    
    22   14   13 ar   
    23   28   13 1    
    24   21   15 2    
    25   22   15 1    
    26   17   16 1    
    27   18   16 1    
    28   19   16 1    
    29   22   16 1    
    30   29   17 1    
    31   30   17 1    
    32   31   17 1    
    33   32   18 1    
    34   33   18 1    
    35   34   18 1    
    36   35   19 1    
    37   36   19 1    
    38   37   19 1    
@<TRIPOS>SUBSTRUCTURE
     1 HM4410      1 GROUP   
@<TRIPOS>SET

