#    Name: 4hmh_F94_1_INTS_M
#    Modification time : Tue Mar 25 01:12:42 2014

@<TRIPOS>MOLECULE
4hmh_F94_1_INTS_M
   44     0     9     0     0
SMALL
NO_CHARGES


@<TRIPOS>ATOM
      1 CA          2.1280  -13.6060  -10.7870 C.3       3 GLC5        0.0000 
      2 CA          2.5950  -11.6580  -10.1080 C.3       9 GLL5        0.0000 
      3 CA          1.6610  -15.5540  -11.4660 C.3       6 GLP5        0.0000 
      4 CA          3.8365  -10.4275  -12.6125 C.3       3 GLC5        0.0000 
      5 CA          2.6810  -11.8700  -11.4910 C.3       9 GLL5        0.0000 
      6 CA          4.9920   -8.9850  -13.7340 C.3       6 GLP5        0.0000 
      7 CA          2.9095  -13.6715  -11.5825 C.3       3 GLC5        0.0000 
      8 CA          3.1380  -15.4730  -11.6740 C.3       6 GLP5        0.0000 
      9 O           7.7360  -12.6895  -16.4135 O.2       1 ALC1        0.0000 
     10 O           7.1800  -12.4750  -15.3690 O.2       7 ALL1        0.0000 
     11 O           8.2920  -12.9040  -17.4580 O.2       4 ALP1        0.0000 
     12 CA          3.0000  -10.5295  -16.4605 C.3       3 GLC5        0.0000 
     13 CA          3.5200  -12.3520  -15.5080 C.3       9 GLL5        0.0000 
     14 CA          2.4800   -8.7070  -17.4130 C.3       6 GLP5        0.0000 
     15 CA          2.0725  -13.9410  -15.9550 C.3       3 GLC5        0.0000 
     16 CA          0.6250  -15.5300  -16.4020 C.3       6 GLP5        0.0000 
     17 N          -0.5255  -12.4830  -14.3675 N.am      2 SEC2        0.0000 
     18 N           0.8940  -12.2240  -14.5080 N.am      8 SEL2        0.0000 
     19 N          -1.9450  -12.7420  -14.2270 N.am      5 SEP2        0.0000 
     20 N           0.5370  -12.7755  -15.9320 N.am      2 SEC2        0.0000 
     21 N           0.1800  -13.3270  -17.3560 N.am      5 SEP2        0.0000 
     22 CA         -0.0340  -10.5955  -13.0900 C.3       3 GLC5        0.0000 
     23 CA          1.6200  -11.9370  -12.3830 C.3       9 GLL5        0.0000 
     24 CA         -1.6880   -9.2540  -13.7970 C.3       6 GLP5        0.0000 
     25 CA          1.6405  -13.7455  -11.9245 C.3       3 GLC5        0.0000 
     26 CA         -0.3470  -11.6517   -8.9582 C.3       3 GLC5        0.0000 
     27 CA          1.4690  -11.1140   -9.4960 C.3       9 GLL5        0.0000 
     28 CA         -2.1570  -12.2960   -9.1210 C.3       6 GLP5        0.0000 
     29 CA          4.8600  -12.9238   -7.5898 C.3       3 GLC5        0.0000 
     30 CA          3.6620  -11.7690   -7.9260 C.3       9 GLL5        0.0000 
     31 CA          6.0430  -13.9720   -6.5630 C.3       6 GLP5        0.0000 
     32 CA          4.8319  -10.5009   -8.6747 C.3       3 GLC5        0.0000 
     33 CA          3.6920  -11.9820   -9.3070 C.3       9 GLL5        0.0000 
     34 CA          6.2640   -9.2620   -8.8880 C.3       6 GLP5        0.0000 
     35 CA          4.9433  -10.6230  -13.5855 C.3       3 GLC5        0.0000 
     36 CA          4.2240  -12.2130  -13.2450 C.3       9 GLL5        0.0000 
     37 CA          5.1783  -10.7052  -14.5898 C.3       3 GLC5        0.0000 
     38 CA          5.8820  -12.4190  -14.9760 C.3       9 GLL5        0.0000 
     39 CA          3.5013  -12.6245  -17.5998 C.3       3 GLC5        0.0000 
     40 CA          4.8470  -12.4320  -15.9150 C.3       9 GLL5        0.0000 
     41 CA          2.8190  -12.8570  -19.4880 C.3       6 GLP5        0.0000 
     42 CA          4.1725  -10.6460  -14.2830 C.3       3 GLC5        0.0000 
     43 CA          4.8136  -14.0084  -16.7239 C.3       3 GLC5        0.0000 
     44 CA          5.1850  -15.6280  -17.9710 C.3       6 GLP5        0.0000 
@<TRIPOS>BOND
@<TRIPOS>SUBSTRUCTURE
     1 ALC1        9 GROUP        1 X    ALC  0     ROOT ALC X 1
     2 SEC2       17 GROUP        1 X    SEC  0     **** SEC X 2
     3 GLC5        1 GROUP        1 X    GLC  0     **** GLC X 6
     4 ALP1       11 GROUP        1 Y    ALP  0     ROOT ALP Y 8
     5 SEP2       19 GROUP        1 Y    SEP  0     **** SEP Y 9
     6 GLP5        3 GROUP        1 Y    GLP  0     **** GLP Y 13
     7 ALL1       10 GROUP        1 Z    ALL  0     ROOT ALL Z 15
     8 SEL2       18 GROUP        1 Z    SEL  0     **** SEL Z 16
     9 GLL5        2 GROUP        1 Z    GLL  0     **** GLL Z 20
@<TRIPOS>SET

