#    Name: 4hmh_F94_1_ligand
#    Modification time : Tue Mar 25 01:12:42 2014

@<TRIPOS>MOLECULE
4hmh_F94_1_ligand
   29    31     1     0     0
SMALL
NO_CHARGES


@<TRIPOS>ATOM
      1 CAK         1.4690  -11.1140   -9.4960 C.ar      1 F941204     0.0000 
      2 CAL         1.4570  -10.9010   -8.0950 C.ar      1 F941204     0.0000 
      3 OAS         0.3700  -10.3460   -7.4910 O.3       1 F941204     0.0000 
      4 CAM         2.5530  -11.2260   -7.3060 C.ar      1 F941204     0.0000 
      5 CAI         3.6620  -11.7690   -7.9260 C.ar      1 F941204     0.0000 
      6 CAJ         3.6920  -11.9820   -9.3070 C.ar      1 F941204     0.0000 
      7 CAH         2.5950  -11.6580  -10.1080 C.ar      1 F941204     0.0000 
      8 CAF         2.6810  -11.8700  -11.4910 C.2       1 F941204     0.0000 
      9 OAA         3.9380  -12.0840  -11.9380 O.3       1 F941204     0.0000 
     10 CAB         4.2240  -12.2130  -13.2450 C.ar      1 F941204     0.0000 
     11 CAN         5.5650  -12.3090  -13.6290 C.ar      1 F941204     0.0000 
     12 CAO         5.8820  -12.4190  -14.9760 C.ar      1 F941204     0.0000 
     13 OAR         7.1800  -12.4750  -15.3690 O.3       1 F941204     0.0000 
     14 CAP         4.8470  -12.4320  -15.9150 C.ar      1 F941204     0.0000 
     15 CAQ         3.5200  -12.3520  -15.5080 C.ar      1 F941204     0.0000 
     16 CAC         3.1860  -12.2620  -14.1560 C.ar      1 F941204     0.0000 
     17 CAD         1.8580  -12.1610  -13.7290 C.2       1 F941204     0.0000 
     18 OAG         0.8940  -12.2240  -14.5080 O.2       1 F941204     0.0000 
     19 CAE         1.6200  -11.9370  -12.3830 C.2       1 F941204     0.0000 
     20 H           0.6441  -10.8642  -10.0484 H         1 F941204     0.0000 
     21 H           2.5363  -11.0677   -6.3020 H         1 F941204     0.0000 
     22 H           4.4937  -12.0264   -7.3604 H         1 F941204     0.0000 
     23 H           4.5383  -12.3850   -9.7410 H         1 F941204     0.0000 
     24 H           6.3028  -12.2979  -12.9201 H         1 F941204     0.0000 
     25 H           5.0731  -12.5017  -16.9192 H         1 F941204     0.0000 
     26 H           2.7663  -12.3591  -16.2171 H         1 F941204     0.0000 
     27 H           0.6548  -11.8199  -12.0426 H         1 F941204     0.0000 
     28 H          -0.2367  -10.0830   -8.2412 H         1 F941204     0.0000 
     29 H           7.1467  -12.7224  -16.3373 H         1 F941204     0.0000 
@<TRIPOS>BOND
     1    2    1 ar   
     2    7    1 ar   
     3   20    1 1    
     4    3    2 1    
     5    4    2 ar   
     6   28    3 1    
     7    5    4 ar   
     8   21    4 1    
     9    6    5 ar   
    10   22    5 1    
    11    7    6 ar   
    12   23    6 1    
    13    8    7 1    
    14    9    8 1    
    15   19    8 2    
    16   10    9 1    
    17   11   10 ar   
    18   16   10 ar   
    19   12   11 ar   
    20   24   11 1    
    21   13   12 1    
    22   14   12 ar   
    23   29   13 1    
    24   15   14 ar   
    25   25   14 1    
    26   16   15 ar   
    27   26   15 1    
    28   17   16 1    
    29   18   17 2    
    30   19   17 1    
    31   27   19 1    
@<TRIPOS>SUBSTRUCTURE
     1 F941204     1 GROUP   
@<TRIPOS>SET

