#    Name: 4med_RTX_1_INTS_M
#    Modification time : Tue Mar 25 12:09:36 2014

@<TRIPOS>MOLECULE
4med_RTX_1_INTS_M
   60     0     6     0     0
SMALL
NO_CHARGES


@<TRIPOS>ATOM
      1 CA         70.9995   38.5710    7.8290 C.3       2 GLC5        0.0000 
      2 CA         72.7240   37.7110    8.6000 C.3       6 GLL5        0.0000 
      3 CA         69.2750   39.4310    7.0580 C.3       4 GLP5        0.0000 
      4 OD1        73.2780   35.4125    7.7810 O.co2     1 ASC3        0.0000 
      5 OD1        74.3460   36.5470    7.0490 O.co2     5 ASL3        0.0000 
      6 OD1        72.2100   34.2780    8.5130 O.co2     3 ASP3        0.0000 
      7 CA         73.1690   40.2875    5.3830 C.3       2 GLC5        0.0000 
      8 CA         74.2620   39.1390    6.5500 C.3       6 GLL5        0.0000 
      9 CA         72.0760   41.4360    4.2160 C.3       4 GLP5        0.0000 
     10 CA         77.8200   32.6220    5.1395 C.3       2 GLC5        0.0000 
     11 CA         76.3320   34.1690    4.8820 C.3       6 GLL5        0.0000 
     12 CA         79.3080   31.0750    5.3970 C.3       4 GLP5        0.0000 
     13 CA         78.3345   29.7005    2.4340 C.3       2 GLC5        0.0000 
     14 CA         77.1270   30.1910    1.5440 C.3       6 GLL5        0.0000 
     15 CA         79.5420   29.2100    3.3240 C.3       4 GLP5        0.0000 
     16 CA         75.8055   28.9010    1.1255 C.3       2 GLC5        0.0000 
     17 CA         74.4840   27.6110    0.7070 C.3       4 GLP5        0.0000 
     18 CA         78.2710   34.0870    0.8810 C.3       2 GLC5        0.0000 
     19 CA         76.2760   34.0930    0.1350 C.3       6 GLL5        0.0000 
     20 CA         80.2660   34.0810    1.6270 C.3       4 GLP5        0.0000 
     21 CA         74.7515   33.2355    1.1720 C.3       2 GLC5        0.0000 
     22 CA         73.2270   32.3780    2.2090 C.3       4 GLP5        0.0000 
     23 CA         73.0920   39.5480   -0.5040 C.3       2 GLC5        0.0000 
     24 CA         74.7620   38.5690    0.3610 C.3       6 GLL5        0.0000 
     25 CA         71.4220   40.5270   -1.3690 C.3       4 GLP5        0.0000 
     26 CA         71.9203   36.0230    7.7830 C.3       2 GLC5        0.0000 
     27 CA         74.0470   36.9170    8.4820 C.3       6 GLL5        0.0000 
     28 CA         70.4550   34.7320    7.0250 C.3       4 GLP5        0.0000 
     29 CA         74.7283   33.5348    3.2627 C.3       2 GLC5        0.0000 
     30 CA         78.4772   33.3024    1.5267 C.3       2 GLC5        0.0000 
     31 CA         76.4340   34.0050    1.5500 C.3       6 GLL5        0.0000 
     32 CA         78.6245   31.1393   -0.0010 C.3       2 GLC5        0.0000 
     33 CA         76.8110   31.6840    1.0740 C.3       6 GLL5        0.0000 
     34 CA         80.2800   31.3410   -1.3110 C.3       4 GLP5        0.0000 
     35 CA         74.9578   32.4509    1.8178 C.3       2 GLC5        0.0000 
     36 CA         78.4115   31.8895   -0.9203 C.3       2 GLC5        0.0000 
     37 CA         76.6750   31.8140   -0.2970 C.3       6 GLL5        0.0000 
     38 CA         74.5175   32.2375   -0.3558 C.3       2 GLC5        0.0000 
     39 CA         72.4920   32.0370   -0.1820 C.3       4 GLP5        0.0000 
     40 CA         77.1792   33.9262   -2.1023 C.3       2 GLC5        0.0000 
     41 CA         76.4110   33.0620   -0.7620 C.3       6 GLL5        0.0000 
     42 CA         78.0150   34.2750   -3.8910 C.3       4 GLP5        0.0000 
     43 CA         77.8030   36.4145    1.1195 C.3       2 GLC5        0.0000 
     44 CA         75.6280   36.3240    0.2920 C.3       6 GLL5        0.0000 
     45 CA         79.8780   36.5300    1.2600 C.3       4 GLP5        0.0000 
     46 CA         73.7425   36.4490    1.0705 C.3       2 GLC5        0.0000 
     47 CA         71.7570   36.5990    1.1620 C.3       4 GLP5        0.0000 
     48 CA         76.9295   38.3523    2.3838 C.3       2 GLC5        0.0000 
     49 CA         75.8280   36.2740    1.6660 C.3       6 GLL5        0.0000 
     50 CA         78.2470   39.8350    2.7780 C.3       4 GLP5        0.0000 
     51 CA         73.4488   37.3180    1.5885 C.3       2 GLC5        0.0000 
     52 CA         75.3960   37.4650    2.3130 C.3       6 GLL5        0.0000 
     53 CA         76.5353   39.2120    1.9085 C.3       2 GLC5        0.0000 
     54 CA         74.8850   38.6090    1.7170 C.3       6 GLL5        0.0000 
     55 CA         74.9673   40.5295    0.3990 C.3       2 GLC5        0.0000 
     56 CA         75.1110   42.4700   -0.2410 C.3       4 GLP5        0.0000 
     57 CA         76.6319   38.1007   -0.6555 C.3       2 GLC5        0.0000 
     58 CA         78.1910   38.4770   -1.4810 C.3       4 GLP5        0.0000 
     59 CA         73.3538   37.3008    0.5877 C.3       2 GLC5        0.0000 
     60 CA         75.1390   37.4360   -0.3340 C.3       6 GLL5        0.0000 
@<TRIPOS>BOND
@<TRIPOS>SUBSTRUCTURE
     1 ASC3        4 GROUP        1 X    ASC  0     ROOT ASC X 3
     2 GLC5        1 GROUP        1 X    GLC  0     **** GLC X 6
     3 ASP3        6 GROUP        1 Y    ASP  0     ROOT ASP Y 10
     4 GLP5        3 GROUP        1 Y    GLP  0     **** GLP Y 13
     5 ASL3        5 GROUP        1 Z    ASL  0     ROOT ASL Z 17
     6 GLL5        2 GROUP        1 Z    GLL  0     **** GLL Z 20
@<TRIPOS>SET

