#    Name: 4med_RTX_1_ligand
#    Modification time : Tue Mar 25 12:09:36 2014

@<TRIPOS>MOLECULE
4med_RTX_1_ligand
   50    52     1     0     0
SMALL
NO_CHARGES


@<TRIPOS>ATOM
      1 C39        72.7240   37.7110    8.6000 C.3       1 RTX401      0.0000 
      2 C36        74.0470   36.9170    8.4820 C.3       1 RTX401      0.0000 
      3 N33        74.3460   36.5470    7.0490 N.4       1 RTX401      0.0000 
      4 C37        74.6770   37.6830    6.1390 C.3       1 RTX401      0.0000 
      5 C45        74.2620   39.1390    6.5500 C.3       1 RTX401      0.0000 
      6 C30        75.4570   35.5290    6.9800 C.3       1 RTX401      0.0000 
      7 C27        75.2090   34.3490    5.9780 C.3       1 RTX401      0.0000 
      8 C24        76.3320   34.1690    4.8820 C.3       1 RTX401      0.0000 
      9 C1         76.1270   35.2140    3.7510 C.3       1 RTX401      0.0000 
     10 N2         76.2760   35.1220    2.3520 N.pl3     1 RTX401      0.0000 
     11 C11        76.4340   34.0050    1.5500 C.ar      1 RTX401      0.0000 
     12 C12        76.6980   32.7220    2.0080 C.ar      1 RTX401      0.0000 
     13 C13        76.8110   31.6840    1.0740 C.ar      1 RTX401      0.0000 
     14 CL1        77.1270   30.1910    1.5440 Cl        1 RTX401      0.0000 
     15 C14        76.6750   31.8140   -0.2970 C.ar      1 RTX401      0.0000 
     16 C15        76.4110   33.0620   -0.7620 C.ar      1 RTX401      0.0000 
     17 C10        76.2760   34.0930    0.1350 C.ar      1 RTX401      0.0000 
     18 O9         75.9850   35.2650   -0.4730 O.3       1 RTX401      0.0000 
     19 C8         75.6280   36.3240    0.2920 C.ar      1 RTX401      0.0000 
     20 C3         75.8280   36.2740    1.6660 C.ar      1 RTX401      0.0000 
     21 C4         75.3960   37.4650    2.3130 C.ar      1 RTX401      0.0000 
     22 C5         74.8850   38.6090    1.7170 C.ar      1 RTX401      0.0000 
     23 C6         74.7620   38.5690    0.3610 C.ar      1 RTX401      0.0000 
     24 C7         75.1390   37.4360   -0.3340 C.ar      1 RTX401      0.0000 
     25 H          73.9630   36.0139    9.0897 H         1 RTX401      0.0000 
     26 H          74.8552   37.5311    8.8842 H         1 RTX401      0.0000 
     27 H          73.4412   36.0380    6.6367 H         1 RTX401      0.0000 
     28 H          74.2333   37.4946    5.1212 H         1 RTX401      0.0000 
     29 H          75.7866   37.7040    5.9477 H         1 RTX401      0.0000 
     30 H          75.6258   35.0885    7.9787 H         1 RTX401      0.0000 
     31 H          76.4010   36.0220    6.6874 H         1 RTX401      0.0000 
     32 H          74.2540   34.5153    5.4676 H         1 RTX401      0.0000 
     33 H          75.1301   33.4155    6.5459 H         1 RTX401      0.0000 
     34 H          76.2559   33.1773    4.4743 H         1 RTX401      0.0000 
     35 H          77.2896   34.3229    5.3454 H         1 RTX401      0.0000 
     36 H          76.7416   36.1684    4.1378 H         1 RTX401      0.0000 
     37 H          75.0461   35.6754    3.9896 H         1 RTX401      0.0000 
     38 H          76.8084   32.5324    3.0021 H         1 RTX401      0.0000 
     39 H          76.7694   31.0152   -0.9084 H         1 RTX401      0.0000 
     40 H          76.3121   33.2403   -1.7717 H         1 RTX401      0.0000 
     41 H          75.4803   37.4659    3.3863 H         1 RTX401      0.0000 
     42 H          74.6251   39.4119    2.2635 H         1 RTX401      0.0000 
     43 H          74.3872   39.3827   -0.1566 H         1 RTX401      0.0000 
     44 H          75.0440   37.4357   -1.3796 H         1 RTX401      0.0000 
     45 H          72.5210   37.9556    9.5481 H         1 RTX401      0.0000 
     46 H          72.7544   38.5631    8.0775 H         1 RTX401      0.0000 
     47 H          71.9441   37.1859    8.2593 H         1 RTX401      0.0000 
     48 H          74.6840   39.4157    7.4133 H         1 RTX401      0.0000 
     49 H          74.5347   39.8112    5.8617 H         1 RTX401      0.0000 
     50 H          73.2725   39.2241    6.6669 H         1 RTX401      0.0000 
@<TRIPOS>BOND
     1    2    1 1    
     2   45    1 1    
     3   46    1 1    
     4   47    1 1    
     5    3    2 1    
     6   25    2 1    
     7   26    2 1    
     8    4    3 1    
     9    6    3 1    
    10   27    3 1    
    11    5    4 1    
    12   28    4 1    
    13   29    4 1    
    14   48    5 1    
    15   49    5 1    
    16   50    5 1    
    17    7    6 1    
    18   30    6 1    
    19   31    6 1    
    20    8    7 1    
    21   32    7 1    
    22   33    7 1    
    23    9    8 1    
    24   34    8 1    
    25   35    8 1    
    26   10    9 1    
    27   36    9 1    
    28   37    9 1    
    29   11   10 1    
    30   20   10 1    
    31   12   11 ar   
    32   17   11 ar   
    33   13   12 ar   
    34   38   12 1    
    35   14   13 1    
    36   15   13 ar   
    37   16   15 ar   
    38   39   15 1    
    39   17   16 ar   
    40   40   16 1    
    41   18   17 1    
    42   19   18 1    
    43   20   19 ar   
    44   24   19 ar   
    45   21   20 ar   
    46   22   21 ar   
    47   41   21 1    
    48   23   22 ar   
    49   42   22 1    
    50   24   23 ar   
    51   43   23 1    
    52   44   24 1    
@<TRIPOS>SUBSTRUCTURE
     1 RTX401      1 GROUP   
@<TRIPOS>SET

