#    Name: 4biw_ANP_2_INTS_M
#    Modification time : Tue Mar 25 07:47:21 2014

@<TRIPOS>MOLECULE
4biw_ANP_2_INTS_M
   74     0    15     0     0
SMALL
NO_CHARGES


@<TRIPOS>ATOM
      1 N          34.5900  -50.8505   -1.7310 N.am      2 SEC2        0.0000 
      2 N          34.7930  -50.4420   -2.9970 N.am     12 SEL2        0.0000 
      3 N          34.3870  -51.2590   -0.4650 N.am      7 SEP2        0.0000 
      4 N          35.8885  -49.3475   -2.9250 N.am      2 SEC2        0.0000 
      5 N          36.9840  -48.2530   -2.8530 N.am      7 SEP2        0.0000 
      6 N          35.4680  -51.7260   -3.5865 N.am      2 SEC2        0.0000 
      7 N          36.1430  -53.0100   -4.1760 N.am      7 SEP2        0.0000 
      8 N          34.2060  -51.9700   -3.0160 N.am      2 SEC2        0.0000 
      9 N          33.6190  -53.4980   -3.0350 N.am      7 SEP2        0.0000 
     10 Zn         31.2410  -50.2430   -3.1160 Zn        4 ZIC7        0.0000 
     11 Zn         32.3460  -50.2610   -3.1470 Zn       14 ZIL7        0.0000 
     12 Zn         30.1360  -50.2250   -3.0850 Zn        9 ZIP7        0.0000 
     13 N          32.9825  -51.8795   -3.0910 N.am      2 SEC2        0.0000 
     14 N          32.3460  -50.2610   -3.1470 N.am     12 SEL2        0.0000 
     15 NZ         33.9085  -47.8460   -1.2055 N.4       3 LYC4        0.0000 
     16 NZ         33.6580  -48.3810   -2.2970 N.4      13 LYL4        0.0000 
     17 NZ         35.3230  -47.4200    0.5140 N.4       8 LYP4        0.0000 
     18 N          34.0225  -49.8200   -1.3810 N.am      2 SEC2        0.0000 
     19 N          33.6580  -48.3810   -2.2970 N.am     12 SEL2        0.0000 
     20 N          33.9085  -47.8460   -1.2055 N.am      2 SEC2        0.0000 
     21 N          34.1590  -47.3110   -0.1140 N.am      7 SEP2        0.0000 
     22 N          35.3210  -48.3170   -2.5750 N.am      2 SEC2        0.0000 
     23 N          31.1520  -48.0185   -6.7675 N.am      2 SEC2        0.0000 
     24 N          31.3890  -48.9290   -5.7160 N.am     12 SEL2        0.0000 
     25 N          30.9150  -47.1080   -7.8190 N.am      7 SEP2        0.0000 
     26 NZ         34.2495  -47.1635   -7.7935 N.4       3 LYC4        0.0000 
     27 NZ         33.2700  -48.3430   -7.3100 N.4      13 LYL4        0.0000 
     28 NZ         35.2290  -45.9840   -8.2770 N.4       8 LYP4        0.0000 
     29 N          32.0355  -54.1965   -5.1940 N.am      2 SEC2        0.0000 
     30 N          32.6470  -53.2500   -5.9950 N.am     12 SEL2        0.0000 
     31 N          31.4240  -55.1430   -4.3930 N.am      7 SEP2        0.0000 
     32 N          29.3960  -51.7405   -5.3965 N.am      2 SEC2        0.0000 
     33 N          30.8600  -51.6710   -5.4110 N.am     12 SEL2        0.0000 
     34 N          27.9320  -51.8100   -5.3820 N.am      7 SEP2        0.0000 
     35 CA         30.5700  -53.5410   -8.5405 C.3       5 GLC5        0.0000 
     36 CA         32.2600  -52.3210   -9.0420 C.3      15 GLL5        0.0000 
     37 CA         28.8800  -54.7610   -8.0390 C.3      10 GLP5        0.0000 
     38 CA         31.0075  -52.8360  -11.4970 C.3       5 GLC5        0.0000 
     39 CA         31.8400  -51.3770  -10.1420 C.3      15 GLL5        0.0000 
     40 CA         30.1750  -54.2950  -12.8520 C.3      10 GLP5        0.0000 
     41 CA         31.8095  -47.7720  -11.4830 C.3       5 GLC5        0.0000 
     42 CA         30.7330  -49.3940  -10.8420 C.3      15 GLL5        0.0000 
     43 CA         32.8860  -46.1500  -12.1240 C.3      10 GLP5        0.0000 
     44 N          32.8785  -49.5725  -12.8100 N.am      2 SEC2        0.0000 
     45 N          31.3770  -49.1220  -12.0790 N.am     12 SEL2        0.0000 
     46 N          34.3800  -50.0230  -13.5410 N.am      7 SEP2        0.0000 
     47 N          31.6960  -48.9695  -13.3235 N.am      2 SEC2        0.0000 
     48 N          32.0150  -48.8170  -14.5680 N.am      7 SEP2        0.0000 
     49 CA         28.5210  -51.0105  -12.5995 C.3       5 GLC5        0.0000 
     50 CA         29.7970  -50.5970  -11.0090 C.3      15 GLL5        0.0000 
     51 CA         27.2450  -51.4240  -14.1900 C.3      10 GLP5        0.0000 
     52 CA         29.9860  -52.4460  -11.9305 C.3       5 GLC5        0.0000 
     53 CA         26.4915  -50.0120   -7.3245 C.3       5 GLC5        0.0000 
     54 CA         26.5440  -50.0590   -9.4860 C.3      15 GLL5        0.0000 
     55 CA         26.4390  -49.9650   -5.1630 C.3      10 GLP5        0.0000 
     56 O          22.8100  -49.3495   -9.0605 O.2       1 ALC1        0.0000 
     57 O          24.3080  -49.5950   -8.6580 O.2      11 ALL1        0.0000 
     58 O          21.3120  -49.1040   -9.4630 O.2       6 ALP1        0.0000 
     59 CA         25.8065  -47.1860  -10.6325 C.3       5 GLC5        0.0000 
     60 CA         25.9140  -48.6720  -11.6640 C.3      15 GLL5        0.0000 
     61 CA         25.6990  -45.7000   -9.6010 C.3      10 GLP5        0.0000 
     62 CA         26.5795  -50.0480  -12.9270 C.3       5 GLC5        0.0000 
     63 CA         25.3065  -50.6395  -11.3590 C.3       5 GLC5        0.0000 
     64 CA         24.6990  -52.6070  -11.0540 C.3      10 GLP5        0.0000 
     65 CA         27.3285  -50.6390  -12.3670 C.3       5 GLC5        0.0000 
     66 CA         27.4120  -49.8540  -10.5440 C.3      15 GLL5        0.0000 
     67 CA         33.7480  -50.6225  -10.7540 C.3       5 GLC5        0.0000 
     68 CA         35.7270  -50.6040  -11.5520 C.3      10 GLP5        0.0000 
     69 CA         30.4372  -48.2112   -9.2825 C.3       5 GLC5        0.0000 
     70 CA         31.6980  -49.9050   -9.7700 C.3      15 GLL5        0.0000 
     71 CA         29.6590  -46.7730   -8.2590 C.3      10 GLP5        0.0000 
     72 CA         25.7985  -47.7370   -9.5713 C.3       5 GLC5        0.0000 
     73 CA         25.6770  -51.2105  -10.5484 C.3       5 GLC5        0.0000 
     74 CA         25.2520  -49.4890   -9.5970 C.3      15 GLL5        0.0000 
@<TRIPOS>BOND
@<TRIPOS>SUBSTRUCTURE
     1 ALC1       56 GROUP        1 X    ALC  0     ROOT ALC X 1
     2 SEC2        1 GROUP        1 X    SEC  0     **** SEC X 2
     3 LYC4       15 GROUP        1 X    LYC  0     **** LYC X 4
     4 ZIC7       10 GROUP        1 X    ZIC  0     **** ZIC X 5
     5 GLC5       35 GROUP        1 X    GLC  0     **** GLC X 6
     6 ALP1       58 GROUP        1 Y    ALP  0     ROOT ALP Y 8
     7 SEP2        3 GROUP        1 Y    SEP  0     **** SEP Y 9
     8 LYP4       17 GROUP        1 Y    LYP  0     **** LYP Y 11
     9 ZIP7       12 GROUP        1 Y    ZIP  0     **** ZIP Y 12
    10 GLP5       37 GROUP        1 Y    GLP  0     **** GLP Y 13
    11 ALL1       57 GROUP        1 Z    ALL  0     ROOT ALL Z 15
    12 SEL2        2 GROUP        1 Z    SEL  0     **** SEL Z 16
    13 LYL4       16 GROUP        1 Z    LYL  0     **** LYL Z 18
    14 ZIL7       11 GROUP        1 Z    ZIL  0     **** ZIL Z 19
    15 GLL5       36 GROUP        1 Z    GLL  0     **** GLL Z 20
@<TRIPOS>SET

