#    Name: 4biw_ANP_2_ligand
#    Modification time : Tue Mar 25 07:47:21 2014

@<TRIPOS>MOLECULE
4biw_ANP_2_ligand
   43    45     1     0     0
SMALL
NO_CHARGES


@<TRIPOS>ATOM
      1 PG         33.6480  -49.5150   -3.2650 P.3       1 ANP501      0.0000 
      2 O1G        34.7930  -50.4420   -2.9970 O.co2     1 ANP501      0.0000 
      3 O2G        32.3460  -50.2610   -3.1470 O.co2     1 ANP501      0.0000 
      4 O3G        33.6580  -48.3810   -2.2970 O.co2     1 ANP501      0.0000 
      5 PB         32.8210  -49.2350   -6.0890 P.3       1 ANP501      0.0000 
      6 O1B        31.3890  -48.9290   -5.7160 O.co2     1 ANP501      0.0000 
      7 O2B        33.2700  -48.3430   -7.3100 O.co2     1 ANP501      0.0000 
      8 N3B        33.7800  -48.9150   -4.7910 N.4       1 ANP501      0.0000 
      9 PA         31.9650  -52.0060   -6.4130 P.3       1 ANP501      0.0000 
     10 O1A        32.6470  -53.2500   -5.9950 O.co2     1 ANP501      0.0000 
     11 O2A        30.8600  -51.6710   -5.4110 O.co2     1 ANP501      0.0000 
     12 O3A        32.9860  -50.7860   -6.4560 O.3       1 ANP501      0.0000 
     13 O5'        31.3710  -52.2030   -7.9060 O.3       1 ANP501      0.0000 
     14 C5'        32.2600  -52.3210   -9.0420 C.3       1 ANP501      0.0000 
     15 C4'        31.8400  -51.3770  -10.1420 C.3       1 ANP501      0.0000 
     16 O4'        30.5360  -51.7530  -10.6390 O.3       1 ANP501      0.0000 
     17 C3'        31.6980  -49.9050   -9.7700 C.3       1 ANP501      0.0000 
     18 O3'        32.9370  -49.2120   -9.7890 O.3       1 ANP501      0.0000 
     19 C2'        30.7330  -49.3940  -10.8420 C.3       1 ANP501      0.0000 
     20 O2'        31.3770  -49.1220  -12.0790 O.3       1 ANP501      0.0000 
     21 C1'        29.7970  -50.5970  -11.0090 C.3       1 ANP501      0.0000 
     22 N9         28.5710  -50.5190  -10.2120 N.pl3     1 ANP501      0.0000 
     23 C8         28.3360  -51.0710   -8.9790 C.2       1 ANP501      0.0000 
     24 N7         27.1420  -50.8280   -8.4960 N.2       1 ANP501      0.0000 
     25 C5         26.5440  -50.0590   -9.4860 C.ar      1 ANP501      0.0000 
     26 C6         25.2520  -49.4890   -9.5970 C.ar      1 ANP501      0.0000 
     27 N6         24.3080  -49.5950   -8.6580 N.pl3     1 ANP501      0.0000 
     28 N1         24.9660  -48.7960  -10.7250 N.ar      1 ANP501      0.0000 
     29 C2         25.9140  -48.6720  -11.6640 C.ar      1 ANP501      0.0000 
     30 N3         27.1620  -49.1580  -11.6660 N.ar      1 ANP501      0.0000 
     31 C4         27.4120  -49.8540  -10.5440 C.ar      1 ANP501      0.0000 
     32 H          32.2532  -53.3446   -9.4410 H         1 ANP501      0.0000 
     33 H          33.2944  -52.0844   -8.7571 H         1 ANP501      0.0000 
     34 H          32.5505  -51.4414  -10.9690 H         1 ANP501      0.0000 
     35 H          31.1853  -49.8571   -8.8325 H         1 ANP501      0.0000 
     36 H          30.1724  -48.6010  -10.4451 H         1 ANP501      0.0000 
     37 H          29.5439  -50.6577  -12.0720 H         1 ANP501      0.0000 
     38 H          29.0431  -51.6136   -8.5086 H         1 ANP501      0.0000 
     39 H          23.3629  -49.6134   -8.9844 H         1 ANP501      0.0000 
     40 H          24.6311  -49.6464   -7.7131 H         1 ANP501      0.0000 
     41 H          25.6265  -48.0891  -12.5588 H         1 ANP501      0.0000 
     42 H          33.0768  -48.9062   -8.8472 H         1 ANP501      0.0000 
     43 H          31.2639  -48.1383  -12.2187 H         1 ANP501      0.0000 
@<TRIPOS>BOND
     1    2    1 ar   
     2    3    1 ar   
     3    4    1 ar   
     4    8    1 1    
     5    6    5 ar   
     6    7    5 ar   
     7    8    5 1    
     8   12    5 1    
     9   10    9 ar   
    10   11    9 ar   
    11   12    9 1    
    12   13    9 1    
    13   14   13 1    
    14   15   14 1    
    15   32   14 1    
    16   33   14 1    
    17   16   15 1    
    18   17   15 1    
    19   34   15 1    
    20   21   16 1    
    21   18   17 1    
    22   19   17 1    
    23   35   17 1    
    24   42   18 1    
    25   20   19 1    
    26   21   19 1    
    27   36   19 1    
    28   43   20 1    
    29   22   21 1    
    30   37   21 1    
    31   23   22 1    
    32   31   22 1    
    33   24   23 2    
    34   38   23 1    
    35   25   24 1    
    36   26   25 ar   
    37   31   25 ar   
    38   27   26 1    
    39   28   26 ar   
    40   39   27 1    
    41   40   27 1    
    42   29   28 ar   
    43   30   29 ar   
    44   41   29 1    
    45   31   30 ar   
@<TRIPOS>SUBSTRUCTURE
     1 ANP501      1 GROUP   
@<TRIPOS>SET

