#    Name: 4ftc_H6K_1_INTS_M
#    Modification time : Mon Mar 24 20:44:38 2014

@<TRIPOS>MOLECULE
4ftc_H6K_1_INTS_M
   48     0     9     0     0
SMALL
NO_CHARGES


@<TRIPOS>ATOM
      1 N           9.7850   -6.9660   13.9440 N.am      2 SEC2        0.0000 
      2 N          10.7700   -5.8330   13.6790 N.am      8 SEL2        0.0000 
      3 N           8.8000   -8.0990   14.2090 N.am      5 SEP2        0.0000 
      4 CA         10.1000   -6.5855   12.3715 C.3       3 GLC5        0.0000 
      5 CA         11.4680   -5.2370   13.0030 C.3       9 GLL5        0.0000 
      6 CA          8.7320   -7.9340   11.7400 C.3       6 GLP5        0.0000 
      7 CA         10.8855   -4.8445   14.8540 C.3       3 GLC5        0.0000 
      8 CA         10.3030   -4.4520   16.7050 C.3       6 GLP5        0.0000 
      9 CA         12.9860   -3.2030   13.7465 C.3       3 GLC5        0.0000 
     10 CA         12.3550   -4.5180   12.1480 C.3       9 GLL5        0.0000 
     11 CA         13.6170   -1.8880   15.3450 C.3       6 GLP5        0.0000 
     12 CA         11.9860   -1.1345   11.2095 C.3       3 GLC5        0.0000 
     13 CA         12.7540   -2.7230   10.7830 C.3       9 GLL5        0.0000 
     14 CA         11.2180    0.4540   11.6360 C.3       6 GLP5        0.0000 
     15 CA         11.1605   -2.3405    9.8090 C.3       3 GLC5        0.0000 
     16 CA          9.5670   -1.9580    8.8350 C.3       6 GLP5        0.0000 
     17 CA         13.7805   -6.1525   10.1140 C.3       3 GLC5        0.0000 
     18 CA         13.6330   -5.0640   11.8050 C.3       9 GLL5        0.0000 
     19 CA         13.9280   -7.2410    8.4230 C.3       6 GLP5        0.0000 
     20 CA         14.8990   -3.4065   12.2040 C.3       3 GLC5        0.0000 
     21 CA         16.1650   -1.7490   12.6030 C.3       6 GLP5        0.0000 
     22 CA         13.9755   -5.2390    9.4435 C.3       3 GLC5        0.0000 
     23 CA         14.0230   -3.2370   10.4640 C.3       9 GLL5        0.0000 
     24 O          14.2540   -1.3860    8.9855 O.2       1 ALC1        0.0000 
     25 O          14.8760   -2.5400    9.5930 O.2       7 ALL1        0.0000 
     26 O          13.6320   -0.2320    8.3780 O.2       4 ALP1        0.0000 
     27 N          17.0360   -0.7410    8.0985 N.am      2 SEC2        0.0000 
     28 N          16.7680   -2.0680    8.4060 N.am      8 SEL2        0.0000 
     29 N          17.3040    0.5860    7.7910 N.am      5 SEP2        0.0000 
     30 CA         17.9985   -4.5175    7.5100 C.3       3 GLC5        0.0000 
     31 CA         19.1480   -3.6350    8.8650 C.3       9 GLL5        0.0000 
     32 CA         16.8490   -5.4000    6.1550 C.3       6 GLP5        0.0000 
     33 CA         10.3773   -4.4582   11.3227 C.3       3 GLC5        0.0000 
     34 CA          8.8430   -4.0390   10.0700 C.3       6 GLP5        0.0000 
     35 CA         13.3758   -3.2485    8.6528 C.3       3 GLC5        0.0000 
     36 CA         13.3630   -3.5170    6.6820 C.3       6 GLP5        0.0000 
     37 CA         14.7767   -2.3645   11.6133 C.3       3 GLC5        0.0000 
     38 CA         20.0870   -5.2045    7.2547 C.3       3 GLC5        0.0000 
     39 CA         20.2860   -4.3520    9.1410 C.3       9 GLL5        0.0000 
     40 CA         19.2080   -6.1020    5.6530 C.3       6 GLP5        0.0000 
     41 CA         21.1120   -2.8908   10.0710 C.3       3 GLC5        0.0000 
     42 CA         22.5070   -1.7880   11.1390 C.3       6 GLP5        0.0000 
     43 CA         22.3115   -3.2760    9.9110 C.3       3 GLC5        0.0000 
     44 CA         21.6460   -4.2620    8.5720 C.3       9 GLL5        0.0000 
     45 CA         22.1490   -1.0308    7.0865 C.3       3 GLC5        0.0000 
     46 CA         22.0160   -3.1570    7.8090 C.3       9 GLL5        0.0000 
     47 CA         21.6380    1.0430    6.6170 C.3       6 GLP5        0.0000 
     48 CA         22.5835   -2.4463    9.3475 C.3       3 GLC5        0.0000 
@<TRIPOS>BOND
@<TRIPOS>SUBSTRUCTURE
     1 ALC1       24 GROUP        1 X    ALC  0     ROOT ALC X 1
     2 SEC2        1 GROUP        1 X    SEC  0     **** SEC X 2
     3 GLC5        4 GROUP        1 X    GLC  0     **** GLC X 6
     4 ALP1       26 GROUP        1 Y    ALP  0     ROOT ALP Y 8
     5 SEP2        3 GROUP        1 Y    SEP  0     **** SEP Y 9
     6 GLP5        6 GROUP        1 Y    GLP  0     **** GLP Y 13
     7 ALL1       25 GROUP        1 Z    ALL  0     ROOT ALL Z 15
     8 SEL2        2 GROUP        1 Z    SEL  0     **** SEL Z 16
     9 GLL5        5 GROUP        1 Z    GLL  0     **** GLL Z 20
@<TRIPOS>SET

