#    Name: 4ftc_H6K_1_ligand
#    Modification time : Mon Mar 24 20:44:38 2014

@<TRIPOS>MOLECULE
4ftc_H6K_1_ligand
   34    36     1     0     0
SMALL
NO_CHARGES


@<TRIPOS>ATOM
      1 N4         10.7700   -5.8330   13.6790 N.1       1 H6K301      0.0000 
      2 C6         11.4680   -5.2370   13.0030 C.1       1 H6K301      0.0000 
      3 C4         12.3550   -4.5180   12.1480 C.ar      1 H6K301      0.0000 
      4 N2         11.9410   -3.3410   11.6480 N.ar      1 H6K301      0.0000 
      5 C3         12.7540   -2.7230   10.7830 C.ar      1 H6K301      0.0000 
      6 C5         13.6330   -5.0640   11.8050 C.ar      1 H6K301      0.0000 
      7 N3         14.4530   -4.4050   10.9770 N.ar      1 H6K301      0.0000 
      8 C2         14.0230   -3.2370   10.4640 C.ar      1 H6K301      0.0000 
      9 N1         14.8760   -2.5400    9.5930 N.am      1 H6K301      0.0000 
     10 C1         16.1780   -2.7710    9.2230 C.2       1 H6K301      0.0000 
     11 O          16.7680   -2.0680    8.4060 O.2       1 H6K301      0.0000 
     12 N5         16.8170   -3.8510    9.8570 N.am      1 H6K301      0.0000 
     13 C7         18.1540   -4.2030    9.6640 C.2       1 H6K301      0.0000 
     14 N7         18.6130   -5.2090   10.4030 N.2       1 H6K301      0.0000 
     15 N6         19.9360   -5.2700   10.0680 N.pl3     1 H6K301      0.0000 
     16 C9         20.2860   -4.3520    9.1410 C.2       1 H6K301      0.0000 
     17 C8         19.1480   -3.6350    8.8650 C.2       1 H6K301      0.0000 
     18 C10        21.6460   -4.2620    8.5720 C.ar      1 H6K301      0.0000 
     19 C15        22.5860   -5.2660    8.7940 C.ar      1 H6K301      0.0000 
     20 C14        23.8770   -5.1410    8.3020 C.ar      1 H6K301      0.0000 
     21 C13        24.2360   -4.0340    7.5620 C.ar      1 H6K301      0.0000 
     22 C12        23.3040   -3.0520    7.3030 C.ar      1 H6K301      0.0000 
     23 C11        22.0160   -3.1570    7.8090 C.ar      1 H6K301      0.0000 
     24 H          12.4641   -1.8318   10.3162 H         1 H6K301      0.0000 
     25 H          13.8868   -5.9763   12.2211 H         1 H6K301      0.0000 
     26 H          14.4061   -1.6485    9.1277 H         1 H6K301      0.0000 
     27 H          16.2420   -4.4343   10.5252 H         1 H6K301      0.0000 
     28 H          20.5662   -5.9223   10.4678 H         1 H6K301      0.0000 
     29 H          19.0465   -2.9216    8.2748 H         1 H6K301      0.0000 
     30 H          22.3177   -6.1067    9.3279 H         1 H6K301      0.0000 
     31 H          24.5702   -5.8827    8.4928 H         1 H6K301      0.0000 
     32 H          25.1981   -3.9415    7.2039 H         1 H6K301      0.0000 
     33 H          23.5615   -2.2320    6.7297 H         1 H6K301      0.0000 
     34 H          21.3269   -2.4134    7.6201 H         1 H6K301      0.0000 
@<TRIPOS>BOND
     1    2    1 3    
     2    3    2 1    
     3    4    3 ar   
     4    6    3 ar   
     5    5    4 ar   
     6    8    5 ar   
     7   24    5 1    
     8    7    6 ar   
     9   25    6 1    
    10    8    7 ar   
    11    9    8 1    
    12   10    9 am   
    13   26    9 1    
    14   11   10 2    
    15   12   10 am   
    16   13   12 1    
    17   27   12 1    
    18   14   13 2    
    19   17   13 1    
    20   15   14 1    
    21   16   15 1    
    22   28   15 1    
    23   17   16 2    
    24   18   16 1    
    25   29   17 1    
    26   19   18 ar   
    27   23   18 ar   
    28   20   19 ar   
    29   30   19 1    
    30   21   20 ar   
    31   31   20 1    
    32   22   21 ar   
    33   32   21 1    
    34   23   22 ar   
    35   33   22 1    
    36   34   23 1    
@<TRIPOS>SUBSTRUCTURE
     1 H6K301      1 GROUP   
@<TRIPOS>SET

