#    Name: 3tfv_2CN_1_INTS_M
#    Modification time : Mon Mar 24 20:03:34 2014

@<TRIPOS>MOLECULE
3tfv_2CN_1_INTS_M
   64     0     3     0     0
SMALL
NO_CHARGES


@<TRIPOS>ATOM
      1 CA        -24.8120   20.3480    9.3930 C.3       1 GLC5        0.0000 
      2 CA        -23.1920   21.1710    8.2320 C.3       3 GLL5        0.0000 
      3 CA        -26.4320   19.5250   10.5540 C.3       2 GLP5        0.0000 
      4 CA        -23.4150   22.3750    9.9745 C.3       1 GLC5        0.0000 
      5 CA        -23.6380   23.5790   11.7170 C.3       2 GLP5        0.0000 
      6 CA        -32.8605    5.1300    0.4075 C.3       1 GLC5        0.0000 
      7 CA        -31.7160    5.8370    1.8140 C.3       3 GLL5        0.0000 
      8 CA        -34.0050    4.4230   -0.9990 C.3       2 GLP5        0.0000 
      9 CA        -30.5880    6.4865    0.1855 C.3       1 GLC5        0.0000 
     10 CA        -29.4600    7.1360   -1.4430 C.3       2 GLP5        0.0000 
     11 CA        -30.4760   10.0340   10.4310 C.3       1 GLC5        0.0000 
     12 CA        -29.2320   11.0730    8.9240 C.3       3 GLL5        0.0000 
     13 CA        -31.7200    8.9950   11.9380 C.3       2 GLP5        0.0000 
     14 CA        -27.8540   14.5825    8.8610 C.3       1 GLC5        0.0000 
     15 CA        -27.5070   12.5920    9.4860 C.3       3 GLL5        0.0000 
     16 CA        -28.2010   16.5730    8.2360 C.3       2 GLP5        0.0000 
     17 CA        -31.6570   10.2045    4.4905 C.3       1 GLC5        0.0000 
     18 CA        -30.4660    8.4350    4.6960 C.3       3 GLL5        0.0000 
     19 CA        -32.8480   11.9740    4.2850 C.3       2 GLP5        0.0000 
     20 CA        -21.7130   18.0025    7.0125 C.3       1 GLC5        0.0000 
     21 CA        -22.8390   19.8200    7.6600 C.3       3 GLL5        0.0000 
     22 CA        -20.5870   16.1850    6.3650 C.3       2 GLP5        0.0000 
     23 CA        -25.5825   19.6930    6.6645 C.3       1 GLC5        0.0000 
     24 CA        -24.0620   18.9560    7.5750 C.3       3 GLL5        0.0000 
     25 CA        -27.1030   20.4300    5.7540 C.3       2 GLP5        0.0000 
     26 CA        -27.6740   14.2075    6.6030 C.3       1 GLC5        0.0000 
     27 CA        -25.7900   13.3180    6.4940 C.3       3 GLL5        0.0000 
     28 CA        -29.5580   15.0970    6.7120 C.3       2 GLP5        0.0000 
     29 CA        -31.2050   11.0935    5.4570 C.3       1 GLC5        0.0000 
     30 CA        -29.5620   10.2130    6.6290 C.3       3 GLL5        0.0000 
     31 CA        -28.5355    9.2850    3.7020 C.3       1 GLC5        0.0000 
     32 CA        -29.2780    7.9140    5.1360 C.3       3 GLL5        0.0000 
     33 CA        -27.7930   10.6560    2.2680 C.3       2 GLP5        0.0000 
     34 CA        -21.4023   20.8592    7.1050 C.3       1 GLC5        0.0000 
     35 CA        -19.7890   21.2230    6.2640 C.3       2 GLP5        0.0000 
     36 CA        -31.3948    7.3513    5.9070 C.3       1 GLC5        0.0000 
     37 CA        -31.9690    6.5840    7.6170 C.3       2 GLP5        0.0000 
     38 CA        -33.0629    7.5384    3.3222 C.3       1 GLC5        0.0000 
     39 CA        -31.1750    7.8020    3.6980 C.3       3 GLL5        0.0000 
     40 CA        -34.9360    8.0560    3.5560 C.3       2 GLP5        0.0000 
     41 CA        -25.1537   18.8745    9.0832 C.3       1 GLC5        0.0000 
     42 CA        -23.6890   17.4920    7.6500 C.3       3 GLL5        0.0000 
     43 CA        -23.5490   16.2890    8.9585 C.3       1 GLC5        0.0000 
     44 CA        -22.8370   15.5300   10.5030 C.3       2 GLP5        0.0000 
     45 CA        -22.4240   16.6165    6.8895 C.3       1 GLC5        0.0000 
     46 CA        -26.4723   16.2305    7.8203 C.3       1 GLC5        0.0000 
     47 CA        -24.8330   16.6040    7.1780 C.3       3 GLL5        0.0000 
     48 CA        -23.9566   17.4670    5.3816 C.3       1 GLC5        0.0000 
     49 CA        -23.5590   17.5200    3.3680 C.3       2 GLP5        0.0000 
     50 CA        -23.2898   14.8483    8.2803 C.3       1 GLC5        0.0000 
     51 CA        -24.6540   15.1720    7.6310 C.3       3 GLL5        0.0000 
     52 CA        -21.9540   14.9940    9.5180 C.3       2 GLP5        0.0000 
     53 CA        -22.6062   15.4437    6.7037 C.3       1 GLC5        0.0000 
     54 CA        -25.6432   13.9507    4.7500 C.3       1 GLC5        0.0000 
     55 CA        -24.5970   14.2330    6.4540 C.3       3 GLL5        0.0000 
     56 CA        -26.0930   14.1260    3.0260 C.3       2 GLP5        0.0000 
     57 CA        -30.4950    8.0415    7.0592 C.3       1 GLC5        0.0000 
     58 CA        -30.0039    9.0086    2.7123 C.3       1 GLC5        0.0000 
     59 CA        -29.2510   10.6370    1.7540 C.3       2 GLP5        0.0000 
     60 CA        -30.4691   12.0925    9.2130 C.3       1 GLC5        0.0000 
     61 CA        -28.8370   11.0750    7.6240 C.3       3 GLL5        0.0000 
     62 CA        -32.0680   12.9210    9.9200 C.3       2 GLP5        0.0000 
     63 CA        -28.6276   13.5602    7.2602 C.3       1 GLC5        0.0000 
     64 CA        -30.4995    6.9567    6.2363 C.3       1 GLC5        0.0000 
@<TRIPOS>BOND
@<TRIPOS>SUBSTRUCTURE
     1 GLC5        1 GROUP        1 X    GLC  0     ROOT GLC X 6
     2 GLP5        3 GROUP        1 Y    GLP  0     ROOT GLP Y 13
     3 GLL5        2 GROUP        1 Z    GLL  0     ROOT GLL Z 20
@<TRIPOS>SET

