#    Name: 3tfv_2CN_1_ligand
#    Modification time : Mon Mar 24 20:03:34 2014

@<TRIPOS>MOLECULE
3tfv_2CN_1_ligand
   53    54     1     0     0
SMALL
NO_CHARGES


@<TRIPOS>ATOM
      1 CAA       -23.1920   21.1710    8.2320 C.3       1 2CN289      0.0000 
      2 OAB       -26.6090    6.7850    5.5980 O.co2     1 2CN289      0.0000 
      3 OAC       -27.3570    4.8960    4.7150 O.co2     1 2CN289      0.0000 
      4 BRAD      -31.7160    5.8370    1.8140 Br        1 2CN289      0.0000 
      5 CAE       -28.5750   11.8330    9.8520 C.ar      1 2CN289      0.0000 
      6 CAF       -29.2320   11.0730    8.9240 C.ar      1 2CN289      0.0000 
      7 CAG       -31.1750    7.8020    3.6980 C.ar      1 2CN289      0.0000 
      8 CAH       -27.5070   12.5920    9.4860 C.ar      1 2CN289      0.0000 
      9 CAI       -30.4660    8.4350    4.6960 C.ar      1 2CN289      0.0000 
     10 CAJ       -27.7540   11.8310    7.2480 C.ar      1 2CN289      0.0000 
     11 CAK       -29.4960    6.1060    3.5790 C.ar      1 2CN289      0.0000 
     12 CAL       -22.8390   19.8200    7.6600 C.3       1 2CN289      0.0000 
     13 CAM       -24.0620   18.9560    7.5750 C.3       1 2CN289      0.0000 
     14 CAN       -23.6890   17.4920    7.6500 C.3       1 2CN289      0.0000 
     15 CAO       -24.8330   16.6040    7.1780 C.3       1 2CN289      0.0000 
     16 CAP       -24.6540   15.1720    7.6310 C.3       1 2CN289      0.0000 
     17 CAQ       -24.5970   14.2330    6.4540 C.3       1 2CN289      0.0000 
     18 CAR       -25.7900   13.3180    6.4940 C.3       1 2CN289      0.0000 
     19 CAS       -29.5620   10.2130    6.6290 C.3       1 2CN289      0.0000 
     20 OAT       -26.0560   13.3640    7.8380 O.3       1 2CN289      0.0000 
     21 SAU       -28.4800    8.7850    6.3740 S.3       1 2CN289      0.0000 
     22 CAV       -27.4770    6.1020    5.0040 C.2       1 2CN289      0.0000 
     23 CAW       -30.6930    6.6420    3.1440 C.ar      1 2CN289      0.0000 
     24 CAX       -28.8370   11.0750    7.6240 C.ar      1 2CN289      0.0000 
     25 CAY       -27.0990   12.5940    8.1810 C.ar      1 2CN289      0.0000 
     26 CAZ       -29.2780    7.9140    5.1360 C.ar      1 2CN289      0.0000 
     27 CBA       -28.7820    6.7450    4.5750 C.ar      1 2CN289      0.0000 
     28 H         -28.8956   11.8285   10.8405 H         1 2CN289      0.0000 
     29 H         -30.0417   10.4890    9.2203 H         1 2CN289      0.0000 
     30 H         -32.0687    8.2022    3.3685 H         1 2CN289      0.0000 
     31 H         -27.0060   13.1636   10.1863 H         1 2CN289      0.0000 
     32 H         -30.8361    9.3080    5.1126 H         1 2CN289      0.0000 
     33 H         -27.4343   11.8247    6.2660 H         1 2CN289      0.0000 
     34 H         -29.1379    5.2355    3.1636 H         1 2CN289      0.0000 
     35 H         -22.0940   19.3411    8.2981 H         1 2CN289      0.0000 
     36 H         -22.4107   19.9500    6.6644 H         1 2CN289      0.0000 
     37 H         -24.5828   19.1462    6.6330 H         1 2CN289      0.0000 
     38 H         -24.7408   19.1963    8.3973 H         1 2CN289      0.0000 
     39 H         -23.4371   17.2320    8.6814 H         1 2CN289      0.0000 
     40 H         -22.8116   17.3066    7.0251 H         1 2CN289      0.0000 
     41 H         -24.8831   16.6371    6.0849 H         1 2CN289      0.0000 
     42 H         -25.7758   16.9962    7.5728 H         1 2CN289      0.0000 
     43 H         -25.4883   14.8922    8.2811 H         1 2CN289      0.0000 
     44 H         -23.7288   15.0894    8.2090 H         1 2CN289      0.0000 
     45 H         -23.6839   13.6456    6.5012 H         1 2CN289      0.0000 
     46 H         -24.6065   14.8061    5.5307 H         1 2CN289      0.0000 
     47 H         -25.4851   12.3568    6.1482 H         1 2CN289      0.0000 
     48 H         -26.5573   13.7435    5.8886 H         1 2CN289      0.0000 
     49 H         -30.4332    9.7680    6.9952 H         1 2CN289      0.0000 
     50 H         -29.6234   10.6185    5.6683 H         1 2CN289      0.0000 
     51 H         -22.3923   21.7680    8.2951 H         1 2CN289      0.0000 
     52 H         -23.8692   21.6466    7.6706 H         1 2CN289      0.0000 
     53 H         -23.5751   21.0959    9.1526 H         1 2CN289      0.0000 
@<TRIPOS>BOND
     1   12    1 1    
     2   51    1 1    
     3   52    1 1    
     4   53    1 1    
     5   22    2 ar   
     6   22    3 ar   
     7   23    4 1    
     8    6    5 ar   
     9    8    5 ar   
    10   28    5 1    
    11   24    6 ar   
    12   29    6 1    
    13    9    7 ar   
    14   23    7 ar   
    15   30    7 1    
    16   25    8 ar   
    17   31    8 1    
    18   26    9 ar   
    19   32    9 1    
    20   24   10 ar   
    21   25   10 ar   
    22   33   10 1    
    23   23   11 ar   
    24   27   11 ar   
    25   34   11 1    
    26   13   12 1    
    27   35   12 1    
    28   36   12 1    
    29   14   13 1    
    30   37   13 1    
    31   38   13 1    
    32   15   14 1    
    33   39   14 1    
    34   40   14 1    
    35   16   15 1    
    36   41   15 1    
    37   42   15 1    
    38   17   16 1    
    39   43   16 1    
    40   44   16 1    
    41   18   17 1    
    42   45   17 1    
    43   46   17 1    
    44   20   18 1    
    45   47   18 1    
    46   48   18 1    
    47   21   19 1    
    48   24   19 1    
    49   49   19 1    
    50   50   19 1    
    51   25   20 1    
    52   26   21 1    
    53   27   22 1    
    54   27   26 ar   
@<TRIPOS>SUBSTRUCTURE
     1 2CN289      1 GROUP   
@<TRIPOS>SET

