#    Name: 3gw5_72X_2_INTS_M
#    Modification time : Tue Mar 25 13:02:24 2014

@<TRIPOS>MOLECULE
3gw5_72X_2_INTS_M
  100     0    12     0     0
SMALL
NO_CHARGES


@<TRIPOS>ATOM
      1 O          37.6175  -25.0210  -22.5465 O.2       1 ALC1        0.0000 
      2 O          37.3040  -23.7750  -22.7260 O.2       9 ALL1        0.0000 
      3 O          37.9310  -26.2670  -22.3670 O.2       5 ALP1        0.0000 
      4 CA         39.8590  -21.9345  -21.7150 C.3       4 GLC5        0.0000 
      5 CA         38.0150  -20.9110  -22.4900 C.3      12 GLL5        0.0000 
      6 CA         41.7030  -22.9580  -20.9400 C.3       8 GLP5        0.0000 
      7 CA         40.3580  -18.5245  -22.8045 C.3       4 GLC5        0.0000 
      8 CA         38.3630  -19.4890  -22.4940 C.3      12 GLL5        0.0000 
      9 CA         42.3530  -17.5600  -23.1150 C.3       8 GLP5        0.0000 
     10 CA         40.8885  -23.4155  -22.5510 C.3       4 GLC5        0.0000 
     11 CA         40.0740  -23.8730  -24.1620 C.3      12 GLL5        0.0000 
     12 CA         42.0520  -24.1405  -26.4990 C.3       4 GLC5        0.0000 
     13 CA         41.1760  -24.5880  -24.9770 C.3      12 GLL5        0.0000 
     14 CA         42.9280  -23.6930  -28.0210 C.3       8 GLP5        0.0000 
     15 CA         41.4565  -25.8880  -27.2470 C.3       4 GLC5        0.0000 
     16 CA         40.8690  -26.0470  -25.3550 C.3      12 GLL5        0.0000 
     17 CA         42.0440  -25.7290  -29.1390 C.3       8 GLP5        0.0000 
     18 CA         39.8905  -27.1575  -26.9340 C.3       4 GLC5        0.0000 
     19 CA         38.9120  -28.2680  -28.5130 C.3       8 GLP5        0.0000 
     20 N          42.3675  -26.8160  -23.5705 N.am      2 SEC2        0.0000 
     21 N          40.9460  -26.8590  -24.2180 N.am     10 SEL2        0.0000 
     22 N          43.7890  -26.7730  -22.9230 N.am      6 SEP2        0.0000 
     23 CA         41.8135  -28.9500  -23.1080 C.3       4 GLC5        0.0000 
     24 CA         40.6790  -28.2100  -24.4990 C.3      12 GLL5        0.0000 
     25 CA         42.9480  -29.6900  -21.7170 C.3       8 GLP5        0.0000 
     26 CA         41.3790  -30.2955  -24.6410 C.3       4 GLC5        0.0000 
     27 CA         42.0790  -32.3810  -24.7830 C.3       8 GLP5        0.0000 
     28 CA         39.7955  -28.2390  -26.5060 C.3       4 GLC5        0.0000 
     29 CA         38.8025  -28.3475  -23.4835 C.3       4 GLC5        0.0000 
     30 CA         36.9260  -28.4850  -22.4680 C.3       8 GLP5        0.0000 
     31 CA         39.9850  -29.9310  -23.2450 C.3       4 GLC5        0.0000 
     32 CA         39.2910  -31.6520  -21.9910 C.3       8 GLP5        0.0000 
     33 CA         37.0825  -27.4985  -29.1670 C.3       4 GLC5        0.0000 
     34 CA         35.2530  -26.7290  -29.8210 C.3      12 GLL5        0.0000 
     35 CA         35.6045  -27.6975  -27.9780 C.3       4 GLC5        0.0000 
     36 CA         35.9560  -28.6660  -26.1350 C.3       8 GLP5        0.0000 
     37 CA         37.9690  -26.5350  -29.1230 C.3       4 GLC5        0.0000 
     38 CA         37.0260  -24.8020  -29.7330 C.3      12 GLL5        0.0000 
     39 OD1        36.7525  -27.5745  -31.5825 O.co2     3 ASC3        0.0000 
     40 OD1        35.4770  -27.0080  -31.2560 O.co2    11 ASL3        0.0000 
     41 OD1        38.0280  -28.1410  -31.9090 O.co2     7 ASP3        0.0000 
     42 OD1        36.7070  -26.5625  -32.0145 O.co2     3 ASC3        0.0000 
     43 OD1        37.9370  -26.1170  -32.7730 O.co2     7 ASP3        0.0000 
     44 OD1        35.9495  -28.4435  -30.8440 O.co2     3 ASC3        0.0000 
     45 OD1        36.4220  -29.8790  -30.4320 O.co2     7 ASP3        0.0000 
     46 OD1        34.8880  -28.2600  -31.0205 O.co2     3 ASC3        0.0000 
     47 OD1        34.2990  -29.5120  -30.7850 O.co2     7 ASP3        0.0000 
     48 CA         40.4740  -24.3895  -29.4305 C.3       4 GLC5        0.0000 
     49 CA         38.9040  -23.0500  -29.7220 C.3      12 GLL5        0.0000 
     50 CA         41.1445  -22.6450  -28.6865 C.3       4 GLC5        0.0000 
     51 CA         39.3610  -21.5970  -29.3520 C.3      12 GLL5        0.0000 
     52 CA         38.8850  -18.5390  -29.5715 C.3       4 GLC5        0.0000 
     53 CA         38.4190  -20.4700  -29.8830 C.3      12 GLL5        0.0000 
     54 CA         39.3510  -16.6080  -29.2600 C.3       8 GLP5        0.0000 
     55 CA         39.9340  -20.8850  -31.0595 C.3       4 GLC5        0.0000 
     56 CA         41.4490  -21.3000  -32.2360 C.3       8 GLP5        0.0000 
     57 CA         35.7670  -21.4945  -31.5420 C.3       4 GLC5        0.0000 
     58 CA         36.4900  -22.2630  -30.0900 C.3      12 GLL5        0.0000 
     59 CA         35.0440  -20.7260  -32.9940 C.3       8 GLP5        0.0000 
     60 O          36.6225  -25.9225  -27.4465 O.2       1 ALC1        0.0000 
     61 O          35.3320  -25.0300  -28.0000 O.2       9 ALL1        0.0000 
     62 O          37.9130  -26.8150  -26.8930 O.2       5 ALP1        0.0000 
     63 N          32.2050  -23.5160  -28.2895 N.am      2 SEC2        0.0000 
     64 N          33.1040  -24.4770  -27.9950 N.am     10 SEL2        0.0000 
     65 N          31.3060  -22.5550  -28.5840 N.am      6 SEP2        0.0000 
     66 CA         31.7505  -21.4910  -24.8190 C.3       4 GLC5        0.0000 
     67 CA         33.4450  -22.6020  -24.8480 C.3      12 GLL5        0.0000 
     68 CA         30.0560  -20.3800  -24.7900 C.3       8 GLP5        0.0000 
     69 CA         35.7565  -26.7020  -25.6470 C.3       4 GLC5        0.0000 
     70 CA         35.5570  -24.7380  -25.1590 C.3      12 GLL5        0.0000 
     71 CA         31.1375  -24.5190  -25.4750 C.3       4 GLC5        0.0000 
     72 CA         33.1510  -24.1320  -25.1300 C.3      12 GLL5        0.0000 
     73 CA         29.1240  -24.9060  -25.8200 C.3       8 GLP5        0.0000 
     74 CA         35.1960  -27.9850  -33.0445 C.3       4 GLC5        0.0000 
     75 CA         34.4840  -26.4040  -32.1600 C.3      12 GLL5        0.0000 
     76 CA         35.9080  -29.5660  -33.9290 C.3       8 GLP5        0.0000 
     77 CA         37.1670  -17.3800  -26.5930 C.3       4 GLC5        0.0000 
     78 CA         38.5160  -18.5490  -26.5110 C.3      12 GLL5        0.0000 
     79 CA         35.8180  -16.2110  -26.6750 C.3       8 GLP5        0.0000 
     80 CA         38.9335  -17.5785  -27.8855 C.3       4 GLC5        0.0000 
     81 CA         40.3660  -18.0325  -25.5700 C.3       4 GLC5        0.0000 
     82 CA         42.2160  -17.5160  -24.6290 C.3       8 GLP5        0.0000 
     83 CA         40.0500  -19.4575  -26.6320 C.3       4 GLC5        0.0000 
     84 CA         41.5840  -20.3660  -26.7530 C.3       8 GLP5        0.0000 
     85 CA         38.5337  -17.6230  -21.9155 C.3       4 GLC5        0.0000 
     86 CA         38.5200  -18.7530  -23.7580 C.3      12 GLL5        0.0000 
     87 CA         38.6260  -16.1250  -20.7050 C.3       8 GLP5        0.0000 
     88 CA         37.0962  -17.7105  -24.7882 C.3       4 GLC5        0.0000 
     89 CA         35.7650  -16.3340  -25.1700 C.3       8 GLP5        0.0000 
     90 CA         40.3218  -18.3015  -24.5177 C.3       4 GLC5        0.0000 
     91 CA         41.3840  -22.5598  -25.0857 C.3       4 GLC5        0.0000 
     92 CA         42.1430  -20.8890  -25.6020 C.3       8 GLP5        0.0000 
     93 CA         41.8012  -25.3017  -23.3050 C.3       4 GLC5        0.0000 
     94 CA         42.5800  -25.2860  -21.4440 C.3       8 GLP5        0.0000 
     95 CA         40.2908  -21.8118  -30.8865 C.3       4 GLC5        0.0000 
     96 CA         40.2370  -20.6998  -28.1852 C.3       4 GLC5        0.0000 
     97 CA         36.7780  -20.1385  -31.4827 C.3       4 GLC5        0.0000 
     98 CA         35.9190  -19.6600  -33.1600 C.3       8 GLP5        0.0000 
     99 CA         33.6630  -21.0898  -25.4413 C.3       4 GLC5        0.0000 
    100 CA         33.1960  -19.6260  -26.4080 C.3       8 GLP5        0.0000 
@<TRIPOS>BOND
@<TRIPOS>SUBSTRUCTURE
     1 ALC1        1 GROUP        1 X    ALC  0     ROOT ALC X 1
     2 SEC2       20 GROUP        1 X    SEC  0     **** SEC X 2
     3 ASC3       39 GROUP        1 X    ASC  0     **** ASC X 3
     4 GLC5        4 GROUP        1 X    GLC  0     **** GLC X 6
     5 ALP1        3 GROUP        1 Y    ALP  0     ROOT ALP Y 8
     6 SEP2       22 GROUP        1 Y    SEP  0     **** SEP Y 9
     7 ASP3       41 GROUP        1 Y    ASP  0     **** ASP Y 10
     8 GLP5        6 GROUP        1 Y    GLP  0     **** GLP Y 13
     9 ALL1        2 GROUP        1 Z    ALL  0     ROOT ALL Z 15
    10 SEL2       21 GROUP        1 Z    SEL  0     **** SEL Z 16
    11 ASL3       40 GROUP        1 Z    ASL  0     **** ASL Z 17
    12 GLL5        5 GROUP        1 Z    GLL  0     **** GLL Z 20
@<TRIPOS>SET

