#    Name: 3gw5_72X_2_ligand
#    Modification time : Tue Mar 25 13:02:24 2014

@<TRIPOS>MOLECULE
3gw5_72X_2_ligand
   80    82     1     0     0
SMALL
NO_CHARGES


@<TRIPOS>ATOM
      1 C1         37.4590  -23.1140  -24.0050 C.3       1 72X400      0.0000 
      2 O2         37.3040  -23.7750  -22.7260 O.3       1 72X400      0.0000 
      3 C3         37.8290  -21.6010  -23.7640 C.ar      1 72X400      0.0000 
      4 C4         38.0150  -20.9110  -22.4900 C.ar      1 72X400      0.0000 
      5 C5         37.9950  -20.8220  -25.1010 C.ar      1 72X400      0.0000 
      6 C6         38.3630  -19.4890  -22.4940 C.ar      1 72X400      0.0000 
      7 C7         38.3350  -19.4210  -25.0550 C.ar      1 72X400      0.0000 
      8 C8         38.5200  -18.7530  -23.7580 C.ar      1 72X400      0.0000 
      9 C15        38.6370  -23.8510  -24.7740 C.3       1 72X400      0.0000 
     10 C18        40.0740  -23.8730  -24.1620 C.3       1 72X400      0.0000 
     11 C21        41.1760  -24.5880  -24.9770 C.3       1 72X400      0.0000 
     12 C24        40.8690  -26.0470  -25.3550 C.3       1 72X400      0.0000 
     13 O27        40.9460  -26.8590  -24.2180 O.3       1 72X400      0.0000 
     14 C28        40.6790  -28.2100  -24.4990 C.3       1 72X400      0.0000 
     15 C32        35.5680  -25.2510  -29.4260 C.3       1 72X400      0.0000 
     16 C33        35.2530  -26.7290  -29.8210 C.3       1 72X400      0.0000 
     17 C34        37.0260  -24.8020  -29.7330 C.3       1 72X400      0.0000 
     18 N35        35.4770  -27.0080  -31.2560 N.4       1 72X400      0.0000 
     19 C36        37.4220  -23.3460  -29.3540 C.3       1 72X400      0.0000 
     20 C37        38.9040  -23.0500  -29.7220 C.3       1 72X400      0.0000 
     21 C38        39.3610  -21.5970  -29.3520 C.3       1 72X400      0.0000 
     22 C39        38.4190  -20.4700  -29.8830 C.3       1 72X400      0.0000 
     23 C40        36.4900  -22.2630  -30.0900 C.3       1 72X400      0.0000 
     24 C41        36.8550  -20.7640  -29.7280 C.3       1 72X400      0.0000 
     25 N42        35.3320  -25.0300  -28.0000 N.am      1 72X400      0.0000 
     26 C43        34.1540  -24.6620  -27.3640 C.2       1 72X400      0.0000 
     27 O44        33.1040  -24.4770  -27.9950 O.2       1 72X400      0.0000 
     28 N45        34.2760  -24.5200  -25.9670 N.am      1 72X400      0.0000 
     29 C46        33.4450  -22.6020  -24.8480 C.3       1 72X400      0.0000 
     30 C47        34.8150  -22.5050  -24.1010 C.3       1 72X400      0.0000 
     31 C48        36.0760  -23.2310  -24.8450 C.3       1 72X400      0.0000 
     32 C49        35.5570  -24.7380  -25.1590 C.3       1 72X400      0.0000 
     33 C50        33.1510  -24.1320  -25.1300 C.3       1 72X400      0.0000 
     34 C51        34.4840  -26.4040  -32.1600 C.3       1 72X400      0.0000 
     35 CL1        38.5160  -18.5490  -26.5110 Cl        1 72X400      0.0000 
     36 H          37.9066  -21.4012  -21.6275 H         1 72X400      0.0000 
     37 H          37.8595  -21.3231  -25.9385 H         1 72X400      0.0000 
     38 H          38.4977  -19.0041  -21.6190 H         1 72X400      0.0000 
     39 H          38.7590  -17.7720  -23.7345 H         1 72X400      0.0000 
     40 H          38.6976  -23.4036  -25.7992 H         1 72X400      0.0000 
     41 H          38.3118  -24.9089  -24.9476 H         1 72X400      0.0000 
     42 H          40.0129  -24.3437  -23.1574 H         1 72X400      0.0000 
     43 H          40.3884  -22.8222  -23.9844 H         1 72X400      0.0000 
     44 H          42.1156  -24.5604  -24.3963 H         1 72X400      0.0000 
     45 H          41.3588  -24.0112  -25.9015 H         1 72X400      0.0000 
     46 H          41.5913  -26.3371  -26.1315 H         1 72X400      0.0000 
     47 H          39.8704  -26.0571  -25.8150 H         1 72X400      0.0000 
     48 H          34.9034  -24.6013  -30.0014 H         1 72X400      0.0000 
     49 H          34.2061  -26.9281  -29.5446 H         1 72X400      0.0000 
     50 H          35.8837  -27.3790  -29.1950 H         1 72X400      0.0000 
     51 H          37.2130  -24.9430  -30.8202 H         1 72X400      0.0000 
     52 H          37.7219  -25.4989  -29.2164 H         1 72X400      0.0000 
     53 H          37.2978  -23.2036  -28.2967 H         1 72X400      0.0000 
     54 H          39.0384  -23.1925  -30.7973 H         1 72X400      0.0000 
     55 H          39.5488  -23.7602  -29.1982 H         1 72X400      0.0000 
     56 H          40.3667  -21.4349  -29.7571 H         1 72X400      0.0000 
     57 H          39.4223  -21.5190  -28.2602 H         1 72X400      0.0000 
     58 H          38.6228  -20.3028  -30.9472 H         1 72X400      0.0000 
     59 H          38.6373  -19.5376  -29.3490 H         1 72X400      0.0000 
     60 H          35.4607  -22.4541  -29.8017 H         1 72X400      0.0000 
     61 H          36.5953  -22.4020  -31.1618 H         1 72X400      0.0000 
     62 H          36.3170  -20.1024  -30.3918 H         1 72X400      0.0000 
     63 H          36.5728  -20.5726  -28.7026 H         1 72X400      0.0000 
     64 H          36.2053  -25.1792  -27.3821 H         1 72X400      0.0000 
     65 H          33.5104  -22.0884  -25.7806 H         1 72X400      0.0000 
     66 H          32.6711  -22.2139  -24.2250 H         1 72X400      0.0000 
     67 H          34.7262  -22.9605  -23.1095 H         1 72X400      0.0000 
     68 H          35.0876  -21.4531  -23.9680 H         1 72X400      0.0000 
     69 H          36.1853  -22.7309  -25.7944 H         1 72X400      0.0000 
     70 H          36.2952  -25.2097  -25.7373 H         1 72X400      0.0000 
     71 H          35.3514  -25.1972  -24.2376 H         1 72X400      0.0000 
     72 H          33.1484  -24.6300  -24.1956 H         1 72X400      0.0000 
     73 H          32.2256  -24.1861  -25.6417 H         1 72X400      0.0000 
     74 H          41.3281  -28.5873  -25.1595 H         1 72X400      0.0000 
     75 H          40.7331  -28.7779  -23.6777 H         1 72X400      0.0000 
     76 H          39.7641  -28.3358  -24.8826 H         1 72X400      0.0000 
     77 H          34.4686  -25.4072  -32.0820 H         1 72X400      0.0000 
     78 H          34.6737  -26.6202  -33.1177 H         1 72X400      0.0000 
     79 H          33.5583  -26.7276  -31.9643 H         1 72X400      0.0000 
     80 H          37.6503  -24.7020  -22.8702 H         1 72X400      0.0000 
@<TRIPOS>BOND
     1    2    1 1    
     2    3    1 1    
     3    9    1 1    
     4   31    1 1    
     5   80    2 1    
     6    4    3 ar   
     7    5    3 ar   
     8    6    4 ar   
     9   36    4 1    
    10    7    5 ar   
    11   37    5 1    
    12    8    6 ar   
    13   38    6 1    
    14    8    7 ar   
    15   35    7 1    
    16   39    8 1    
    17   10    9 1    
    18   40    9 1    
    19   41    9 1    
    20   11   10 1    
    21   42   10 1    
    22   43   10 1    
    23   12   11 1    
    24   44   11 1    
    25   45   11 1    
    26   13   12 1    
    27   46   12 1    
    28   47   12 1    
    29   14   13 1    
    30   74   14 1    
    31   75   14 1    
    32   76   14 1    
    33   16   15 1    
    34   17   15 1    
    35   25   15 1    
    36   48   15 1    
    37   18   16 1    
    38   49   16 1    
    39   50   16 1    
    40   19   17 1    
    41   51   17 1    
    42   52   17 1    
    43   34   18 1    
    44   20   19 1    
    45   23   19 1    
    46   53   19 1    
    47   21   20 1    
    48   54   20 1    
    49   55   20 1    
    50   22   21 1    
    51   56   21 1    
    52   57   21 1    
    53   24   22 1    
    54   58   22 1    
    55   59   22 1    
    56   24   23 1    
    57   60   23 1    
    58   61   23 1    
    59   62   24 1    
    60   63   24 1    
    61   26   25 am   
    62   64   25 1    
    63   27   26 2    
    64   28   26 am   
    65   32   28 1    
    66   33   28 1    
    67   30   29 1    
    68   33   29 1    
    69   65   29 1    
    70   66   29 1    
    71   31   30 1    
    72   67   30 1    
    73   68   30 1    
    74   32   31 1    
    75   69   31 1    
    76   70   32 1    
    77   71   32 1    
    78   72   33 1    
    79   73   33 1    
    80   77   34 1    
    81   78   34 1    
    82   79   34 1    
@<TRIPOS>SUBSTRUCTURE
     1 72X400      1 GROUP   
@<TRIPOS>SET

