#    Name: 4k0f_1YN_1_INTS_M
#    Modification time : Tue Mar 25 06:44:32 2014

@<TRIPOS>MOLECULE
4k0f_1YN_1_INTS_M
   76     0     3     0     0
SMALL
NO_CHARGES


@<TRIPOS>ATOM
      1 CA          2.9485   13.0070   22.6880 C.3       1 GLC5        0.0000 
      2 CA          3.4840   14.3080   21.3280 C.3       3 GLL5        0.0000 
      3 CA          2.4130   11.7060   24.0480 C.3       2 GLP5        0.0000 
      4 CA         13.7575    8.5895   20.0800 C.3       1 GLC5        0.0000 
      5 CA         13.3660   10.5400   19.6940 C.3       3 GLL5        0.0000 
      6 CA         14.1490    6.6390   20.4660 C.3       2 GLP5        0.0000 
      7 CA         14.9130    8.4375   19.6205 C.3       1 GLC5        0.0000 
      8 CA         14.8030   10.0560   19.8280 C.3       3 GLL5        0.0000 
      9 CA         15.0230    6.8190   19.4130 C.3       2 GLP5        0.0000 
     10 CA         13.2270   13.8155   18.4920 C.3       1 GLC5        0.0000 
     11 CA         14.0870   12.8060   19.9600 C.3       3 GLL5        0.0000 
     12 CA         12.3670   14.8250   17.0240 C.3       2 GLP5        0.0000 
     13 CA         17.7715   12.7440   16.2070 C.3       1 GLC5        0.0000 
     14 CA         18.7180   11.4500   17.2120 C.3       3 GLL5        0.0000 
     15 CA         16.8250   14.0380   15.2020 C.3       2 GLP5        0.0000 
     16 CA         20.0845    8.4940   19.8205 C.3       1 GLC5        0.0000 
     17 CA         18.8580    9.2720   18.3110 C.3       3 GLL5        0.0000 
     18 CA         21.3110    7.7160   21.3300 C.3       2 GLP5        0.0000 
     19 CA         20.6230    7.2035   17.0210 C.3       1 GLC5        0.0000 
     20 CA         21.4840    8.9450   16.9580 C.3       3 GLL5        0.0000 
     21 CA         19.7620    5.4620   17.0840 C.3       2 GLP5        0.0000 
     22 CA         21.9640   10.0395   18.6905 C.3       1 GLC5        0.0000 
     23 CA         22.4440   11.1340   20.4230 C.3       2 GLP5        0.0000 
     24 CA         21.6615    6.9120   16.1135 C.3       1 GLC5        0.0000 
     25 CA         22.5100    8.7790   15.9310 C.3       3 GLL5        0.0000 
     26 CA         20.8130    5.0450   16.2960 C.3       2 GLP5        0.0000 
     27 CA         21.3360    7.2245   14.8020 C.3       1 GLC5        0.0000 
     28 CA         21.9520    9.3030   14.6850 C.3       3 GLL5        0.0000 
     29 CA         20.7200    5.1460   14.9190 C.3       2 GLP5        0.0000 
     30 CA         21.2985    9.4715   12.7415 C.3       1 GLC5        0.0000 
     31 CA         20.6450    9.6400   10.7980 C.3       2 GLP5        0.0000 
     32 CA         22.9345   11.5395   18.4345 C.3       1 GLC5        0.0000 
     33 CA         23.4250   11.9450   16.4460 C.3       3 GLL5        0.0000 
     34 CA         26.3260   12.8615   10.6930 C.3       1 GLC5        0.0000 
     35 CA         25.6530   12.1030   12.6920 C.3       3 GLL5        0.0000 
     36 CA         26.9990   13.6200    8.6940 C.3       2 GLP5        0.0000 
     37 CA         26.0405    8.6890   11.6575 C.3       1 GLC5        0.0000 
     38 CA         26.4740    9.9300   13.3310 C.3       3 GLL5        0.0000 
     39 CA         25.6070    7.4480    9.9840 C.3       2 GLP5        0.0000 
     40 CA         28.0575    9.8290   10.2850 C.3       1 GLC5        0.0000 
     41 CA         27.8310   11.1160   11.3830 C.3       3 GLL5        0.0000 
     42 CA         28.2840    8.5420    9.1870 C.3       2 GLP5        0.0000 
     43 CA         27.4150   12.3680   10.0385 C.3       1 GLC5        0.0000 
     44 CA         28.8975   12.8225   11.1355 C.3       1 GLC5        0.0000 
     45 CA         29.9640   14.5290   10.8880 C.3       2 GLP5        0.0000 
     46 CA         23.3720   12.8930   11.7960 C.3       1 GLC5        0.0000 
     47 CA         23.3510   13.1520   13.6330 C.3       3 GLL5        0.0000 
     48 CA         23.3930   12.6340    9.9590 C.3       2 GLP5        0.0000 
     49 CA         21.8980   13.6075   13.5770 C.3       1 GLC5        0.0000 
     50 CA         20.4450   14.0630   13.5210 C.3       2 GLP5        0.0000 
     51 CA         23.2360   14.9640   12.5145 C.3       1 GLC5        0.0000 
     52 CA         23.1210   16.7760   11.3960 C.3       2 GLP5        0.0000 
     53 CA         25.0220   14.1190   14.0655 C.3       1 GLC5        0.0000 
     54 CA         26.6930   15.0860   14.4980 C.3       2 GLP5        0.0000 
     55 CA         10.4642   14.9720   20.8460 C.3       1 GLC5        0.0000 
     56 CA         11.1170   13.2040   19.9360 C.3       3 GLL5        0.0000 
     57 CA         10.5010   16.6810   21.7960 C.3       2 GLP5        0.0000 
     58 CA          8.3325   12.0403   22.2010 C.3       1 GLC5        0.0000 
     59 CA          8.8960   12.2730   20.2710 C.3       3 GLL5        0.0000 
     60 CA          7.4740   12.3920   23.8470 C.3       2 GLP5        0.0000 
     61 CA         11.2641   13.1943   18.3193 C.3       1 GLC5        0.0000 
     62 CA         11.4670   13.7740   16.5060 C.3       2 GLP5        0.0000 
     63 CA         14.3777    9.9515   17.7245 C.3       1 GLC5        0.0000 
     64 CA         14.6710    9.6050   15.6880 C.3       2 GLP5        0.0000 
     65 CA         15.5962   14.1960   19.1397 C.3       1 GLC5        0.0000 
     66 CA         15.5200   12.3720   20.1410 C.3       3 GLL5        0.0000 
     67 CA         16.3890   15.8030   18.2290 C.3       2 GLP5        0.0000 
     68 CA         16.3398   12.2248   17.1315 C.3       1 GLC5        0.0000 
     69 CA         17.6070   11.7460   17.9820 C.3       3 GLL5        0.0000 
     70 CA         15.4020   13.2220   15.9110 C.3       2 GLP5        0.0000 
     71 CA         19.7014   11.8848   18.9870 C.3       1 GLC5        0.0000 
     72 CA         20.6130   12.8400   20.4590 C.3       2 GLP5        0.0000 
     73 CA         22.5620    7.8155   13.7990 C.3       1 GLC5        0.0000 
     74 CA         22.8930    6.5900   12.2900 C.3       2 GLP5        0.0000 
     75 CA         26.2659   13.3122   13.6662 C.3       1 GLC5        0.0000 
     76 CA         24.5680   11.9590   13.5980 C.3       3 GLL5        0.0000 
@<TRIPOS>BOND
@<TRIPOS>SUBSTRUCTURE
     1 GLC5        1 GROUP        1 X    GLC  0     ROOT GLC X 6
     2 GLP5        3 GROUP        1 Y    GLP  0     ROOT GLP Y 13
     3 GLL5        2 GROUP        1 Z    GLL  0     ROOT GLL Z 20
@<TRIPOS>SET

