#    Name: 4k0f_1YN_1_ligand
#    Modification time : Tue Mar 25 06:44:32 2014

@<TRIPOS>MOLECULE
4k0f_1YN_1_ligand
   87    93     1     0     0
SMALL
NO_CHARGES


@<TRIPOS>ATOM
      1 C12         9.7380   13.3220   19.8560 C.ar      1 1YN602      0.0000 
      2 C11         8.8960   12.2730   20.2710 C.ar      1 1YN602      0.0000 
      3 C01         4.4190   15.1250   17.6930 C.3       1 1YN602      0.0000 
      4 C02         3.7110   14.4750   18.8970 C.3       1 1YN602      0.0000 
      5 C03         4.4300   14.4890   20.2190 C.3       1 1YN602      0.0000 
      6 C04         3.4840   14.3080   21.3280 C.3       1 1YN602      0.0000 
      7 N05         5.4750   13.4770   20.2220 N.am      1 1YN602      0.0000 
      8 C06         6.7640   13.7180   20.4120 C.2       1 1YN602      0.0000 
      9 O07         7.2700   14.8290   20.3030 O.2       1 1YN602      0.0000 
     10 N08         7.4550   12.4820   20.3920 N.am      1 1YN602      0.0000 
     11 C09         6.4920   11.5310   20.1960 C.2       1 1YN602      0.0000 
     12 N10         5.2860   12.1520   20.1430 N.2       1 1YN602      0.0000 
     13 C13        11.1170   13.2040   19.9360 C.ar      1 1YN602      0.0000 
     14 C14        11.6950   11.9660   20.3690 C.ar      1 1YN602      0.0000 
     15 C15        10.8740   11.0860   21.0860 C.ar      1 1YN602      0.0000 
     16 C16         9.4860   11.1040   20.8390 C.ar      1 1YN602      0.0000 
     17 N17        13.1830   11.7900   20.4100 N.3       1 1YN602      0.0000 
     18 C18        13.3660   10.5400   19.6940 C.3       1 1YN602      0.0000 
     19 C19        14.8030   10.0560   19.8280 C.3       1 1YN602      0.0000 
     20 N20        15.7920   11.0750   19.5470 N.3       1 1YN602      0.0000 
     21 C21        15.5200   12.3720   20.1410 C.3       1 1YN602      0.0000 
     22 C22        14.0870   12.8060   19.9600 C.3       1 1YN602      0.0000 
     23 C23        16.9480   10.7090   18.7220 C.ar      1 1YN602      0.0000 
     24 C24        17.6070   11.7460   17.9820 C.ar      1 1YN602      0.0000 
     25 C25        18.7180   11.4500   17.2120 C.ar      1 1YN602      0.0000 
     26 C26        19.4170   10.2610   17.4330 C.ar      1 1YN602      0.0000 
     27 C27        18.8580    9.2720   18.3110 C.ar      1 1YN602      0.0000 
     28 C28        17.6440    9.5170   18.9540 C.ar      1 1YN602      0.0000 
     29 O29        20.6920   10.1040   16.8150 O.3       1 1YN602      0.0000 
     30 C30        21.4840    8.9450   16.9580 C.3       1 1YN602      0.0000 
     31 C31        22.5100    8.7790   15.9310 C.3       1 1YN602      0.0000 
     32 C32        21.9520    9.3030   14.6850 C.3       1 1YN602      0.0000 
     33 O33        22.3300   10.6270   14.6450 O.3       1 1YN602      0.0000 
     34 C34        23.4580   10.7640   15.4560 C.3       1 1YN602      0.0000 
     35 O35        23.5940    9.5800   16.1970 O.3       1 1YN602      0.0000 
     36 C36        23.4250   11.9450   16.4460 C.3       1 1YN602      0.0000 
     37 N37        24.7430   12.1650   17.0060 N.pl3     1 1YN602      0.0000 
     38 C38        25.4120   11.3040   17.7590 C.2       1 1YN602      0.0000 
     39 N39        26.5800   11.9220   18.1730 N.2       1 1YN602      0.0000 
     40 C40        26.5680   13.1830   17.6340 C.2       1 1YN602      0.0000 
     41 N41        25.3860   13.3460   17.0400 N.2       1 1YN602      0.0000 
     42 C42        24.5840   10.9280   14.5070 C.ar      1 1YN602      0.0000 
     43 C43        24.5680   11.9590   13.5980 C.ar      1 1YN602      0.0000 
     44 C44        25.6530   12.1030   12.6920 C.ar      1 1YN602      0.0000 
     45 C45        26.5670   11.0460   12.5240 C.ar      1 1YN602      0.0000 
     46 C46        26.4740    9.9300   13.3310 C.ar      1 1YN602      0.0000 
     47 C47        25.4330    9.8230   14.2650 C.ar      1 1YN602      0.0000 
     48 CL8        27.8310   11.1160   11.3830 Cl        1 1YN602      0.0000 
     49 CL9        23.3510   13.1520   13.6330 Cl        1 1YN602      0.0000 
     50 H           9.3131   14.1886   19.4878 H         1 1YN602      0.0000 
     51 H           3.4691   13.4168   18.6212 H         1 1YN602      0.0000 
     52 H           2.7136   14.9704   19.0157 H         1 1YN602      0.0000 
     53 H           4.8997   15.4830   20.3174 H         1 1YN602      0.0000 
     54 H           6.6479   10.5881   20.1112 H         1 1YN602      0.0000 
     55 H          11.7324   13.9784   19.6937 H         1 1YN602      0.0000 
     56 H          11.2658   10.4478   21.7693 H         1 1YN602      0.0000 
     57 H           8.9082   10.3017   21.0590 H         1 1YN602      0.0000 
     58 H          13.1433   10.6613   18.6272 H         1 1YN602      0.0000 
     59 H          12.7036    9.7601   20.0881 H         1 1YN602      0.0000 
     60 H          14.9321    9.1852   19.1493 H         1 1YN602      0.0000 
     61 H          14.9316    9.6567   20.8574 H         1 1YN602      0.0000 
     62 H          16.1764   13.1468   19.6990 H         1 1YN602      0.0000 
     63 H          15.7444   12.3572   21.2254 H         1 1YN602      0.0000 
     64 H          13.9396   13.7462   20.5167 H         1 1YN602      0.0000 
     65 H          13.9296   13.0361   18.8933 H         1 1YN602      0.0000 
     66 H          17.2380   12.6984   18.0382 H         1 1YN602      0.0000 
     67 H          19.0319   12.0976   16.4801 H         1 1YN602      0.0000 
     68 H          19.3617    8.3966   18.4529 H         1 1YN602      0.0000 
     69 H          17.2568    8.8187   19.6025 H         1 1YN602      0.0000 
     70 H          20.8362    8.0247   16.9666 H         1 1YN602      0.0000 
     71 H          21.9838    8.9323   17.9663 H         1 1YN602      0.0000 
     72 H          22.7577    7.7610   15.8051 H         1 1YN602      0.0000 
     73 H          20.8674    9.1789   14.7020 H         1 1YN602      0.0000 
     74 H          22.3531    8.7290   13.8474 H         1 1YN602      0.0000 
     75 H          22.6944   11.7066   17.2246 H         1 1YN602      0.0000 
     76 H          23.0694   12.8253   15.9025 H         1 1YN602      0.0000 
     77 H          25.1626   10.4075   17.9952 H         1 1YN602      0.0000 
     78 H          27.2870   13.8122   17.6871 H         1 1YN602      0.0000 
     79 H          25.7637   12.9700   12.1690 H         1 1YN602      0.0000 
     80 H          27.1637    9.1708   13.2550 H         1 1YN602      0.0000 
     81 H          25.2837    8.9488   14.7733 H         1 1YN602      0.0000 
     82 H           4.6062   16.0945   17.8513 H         1 1YN602      0.0000 
     83 H           5.2954   14.6856   17.4960 H         1 1YN602      0.0000 
     84 H           3.8674   15.0650   16.8610 H         1 1YN602      0.0000 
     85 H           3.9461   14.3124   22.2148 H         1 1YN602      0.0000 
     86 H           2.7966   15.0339   21.3521 H         1 1YN602      0.0000 
     87 H           2.9917   13.4404   21.2583 H         1 1YN602      0.0000 
@<TRIPOS>BOND
     1    2    1 ar   
     2   13    1 ar   
     3   50    1 1    
     4   10    2 1    
     5   16    2 ar   
     6    4    3 1    
     7   82    3 1    
     8   83    3 1    
     9   84    3 1    
    10    5    4 1    
    11   51    4 1    
    12   52    4 1    
    13    6    5 1    
    14    7    5 1    
    15   53    5 1    
    16   85    6 1    
    17   86    6 1    
    18   87    6 1    
    19    8    7 am   
    20   12    7 1    
    21    9    8 2    
    22   10    8 am   
    23   11   10 1    
    24   12   11 2    
    25   54   11 1    
    26   14   13 ar   
    27   55   13 1    
    28   15   14 ar   
    29   17   14 1    
    30   16   15 ar   
    31   56   15 1    
    32   57   16 1    
    33   18   17 1    
    34   22   17 1    
    35   19   18 1    
    36   58   18 1    
    37   59   18 1    
    38   20   19 1    
    39   60   19 1    
    40   61   19 1    
    41   21   20 1    
    42   23   20 1    
    43   22   21 1    
    44   62   21 1    
    45   63   21 1    
    46   64   22 1    
    47   65   22 1    
    48   24   23 ar   
    49   28   23 ar   
    50   25   24 ar   
    51   66   24 1    
    52   26   25 ar   
    53   67   25 1    
    54   27   26 ar   
    55   29   26 1    
    56   28   27 ar   
    57   68   27 1    
    58   69   28 1    
    59   30   29 1    
    60   31   30 1    
    61   70   30 1    
    62   71   30 1    
    63   32   31 1    
    64   35   31 1    
    65   72   31 1    
    66   33   32 1    
    67   73   32 1    
    68   74   32 1    
    69   34   33 1    
    70   35   34 1    
    71   36   34 1    
    72   42   34 1    
    73   37   36 1    
    74   75   36 1    
    75   76   36 1    
    76   38   37 1    
    77   41   37 1    
    78   39   38 2    
    79   77   38 1    
    80   40   39 1    
    81   41   40 2    
    82   78   40 1    
    83   43   42 ar   
    84   47   42 ar   
    85   44   43 ar   
    86   49   43 1    
    87   45   44 ar   
    88   79   44 1    
    89   46   45 ar   
    90   48   45 1    
    91   47   46 ar   
    92   80   46 1    
    93   81   47 1    
@<TRIPOS>SUBSTRUCTURE
     1 1YN602      1 GROUP   
@<TRIPOS>SET

