#    Name: 4EOX_1_CAVITY_N1_ALL.mol2
#    Modification time : Mon Mar 10 17:50:07 2014

@<TRIPOS>MOLECULE
4EOX_1_CAVITY_N1_ALL.mol2
   81     0     6     0     0
SMALL
NO_CHARGES


@<TRIPOS>ATOM
      1 N          23.4655   -9.8212    9.4548 N.2       2 ALA2        0.0000 
      2 O          24.3514  -10.1376    8.2865 O.2       2 ALA2        0.0000 
      3 O          25.2374  -10.4540    7.1181 O.2       2 ALA2        0.0000 
      4 CA         26.1233  -10.7704    5.9498 C.3       5 GLY6        0.0000 
      5 CA         21.6521   -8.7520    9.7159 C.3       5 GLY6        0.0000 
      6 DU         22.5380   -9.0683    8.5476 H         6 CUB7        0.0000 
      7 DU         23.4240   -9.3847    7.3793 H         6 CUB7        0.0000 
      8 O          24.3099   -9.7011    6.2110 O.2       2 ALA2        0.0000 
      9 O          25.1959  -10.0175    5.0426 O.2       2 ALA2        0.0000 
     10 DU         23.3825   -8.9482    5.3038 H         6 CUB7        0.0000 
     11 DU         24.2684   -9.2646    4.1354 H         6 CUB7        0.0000 
     12 O          25.1544   -9.5810    2.9671 O.2       2 ALA2        0.0000 
     13 N          24.2269   -8.8281    2.0599 N.2       2 ALA2        0.0000 
     14 N          24.2433   -8.5631    9.7039 N.2       2 ALA2        0.0000 
     15 CA         22.4299   -7.4938    9.9650 C.3       5 GLY6        0.0000 
     16 DU         23.3158   -7.8102    8.7967 H         6 CUB7        0.0000 
     17 O          24.2018   -8.1265    7.6284 O.2       2 ALA2        0.0000 
     18 O          25.0877   -8.4429    6.4600 O.2       2 ALA2        0.0000 
     19 CA         25.9736   -8.7593    5.2917 C.3       5 GLY6        0.0000 
     20 O          26.8596   -9.0757    4.1234 O.2       2 ALA2        0.0000 
     21 OG         21.5024   -6.7409    9.0578 O.2       1 SER1        0.0000 
     22 OG         22.3884   -7.0573    7.8895 O.2       1 SER1        0.0000 
     23 DU         23.2743   -7.3736    6.7212 H         6 CUB7        0.0000 
     24 DU         24.1602   -7.6900    5.5528 H         6 CUB7        0.0000 
     25 DU         25.0462   -8.0064    4.3845 H         6 CUB7        0.0000 
     26 O          25.9321   -8.3228    3.2162 O.2       2 ALA2        0.0000 
     27 N          23.2328   -6.9371    4.6457 N.2       2 ALA2        0.0000 
     28 N          24.1187   -7.2535    3.4773 N.2       2 ALA2        0.0000 
     29 N          25.0047   -7.5699    2.3090 N.2       2 ALA2        0.0000 
     30 N          22.3053   -6.1842    3.7385 N.2       2 ALA2        0.0000 
     31 CA         25.0210   -7.3049    9.9529 C.3       5 GLY6        0.0000 
     32 O          25.9070   -7.6213    8.7846 O.2       2 ALA2        0.0000 
     33 CA         23.2076   -6.2356   10.2141 C.3       5 GLY6        0.0000 
     34 CA         24.0936   -6.5520    9.0457 C.3       5 GLY6        0.0000 
     35 N          24.9795   -6.8684    7.8774 N.2       2 ALA2        0.0000 
     36 N          25.8655   -7.1847    6.7091 N.2       2 ALA2        0.0000 
     37 N          26.7514   -7.5011    5.5408 N.2       2 ALA2        0.0000 
     38 O          27.6374   -7.8175    4.3724 O.2       2 ALA2        0.0000 
     39 OG         22.2802   -5.4827    9.3069 O.2       1 SER1        0.0000 
     40 OG         23.1661   -5.7991    8.1386 O.2       1 SER1        0.0000 
     41 DU         24.0521   -6.1155    6.9702 H         6 CUB7        0.0000 
     42 DU         24.9380   -6.4318    5.8019 H         6 CUB7        0.0000 
     43 DU         25.8240   -6.7482    4.6336 H         6 CUB7        0.0000 
     44 CA         26.7099   -7.0646    3.4652 C.3       5 GLY6        0.0000 
     45 CA         23.1246   -5.3625    6.0631 C.3       5 GLY6        0.0000 
     46 O          24.0106   -5.6789    4.8947 O.2       2 ALA2        0.0000 
     47 N          24.8965   -5.9953    3.7264 N.2       2 ALA2        0.0000 
     48 CA         24.9129   -5.7303   11.3703 C.3       5 GLY6        0.0000 
     49 CA         25.7988   -6.0467   10.2020 C.3       5 GLY6        0.0000 
     50 N          26.6847   -6.3631    9.0337 N.2       2 ALA2        0.0000 
     51 CA         23.9854   -4.9774   10.4631 C.3       5 GLY6        0.0000 
     52 DU         24.8713   -5.2938    9.2948 H         6 CUB7        0.0000 
     53 N          25.7573   -5.6102    8.1265 N.2       2 ALA2        0.0000 
     54 N          26.6432   -5.9266    6.9582 N.2       2 ALA2        0.0000 
     55 CZ         23.0579   -4.2245    9.5560 C.ar      4 PHE5        0.0000 
     56 CA         23.9439   -4.5409    8.3876 C.3       5 GLY6        0.0000 
     57 CA         24.8298   -4.8573    7.2193 C.3       5 GLY6        0.0000 
     58 DU         25.7158   -5.1736    6.0510 H         6 CUB7        0.0000 
     59 N          26.6017   -5.4900    4.8826 N.2       2 ALA2        0.0000 
     60 O          27.4877   -5.8064    3.7143 O.2       2 ALA2        0.0000 
     61 O          24.7883   -4.4207    5.1438 O.2       2 ALA2        0.0000 
     62 CA         25.6743   -4.7371    3.9755 C.3       5 GLY6        0.0000 
     63 CA         26.5602   -5.0535    2.8071 C.3       5 GLY6        0.0000 
     64 NZ         25.6906   -4.4721   11.6194 N.2       3 LYS4        0.0000 
     65 NZ         26.5766   -4.7885   10.4511 N.2       3 LYS4        0.0000 
     66 CA         24.7632   -3.7192   10.7122 C.3       5 GLY6        0.0000 
     67 O          25.6491   -4.0356    9.5439 O.2       2 ALA2        0.0000 
     68 O          26.5351   -4.3520    8.3755 O.2       2 ALA2        0.0000 
     69 N          27.4210   -4.6684    7.2072 N.2       2 ALA2        0.0000 
     70 N          28.3070   -4.9848    6.0389 N.2       2 ALA2        0.0000 
     71 CA         23.8357   -2.9663    9.8050 C.3       5 GLY6        0.0000 
     72 CA         24.7217   -3.2827    8.6367 C.3       5 GLY6        0.0000 
     73 CA         25.6076   -3.5991    7.4684 C.3       5 GLY6        0.0000 
     74 N          26.4936   -3.9155    6.3000 N.2       2 ALA2        0.0000 
     75 N          27.3795   -4.2318    5.1317 N.2       2 ALA2        0.0000 
     76 O          28.2655   -4.5482    3.9634 O.2       2 ALA2        0.0000 
     77 O          25.5661   -3.1626    5.3929 O.2       2 ALA2        0.0000 
     78 N          26.4521   -3.4789    4.2245 N.2       2 ALA2        0.0000 
     79 CA         27.3380   -3.7953    3.0562 C.3       5 GLY6        0.0000 
     80 NZ         27.2713   -2.6573    6.5491 N.2       3 LYS4        0.0000 
     81 NZ         28.1573   -2.9737    5.3808 N.2       3 LYS4        0.0000 
@<TRIPOS>BOND
@<TRIPOS>SUBSTRUCTURE
     1 SER1       21 GROUP   
     2 ALA2        1 GROUP   
     3 LYS4       64 GROUP   
     4 PHE5       55 GROUP   
     5 GLY6        4 GROUP   
     6 CUB7        6 GROUP   
@<TRIPOS>SET

