#    Name: 4eox_0S5_1_INTS_M
#    Modification time : Mon Mar 24 18:22:33 2014

@<TRIPOS>MOLECULE
4eox_0S5_1_INTS_M
   66     0     9     0     0
SMALL
NO_CHARGES


@<TRIPOS>ATOM
      1 CA         16.5490   -4.0645    3.1795 C.3       3 GLC5        0.0000 
      2 CA         17.7870   -5.6250    2.3220 C.3       9 GLL5        0.0000 
      3 CA         15.3110   -2.5040    4.0370 C.3       6 GLP5        0.0000 
      4 CA         25.9195   -6.4370   10.9980 C.3       3 GLC5        0.0000 
      5 CA         25.0370   -5.5640    9.4810 C.3       9 GLL5        0.0000 
      6 CA         26.8020   -7.3100   12.5150 C.3       6 GLP5        0.0000 
      7 CA         24.6225   -3.8280   11.9840 C.3       3 GLC5        0.0000 
      8 CA         24.6460   -4.1520    9.8900 C.3       9 GLL5        0.0000 
      9 CA         24.5990   -3.5040   14.0780 C.3       6 GLP5        0.0000 
     10 CA         23.3615   -2.6425    9.8445 C.3       3 GLC5        0.0000 
     11 CA         22.0770   -1.1330    9.7990 C.3       6 GLP5        0.0000 
     12 CA         26.7770   -6.8045    9.8545 C.3       3 GLC5        0.0000 
     13 CA         25.9850   -5.4320    8.2780 C.3       9 GLL5        0.0000 
     14 CA         27.5690   -8.1770   11.4310 C.3       6 GLP5        0.0000 
     15 CA         24.7210   -1.6735    9.8190 C.3       3 GLC5        0.0000 
     16 CA         25.1940   -3.2320    8.8180 C.3       9 GLL5        0.0000 
     17 CA         24.2480   -0.1150   10.8200 C.3       6 GLP5        0.0000 
     18 CA         26.8045   -2.4615    9.6800 C.3       3 GLC5        0.0000 
     19 CA         28.4150   -1.6910   10.5420 C.3       6 GLP5        0.0000 
     20 CA         23.7925   -5.6875    2.6165 C.3       3 GLC5        0.0000 
     21 CA         24.3100   -7.3660    3.8590 C.3       9 GLL5        0.0000 
     22 CA         23.2750   -4.0090    1.3740 C.3       6 GLP5        0.0000 
     23 CA         25.8980   -6.9905    2.3125 C.3       3 GLC5        0.0000 
     24 CA         27.4860   -6.6150    0.7660 C.3       6 GLP5        0.0000 
     25 CA         27.8820   -3.0215    7.3955 C.3       3 GLC5        0.0000 
     26 CA         26.1280   -3.5580    6.4330 C.3       9 GLL5        0.0000 
     27 CA         29.6360   -2.4850    8.3580 C.3       6 GLP5        0.0000 
     28 CA         27.6400   -4.6660    2.5650 C.3       3 GLC5        0.0000 
     29 CA         27.0660   -4.0400    4.1940 C.3       9 GLL5        0.0000 
     30 CA         28.2140   -5.2920    0.9360 C.3       6 GLP5        0.0000 
     31 O          22.4915   -6.8835    2.3905 O.2       1 ALC1        0.0000 
     32 O          21.9500   -7.0260    3.7860 O.2       7 ALL1        0.0000 
     33 O          23.0330   -6.7410    0.9950 O.2       4 ALP1        0.0000 
     34 N          29.5585   -0.5540    5.4900 N.am      2 SEC2        0.0000 
     35 N          29.7210   -1.8610    5.1220 N.am      8 SEL2        0.0000 
     36 N          29.3960    0.7530    5.8580 N.am      5 SEP2        0.0000 
     37 N          23.4745   -3.6570    3.7690 N.am      2 SEC2        0.0000 
     38 N          24.2330   -4.7090    4.2950 N.am      8 SEL2        0.0000 
     39 N          22.7160   -2.6050    3.2430 N.am      5 SEP2        0.0000 
     40 N          30.6705   -3.5285    3.7545 N.am      2 SEC2        0.0000 
     41 N          29.4400   -4.3170    4.6690 N.am      8 SEL2        0.0000 
     42 N          31.9010   -2.7400    2.8400 N.am      5 SEP2        0.0000 
     43 N          29.7340   -5.4085    3.8900 N.am      2 SEC2        0.0000 
     44 N          30.0280   -6.5000    3.1110 N.am      5 SEP2        0.0000 
     45 CA         18.1223   -4.3217    0.6948 C.3       3 GLC5        0.0000 
     46 CA         18.3990   -2.6410   -0.3560 C.3       6 GLP5        0.0000 
     47 CA         20.6498   -6.9543    0.1907 C.3       3 GLC5        0.0000 
     48 CA         19.8590   -7.4880    1.9960 C.3       9 GLL5        0.0000 
     49 CA         21.9100   -6.5120   -1.1190 C.3       6 GLP5        0.0000 
     50 CA         19.5355   -4.5349    3.9402 C.3       3 GLC5        0.0000 
     51 CA         19.7160   -6.7230    3.1470 C.3       9 GLL5        0.0000 
     52 CA         20.0910   -2.8490    4.8920 C.3       6 GLP5        0.0000 
     53 CA         23.7508   -5.7530   11.1992 C.3       3 GLC5        0.0000 
     54 CA         22.6600   -6.6480   12.7130 C.3       6 GLP5        0.0000 
     55 CA         27.3415   -8.9787    6.1620 C.3       3 GLC5        0.0000 
     56 CA         26.4900   -7.3930    4.9550 C.3       9 GLL5        0.0000 
     57 CA         28.3420   -9.8760    7.6440 C.3       6 GLP5        0.0000 
     58 CA         28.2480   -7.7328    5.0475 C.3       3 GLC5        0.0000 
     59 CA         26.1920   -8.7700    4.4050 C.3       9 GLL5        0.0000 
     60 CA         30.1550   -7.3840    5.4150 C.3       6 GLP5        0.0000 
     61 CA         26.9135   -7.3483    2.7230 C.3       3 GLC5        0.0000 
     62 CA         27.3950   -3.7330    8.7668 C.3       3 GLC5        0.0000 
     63 CA         29.0460   -2.6570    9.5710 C.3       6 GLP5        0.0000 
     64 CA         23.9871   -3.1028    6.8109 C.3       3 GLC5        0.0000 
     65 CA         25.5030   -4.1860    7.6470 C.3       9 GLL5        0.0000 
     66 CA         22.2360   -2.5720    6.2890 C.3       6 GLP5        0.0000 
@<TRIPOS>BOND
@<TRIPOS>SUBSTRUCTURE
     1 ALC1       31 GROUP        1 X    ALC  0     ROOT ALC X 1
     2 SEC2       34 GROUP        1 X    SEC  0     **** SEC X 2
     3 GLC5        1 GROUP        1 X    GLC  0     **** GLC X 6
     4 ALP1       33 GROUP        1 Y    ALP  0     ROOT ALP Y 8
     5 SEP2       36 GROUP        1 Y    SEP  0     **** SEP Y 9
     6 GLP5        3 GROUP        1 Y    GLP  0     **** GLP Y 13
     7 ALL1       32 GROUP        1 Z    ALL  0     ROOT ALL Z 15
     8 SEL2       35 GROUP        1 Z    SEL  0     **** SEL Z 16
     9 GLL5        2 GROUP        1 Z    GLL  0     **** GLL Z 20
@<TRIPOS>SET

