#    Name: 4eox_0S5_1_ligand
#    Modification time : Mon Mar 24 18:22:33 2014

@<TRIPOS>MOLECULE
4eox_0S5_1_ligand
   59    61     1     0     0
SMALL
NO_CHARGES


@<TRIPOS>ATOM
      1 C26        17.9040   -6.3800    1.1690 C.ar      1 0S5302      0.0000 
      2 C25        17.7870   -5.6250    2.3220 C.ar      1 0S5302      0.0000 
      3 C27        18.9200   -7.3050    1.0050 C.ar      1 0S5302      0.0000 
      4 C24        18.7010   -5.8120    3.3380 C.ar      1 0S5302      0.0000 
      5 C28        19.8590   -7.4880    1.9960 C.ar      1 0S5302      0.0000 
      6 C23        19.7160   -6.7230    3.1470 C.ar      1 0S5302      0.0000 
      7 C29        28.5820   -2.1970    4.8430 C.2       1 0S5302      0.0000 
      8 C21        20.6740   -6.8490    4.2430 C.2       1 0S5302      0.0000 
      9 C18        23.0050   -7.3090    4.6130 C.2       1 0S5302      0.0000 
     10 C11        25.1900   -5.3040    4.7570 C.2       1 0S5302      0.0000 
     11 C8         25.0370   -5.5640    9.4810 C.3       1 0S5302      0.0000 
     12 C9         24.6460   -4.1520    9.8900 C.3       1 0S5302      0.0000 
     13 C15        26.1920   -8.7700    4.4050 C.3       1 0S5302      0.0000 
     14 C16        24.8190   -8.7940    3.7780 C.3       1 0S5302      0.0000 
     15 C7         25.9850   -5.4320    8.2780 C.3       1 0S5302      0.0000 
     16 C10        25.1940   -3.2320    8.8180 C.3       1 0S5302      0.0000 
     17 C14        26.4900   -7.3930    4.9550 C.3       1 0S5302      0.0000 
     18 C17        24.3100   -7.3660    3.8590 C.3       1 0S5302      0.0000 
     19 C6         25.5030   -4.1860    7.6470 C.3       1 0S5302      0.0000 
     20 C5         26.1280   -3.5580    6.4330 C.3       1 0S5302      0.0000 
     21 C3         27.0660   -4.0400    4.1940 C.3       1 0S5302      0.0000 
     22 C4         26.3870   -4.6780    5.3840 C.3       1 0S5302      0.0000 
     23 N13        25.2780   -6.6790    4.6630 N.am      1 0S5302      0.0000 
     24 N20        21.9500   -7.0260    3.7860 N.am      1 0S5302      0.0000 
     25 N2         28.3220   -3.4770    4.5200 N.am      1 0S5302      0.0000 
     26 O30        29.7210   -1.8610    5.1220 O.2       1 0S5302      0.0000 
     27 O22        20.3540   -6.6780    5.4070 O.2       1 0S5302      0.0000 
     28 O19        22.9240   -7.4640    5.8250 O.2       1 0S5302      0.0000 
     29 O12        24.2330   -4.7090    4.2950 O.2       1 0S5302      0.0000 
     30 O1         29.4400   -4.3170    4.6690 O.3       1 0S5302      0.0000 
     31 H          17.2086   -6.2489    0.4032 H         1 0S5302      0.0000 
     32 H          17.0332   -4.9385    2.4182 H         1 0S5302      0.0000 
     33 H          18.9721   -7.8594    0.1344 H         1 0S5302      0.0000 
     34 H          18.6260   -5.2868    4.2109 H         1 0S5302      0.0000 
     35 H          20.6179   -8.1459    1.8962 H         1 0S5302      0.0000 
     36 H          27.7569   -1.5242    4.8383 H         1 0S5302      0.0000 
     37 H          24.1653   -6.1135    9.1859 H         1 0S5302      0.0000 
     38 H          25.5527   -6.0481   10.2863 H         1 0S5302      0.0000 
     39 H          25.0913   -3.9148   10.8361 H         1 0S5302      0.0000 
     40 H          23.5776   -4.0710    9.9282 H         1 0S5302      0.0000 
     41 H          26.9391   -9.0300    3.6556 H         1 0S5302      0.0000 
     42 H          26.2362   -9.4999    5.2129 H         1 0S5302      0.0000 
     43 H          24.1726   -9.4389    4.3362 H         1 0S5302      0.0000 
     44 H          24.8896   -9.0935    2.7530 H         1 0S5302      0.0000 
     45 H          25.8475   -6.2650    7.6404 H         1 0S5302      0.0000 
     46 H          26.9760   -5.3259    8.6328 H         1 0S5302      0.0000 
     47 H          26.0932   -2.7783    9.1461 H         1 0S5302      0.0000 
     48 H          24.4546   -2.5361    8.5163 H         1 0S5302      0.0000 
     49 H          27.3286   -6.9872    4.4345 H         1 0S5302      0.0000 
     50 H          26.6654   -7.4709    6.0048 H         1 0S5302      0.0000 
     51 H          24.2200   -6.9553    2.9107 H         1 0S5302      0.0000 
     52 H          24.3881   -4.4670    7.3132 H         1 0S5302      0.0000 
     53 H          27.0720   -3.1034    6.6856 H         1 0S5302      0.0000 
     54 H          25.4619   -2.8312    5.9975 H         1 0S5302      0.0000 
     55 H          26.3724   -3.2756    3.7811 H         1 0S5302      0.0000 
     56 H          27.1611   -4.8171    3.4046 H         1 0S5302      0.0000 
     57 H          27.0407   -5.4107    5.7763 H         1 0S5302      0.0000 
     58 H          22.1322   -6.9411    2.7492 H         1 0S5302      0.0000 
     59 H          30.2130   -3.6973    4.8045 H         1 0S5302      0.0000 
@<TRIPOS>BOND
     1    2    1 ar   
     2    3    1 ar   
     3   31    1 1    
     4    4    2 ar   
     5   32    2 1    
     6    5    3 ar   
     7   33    3 1    
     8    6    4 ar   
     9   34    4 1    
    10    6    5 ar   
    11   35    5 1    
    12    8    6 1    
    13   25    7 am   
    14   26    7 2    
    15   36    7 1    
    16   24    8 am   
    17   27    8 2    
    18   18    9 1    
    19   24    9 am   
    20   28    9 2    
    21   22   10 1    
    22   23   10 am   
    23   29   10 2    
    24   12   11 1    
    25   15   11 1    
    26   37   11 1    
    27   38   11 1    
    28   16   12 1    
    29   39   12 1    
    30   40   12 1    
    31   14   13 1    
    32   17   13 1    
    33   41   13 1    
    34   42   13 1    
    35   18   14 1    
    36   43   14 1    
    37   44   14 1    
    38   19   15 1    
    39   45   15 1    
    40   46   15 1    
    41   19   16 1    
    42   47   16 1    
    43   48   16 1    
    44   23   17 1    
    45   49   17 1    
    46   50   17 1    
    47   23   18 1    
    48   51   18 1    
    49   20   19 1    
    50   52   19 1    
    51   22   20 1    
    52   53   20 1    
    53   54   20 1    
    54   22   21 1    
    55   25   21 1    
    56   55   21 1    
    57   56   21 1    
    58   57   22 1    
    59   58   24 1    
    60   30   25 1    
    61   59   30 1    
@<TRIPOS>SUBSTRUCTURE
     1 0S5302      1 GROUP   
@<TRIPOS>SET

