#    Name: 3ggf_GVD_1_INTS_M
#    Modification time : Tue Mar 25 12:27:15 2014

@<TRIPOS>MOLECULE
3ggf_GVD_1_INTS_M
   59     0     9     0     0
SMALL
NO_CHARGES


@<TRIPOS>ATOM
      1 CA         88.3745  -11.7590   95.2220 C.3       3 GLC5        0.0000 
      2 CA         88.3090  -11.0980   93.4520 C.3       9 GLL5        0.0000 
      3 CA         88.4400  -12.4200   96.9920 C.3       6 GLP5        0.0000 
      4 CA         86.5895   -9.6470   91.0050 C.3       3 GLC5        0.0000 
      5 CA         87.9880  -10.2460   92.2350 C.3       9 GLL5        0.0000 
      6 CA         85.1910   -9.0480   89.7750 C.3       6 GLP5        0.0000 
      7 CA         90.1105  -12.9110   93.2555 C.3       3 GLC5        0.0000 
      8 CA         88.8270  -11.5120   92.0830 C.3       9 GLL5        0.0000 
      9 CA         91.3940  -14.3100   94.4280 C.3       6 GLP5        0.0000 
     10 CA         85.5515  -12.7475   89.9630 C.3       3 GLC5        0.0000 
     11 CA         86.8310  -13.0810   91.5020 C.3       9 GLL5        0.0000 
     12 CA         84.2720  -12.4140   88.4240 C.3       6 GLP5        0.0000 
     13 O          90.0340  -13.6390   90.2480 O.2       1 ALC1        0.0000 
     14 O          88.7940  -13.6910   90.8300 O.2       7 ALL1        0.0000 
     15 O          91.2740  -13.5870   89.6660 O.2       4 ALP1        0.0000 
     16 N          88.6425  -15.7385   89.8370 N.am      2 SEC2        0.0000 
     17 N          87.9980  -14.5550   90.4360 N.am      8 SEL2        0.0000 
     18 N          89.2870  -16.9220   89.2380 N.am      5 SEP2        0.0000 
     19 O          86.1810  -16.5105   90.1000 O.2       1 ALC1        0.0000 
     20 O          85.7140  -15.0620   90.5270 O.2       7 ALL1        0.0000 
     21 O          86.6480  -17.9590   89.6730 O.2       4 ALP1        0.0000 
     22 CA         84.3720  -13.7395   89.7660 C.3       3 GLC5        0.0000 
     23 CA         84.4720  -15.0650   91.1080 C.3       9 GLL5        0.0000 
     24 CA         85.0205  -15.5590   93.0120 C.3       3 GLC5        0.0000 
     25 CA         85.5690  -16.0530   94.9160 C.3       6 GLP5        0.0000 
     26 CA         82.7515  -15.1465   88.4605 C.3       3 GLC5        0.0000 
     27 CA         83.7050  -16.7710   89.5500 C.3       9 GLL5        0.0000 
     28 CA         81.7980  -13.5220   87.3710 C.3       6 GLP5        0.0000 
     29 CA         84.2465  -15.1905   93.8185 C.3       3 GLC5        0.0000 
     30 CA         82.9240  -14.3280   92.7210 C.3       9 GLL5        0.0000 
     31 CA         84.6215  -14.3560   95.2665 C.3       3 GLC5        0.0000 
     32 CA         83.6740  -12.6590   95.6170 C.3       9 GLL5        0.0000 
     33 CA         85.2440   -7.8760   93.2765 C.3       3 GLC5        0.0000 
     34 CA         86.1880   -8.3960   95.2380 C.3       9 GLL5        0.0000 
     35 CA         84.3000   -7.3560   91.3150 C.3       6 GLP5        0.0000 
     36 CA         84.4835   -8.9610   92.6825 C.3       3 GLC5        0.0000 
     37 CA         84.6670  -10.5660   94.0500 C.3       9 GLL5        0.0000 
     38 CA         88.1625  -13.2025   93.5437 C.3       3 GLC5        0.0000 
     39 CA         87.7570  -15.1000   94.3200 C.3       6 GLP5        0.0000 
     40 CA         88.5883  -11.1040   90.1935 C.3       3 GLC5        0.0000 
     41 CA         88.7690  -11.3290   88.2280 C.3       6 GLP5        0.0000 
     42 CA         89.1854   -9.3310   92.1651 C.3       3 GLC5        0.0000 
     43 CA         89.8830   -7.5700   91.8670 C.3       6 GLP5        0.0000 
     44 CA         88.1243  -12.1253   89.8597 C.3       3 GLC5        0.0000 
     45 CA         88.1280  -12.7620   91.4810 C.3       9 GLL5        0.0000 
     46 CA         87.6183  -14.0107   92.9057 C.3       3 GLC5        0.0000 
     47 CA         82.2890  -14.3020   89.7860 C.3       3 GLC5        0.0000 
     48 CA         83.4650  -15.9160   90.6290 C.3       9 GLL5        0.0000 
     49 CA         81.7420  -12.6800   88.6420 C.3       6 GLP5        0.0000 
     50 CA         83.1450  -18.0023   91.3252 C.3       3 GLC5        0.0000 
     51 CA         82.7050  -19.6610   92.5610 C.3       6 GLP5        0.0000 
     52 CA         84.7097  -18.6815   88.7110 C.3       3 GLC5        0.0000 
     53 CA         86.2210  -20.1750   88.1150 C.3       6 GLP5        0.0000 
     54 CA         82.3817  -18.6365   90.9610 C.3       3 GLC5        0.0000 
     55 CA         82.6920  -17.6050   89.0640 C.3       9 GLL5        0.0000 
     56 CA         82.2022  -18.0120   91.7770 C.3       3 GLC5        0.0000 
     57 CA         81.1920  -16.7940   90.7550 C.3       9 GLL5        0.0000 
     58 CA         86.8636  -11.3792   96.4627 C.3       3 GLC5        0.0000 
     59 CA         84.4850  -11.6630   96.1720 C.3       9 GLL5        0.0000 
@<TRIPOS>BOND
@<TRIPOS>SUBSTRUCTURE
     1 ALC1       13 GROUP        1 X    ALC  0     ROOT ALC X 1
     2 SEC2       16 GROUP        1 X    SEC  0     **** SEC X 2
     3 GLC5        1 GROUP        1 X    GLC  0     **** GLC X 6
     4 ALP1       15 GROUP        1 Y    ALP  0     ROOT ALP Y 8
     5 SEP2       18 GROUP        1 Y    SEP  0     **** SEP Y 9
     6 GLP5        3 GROUP        1 Y    GLP  0     **** GLP Y 13
     7 ALL1       14 GROUP        1 Z    ALL  0     ROOT ALL Z 15
     8 SEL2       17 GROUP        1 Z    SEL  0     **** SEL Z 16
     9 GLL5        2 GROUP        1 Z    GLL  0     **** GLL Z 20
@<TRIPOS>SET

