#    Name: 3ggf_GVD_1_ligand
#    Modification time : Tue Mar 25 12:27:15 2014

@<TRIPOS>MOLECULE
3ggf_GVD_1_ligand
   48    52     1     0     0
SMALL
NO_CHARGES


@<TRIPOS>ATOM
      1 CAL        88.3090  -11.0980   93.4520 C.3       1 GVD305      0.0000 
      2 CAM        87.9880  -10.2460   92.2350 C.3       1 GVD305      0.0000 
      3 CBB        88.8270  -11.5120   92.0830 C.3       1 GVD305      0.0000 
      4 CAX        88.1280  -12.7620   91.4810 C.2       1 GVD305      0.0000 
      5 CAK        86.8310  -13.0810   91.5020 C.2       1 GVD305      0.0000 
      6 NAS        88.7940  -13.6910   90.8300 N.pl3     1 GVD305      0.0000 
      7 NAN        87.9980  -14.5550   90.4360 N.2       1 GVD305      0.0000 
      8 CAV        86.7730  -14.2510   90.8360 C.2       1 GVD305      0.0000 
      9 NAR        85.7140  -15.0620   90.5270 N.pl3     1 GVD305      0.0000 
     10 C6         84.4720  -15.0650   91.1080 C.ar      1 GVD305      0.0000 
     11 N1         84.1550  -14.2950   92.1590 N.ar      1 GVD305      0.0000 
     12 C5         83.4650  -15.9160   90.6290 C.ar      1 GVD305      0.0000 
     13 CAJ        83.7050  -16.7710   89.5500 C.ar      1 GVD305      0.0000 
     14 CAD        82.6920  -17.6050   89.0640 C.ar      1 GVD305      0.0000 
     15 CAC        81.4250  -17.6190   89.6580 C.ar      1 GVD305      0.0000 
     16 CAI        81.1920  -16.7940   90.7550 C.ar      1 GVD305      0.0000 
     17 C4         82.2070  -15.9320   91.2310 C.ar      1 GVD305      0.0000 
     18 N3         81.9560  -15.1440   92.2810 N.ar      1 GVD305      0.0000 
     19 C2         82.9240  -14.3280   92.7210 C.ar      1 GVD305      0.0000 
     20 NAQ        82.6250  -13.5720   93.7730 N.2       1 GVD305      0.0000 
     21 CAU        83.3960  -12.6260   94.2700 C.2       1 GVD305      0.0000 
     22 CAG        83.6740  -12.6590   95.6170 C.2       1 GVD305      0.0000 
     23 CAE        84.4850  -11.6630   96.1720 C.2       1 GVD305      0.0000 
     24 CAB        86.1880   -8.3960   95.2380 C.1       1 GVD305      0.0000 
     25 NAA        86.4560   -7.4960   94.5950 N.1       1 GVD305      0.0000 
     26 CAF        84.6670  -10.5660   94.0500 C.2       1 GVD305      0.0000 
     27 CAH        83.8580  -11.5670   93.5050 C.2       1 GVD305      0.0000 
     28 CA0        85.8450   -9.5410   96.0790 C.3       1 GVD305      0.0000 
     29 CAT        84.9740  -10.6090   95.4040 C.3       1 GVD305      0.0000 
     30 H          87.5472  -11.6266   93.6443 H         1 GVD305      0.0000 
     31 H          89.0216  -10.6821   93.9166 H         1 GVD305      0.0000 
     32 H          88.5811   -9.5092   92.2336 H         1 GVD305      0.0000 
     33 H          87.1067  -10.4536   91.9613 H         1 GVD305      0.0000 
     34 H          89.7244  -11.2739   92.0246 H         1 GVD305      0.0000 
     35 H          86.1181  -12.6047   91.8896 H         1 GVD305      0.0000 
     36 H          89.7826  -13.6632   90.6988 H         1 GVD305      0.0000 
     37 H          85.8752  -15.7848   89.7320 H         1 GVD305      0.0000 
     38 H          84.6349  -16.7880   89.1083 H         1 GVD305      0.0000 
     39 H          82.8818  -18.2184   88.2562 H         1 GVD305      0.0000 
     40 H          80.6908  -18.2213   89.2930 H         1 GVD305      0.0000 
     41 H          80.2805  -16.8044   91.2282 H         1 GVD305      0.0000 
     42 H          83.2969  -13.3994   96.2155 H         1 GVD305      0.0000 
     43 H          84.7263  -11.7132   97.1798 H         1 GVD305      0.0000 
     44 H          85.0253   -9.8155   93.4580 H         1 GVD305      0.0000 
     45 H          83.5992  -11.5110   92.4996 H         1 GVD305      0.0000 
     46 H          85.3105   -9.2027   96.9967 H         1 GVD305      0.0000 
     47 H          86.7693  -10.0444   96.4459 H         1 GVD305      0.0000 
     48 H          83.8038   -9.8250   95.7194 H         1 GVD305      0.0000 
@<TRIPOS>BOND
     1    2    1 1    
     2    3    1 1    
     3   30    1 1    
     4   31    1 1    
     5    3    2 1    
     6   32    2 1    
     7   33    2 1    
     8    4    3 1    
     9   34    3 1    
    10    5    4 2    
    11    6    4 1    
    12    8    5 1    
    13   35    5 1    
    14    7    6 1    
    15   36    6 1    
    16    8    7 2    
    17    9    8 1    
    18   10    9 1    
    19   37    9 1    
    20   11   10 ar   
    21   12   10 ar   
    22   19   11 ar   
    23   13   12 ar   
    24   17   12 ar   
    25   14   13 ar   
    26   38   13 1    
    27   15   14 ar   
    28   39   14 1    
    29   16   15 ar   
    30   40   15 1    
    31   17   16 ar   
    32   41   16 1    
    33   18   17 ar   
    34   19   18 ar   
    35   20   19 1    
    36   21   20 2    
    37   22   21 1    
    38   27   21 1    
    39   23   22 2    
    40   42   22 1    
    41   29   23 1    
    42   43   23 1    
    43   25   24 3    
    44   28   24 1    
    45   27   26 2    
    46   29   26 1    
    47   44   26 1    
    48   45   27 1    
    49   29   28 1    
    50   46   28 1    
    51   47   28 1    
    52   48   29 1    
@<TRIPOS>SUBSTRUCTURE
     1 GVD305      1 GROUP   
@<TRIPOS>SET

