#    Name: 4fc7_NAP_1_INTS_M
#    Modification time : Mon Mar 24 19:17:23 2014

@<TRIPOS>MOLECULE
4fc7_NAP_1_INTS_M
  132     0    12     0     0
SMALL
NO_CHARGES


@<TRIPOS>ATOM
      1 N          41.2125    9.1620   33.3915 N.am      2 SEC2        0.0000 
      2 N          42.3200    8.3220   33.5870 N.am     10 SEL2        0.0000 
      3 N          40.1050   10.0020   33.1960 N.am      6 SEP2        0.0000 
      4 N          44.5295    6.1380   33.8270 N.am      2 SEC2        0.0000 
      5 N          43.1250    5.8960   33.9770 N.am     10 SEL2        0.0000 
      6 N          45.9340    6.3800   33.6770 N.am      6 SEP2        0.0000 
      7 CA         42.3280    9.9130   31.9930 C.3       4 GLC5        0.0000 
      8 CA         42.8750    8.1030   30.7780 C.3      12 GLL5        0.0000 
      9 CA         41.7810   11.7230   33.2080 C.3       8 GLP5        0.0000 
     10 CA         43.8505    8.3975   28.1690 C.3       4 GLC5        0.0000 
     11 CA         44.3370    8.2250   30.3170 C.3      12 GLL5        0.0000 
     12 CA         43.3640    8.5700   26.0210 C.3       8 GLP5        0.0000 
     13 O          46.1900    7.0470   32.4925 O.2       1 ALC1        0.0000 
     14 O          46.4460    7.7140   31.3080 O.2       9 ALL1        0.0000 
     15 O          45.9340    6.3800   33.6770 O.2       5 ALP1        0.0000 
     16 CA         46.1835    8.2675   28.7015 C.3       4 GLC5        0.0000 
     17 CA         45.5290   10.0070   29.4070 C.3      12 GLL5        0.0000 
     18 CA         46.8380    6.5280   27.9960 C.3       8 GLP5        0.0000 
     19 CA         45.0115    9.7440   27.4445 C.3       4 GLC5        0.0000 
     20 CA         44.4940    9.4810   25.4820 C.3       8 GLP5        0.0000 
     21 CA         47.5975   14.6515   25.3440 C.3       4 GLC5        0.0000 
     22 CA         45.7930   13.9220   26.3540 C.3      12 GLL5        0.0000 
     23 CA         49.4020   15.3810   24.3340 C.3       8 GLP5        0.0000 
     24 CA         45.3065   13.6945   24.5440 C.3       4 GLC5        0.0000 
     25 CA         44.8200   13.4670   22.7340 C.3       8 GLP5        0.0000 
     26 O          46.0925   16.0795   25.1210 O.2       1 ALC1        0.0000 
     27 O          45.2240   15.1430   26.0560 O.2       9 ALL1        0.0000 
     28 O          46.9610   17.0160   24.1860 O.2       5 ALP1        0.0000 
     29 N          47.2525   13.8405   24.3455 N.am      2 SEC2        0.0000 
     30 N          46.8520   13.4110   25.7030 N.am     10 SEL2        0.0000 
     31 N          47.6530   14.2700   22.9880 N.am      6 SEP2        0.0000 
     32 CA         48.8650   11.2910   26.8125 C.3       4 GLC5        0.0000 
     33 CA         47.4010   12.1880   26.0210 C.3      12 GLL5        0.0000 
     34 CA         50.3290   10.3940   27.6040 C.3       8 GLP5        0.0000 
     35 CA         48.0565   13.7360   27.1105 C.3       4 GLC5        0.0000 
     36 CA         48.7120   15.2840   28.2000 C.3       8 GLP5        0.0000 
     37 CA         48.4015   13.7845   25.1775 C.3       4 GLC5        0.0000 
     38 CA         46.8985   11.8605   24.1490 C.3       4 GLC5        0.0000 
     39 CA         46.3960   11.5330   22.2770 C.3       8 GLP5        0.0000 
     40 CA         45.9475   10.8345   25.7515 C.3       4 GLC5        0.0000 
     41 CA         47.6915   10.8035   28.2560 C.3       4 GLC5        0.0000 
     42 CA         45.8590   11.8380   27.7530 C.3      12 GLL5        0.0000 
     43 CA         49.5240    9.7690   28.7590 C.3       8 GLP5        0.0000 
     44 CA         47.2855   13.5610   27.9765 C.3       4 GLC5        0.0000 
     45 N          38.4565    5.7570   34.6040 N.am      2 SEC2        0.0000 
     46 N          38.9160    5.0570   33.4560 N.am     10 SEL2        0.0000 
     47 N          37.9970    6.4570   35.7520 N.am      6 SEP2        0.0000 
     48 N          41.8530    2.6845   32.5420 N.am      2 SEC2        0.0000 
     49 N          41.0940    3.8500   32.6790 N.am     10 SEL2        0.0000 
     50 N          42.6120    1.5190   32.4050 N.am      6 SEP2        0.0000 
     51 CA         40.8200    2.6980   30.2875 C.3       4 GLC5        0.0000 
     52 CA         40.5120    4.6900   29.9860 C.3      12 GLL5        0.0000 
     53 CA         41.1280    0.7060   30.5890 C.3       8 GLP5        0.0000 
     54 CA         39.0430    3.4840   27.2280 C.3       4 GLC5        0.0000 
     55 CA         39.6950    4.7290   28.7100 C.3      12 GLL5        0.0000 
     56 CA         38.3910    2.2390   25.7460 C.3       8 GLP5        0.0000 
     57 CA         38.8070    7.6455   29.8290 C.3       4 GLC5        0.0000 
     58 CA         39.0670    6.0650   28.2970 C.3      12 GLL5        0.0000 
     59 CA         38.5470    9.2260   31.3610 C.3       8 GLP5        0.0000 
     60 N          38.0270    6.7340   26.0170 N.am      2 SEC2        0.0000 
     61 N          39.0320    6.1650   26.8720 N.am     10 SEL2        0.0000 
     62 N          37.0220    7.3030   25.1620 N.am      6 SEP2        0.0000 
     63 O          40.4025    6.2875   26.7485 O.2       1 ALC1        0.0000 
     64 O          39.0320    6.1650   26.8720 O.2       9 ALL1        0.0000 
     65 O          41.7730    6.4100   26.6250 O.2       5 ALP1        0.0000 
     66 CA         36.6005    6.7920   27.0700 C.3       4 GLC5        0.0000 
     67 CA         37.6250    6.0120   28.7710 C.3      12 GLL5        0.0000 
     68 CA         35.5760    7.5720   25.3690 C.3       8 GLP5        0.0000 
     69 CA         37.3970    7.1065   30.3230 C.3       4 GLC5        0.0000 
     70 CA         37.1690    8.2010   31.8750 C.3       8 GLP5        0.0000 
     71 N          36.9050    7.0650   26.5530 N.am      2 SEC2        0.0000 
     72 N          36.7880    6.8270   27.9440 N.am     10 SEL2        0.0000 
     73 CA         37.8560    3.3850   27.1610 C.3       4 GLC5        0.0000 
     74 CA         37.3210    4.5310   28.5760 C.3      12 GLL5        0.0000 
     75 CA         36.4965    2.5145   28.1800 C.3       4 GLC5        0.0000 
     76 CA         35.6720    0.4980   27.7840 C.3       8 GLP5        0.0000 
     77 N          34.2885    1.3075   34.2680 N.am      2 SEC2        0.0000 
     78 N          34.5410    2.6100   33.5780 N.am     10 SEL2        0.0000 
     79 N          34.0360    0.0050   34.9580 N.am      6 SEP2        0.0000 
     80 O          37.1500    3.0375   34.7910 O.2       1 ALC1        0.0000 
     81 O          36.6890    3.3220   33.5170 O.2       9 ALL1        0.0000 
     82 O          37.6110    2.7530   36.0650 O.2       5 ALP1        0.0000 
     83 CA         34.4495    1.4410   29.8420 C.3       4 GLC5        0.0000 
     84 CA         33.9490    3.2210   30.9180 C.3      12 GLL5        0.0000 
     85 CA         34.9500   -0.3390   28.7660 C.3       8 GLP5        0.0000 
     86 NZ         46.2385   13.4700   31.9260 N.4       3 LYC4        0.0000 
     87 NZ         47.0990   12.4210   32.3110 N.4      11 LYL4        0.0000 
     88 NZ         45.7840   15.3620   30.5660 N.4       7 LYP4        0.0000 
     89 NZ         47.5770   11.8050   33.7485 N.4       3 LYC4        0.0000 
     90 NZ         48.3940    9.9260   35.0970 N.4       7 LYP4        0.0000 
     91 N          46.2385   13.4700   31.9260 N.am      2 SEC2        0.0000 
     92 N          47.0990   12.4210   32.3110 N.am     10 SEL2        0.0000 
     93 N          45.3780   14.5190   31.5410 N.am      6 SEP2        0.0000 
     94 N          47.5770   11.8050   33.7485 N.am      2 SEC2        0.0000 
     95 N          48.0550   11.1890   35.1860 N.am      6 SEP2        0.0000 
     96 NZ         49.2595   10.4460   32.8180 N.4       3 LYC4        0.0000 
     97 NZ         49.4000   11.3720   31.5610 N.4      11 LYL4        0.0000 
     98 N          49.8670   10.4070   30.7135 N.am      2 SEC2        0.0000 
     99 N          49.4000   11.3720   31.5610 N.am     10 SEL2        0.0000 
    100 N          50.3340    9.4420   29.8660 N.am      6 SEP2        0.0000 
    101 N          50.5275   12.1870   31.2550 N.am      2 SEC2        0.0000 
    102 N          51.6550   13.0020   30.9490 N.am      6 SEP2        0.0000 
    103 N          49.2595   10.4460   32.8180 N.am      2 SEC2        0.0000 
    104 N          49.1190    9.5200   34.0750 N.am      6 SEP2        0.0000 
    105 NZ         47.3165   13.7415   29.8910 N.4       3 LYC4        0.0000 
    106 NZ         47.7540   12.3980   29.9390 N.4      11 LYL4        0.0000 
    107 N          49.0190   12.5065   29.2905 N.am      2 SEC2        0.0000 
    108 N          47.7540   12.3980   29.9390 N.am     10 SEL2        0.0000 
    109 N          50.2840   12.6150   28.6420 N.am      6 SEP2        0.0000 
    110 N          47.3165   13.7415   29.8910 N.am      2 SEC2        0.0000 
    111 N          46.8790   15.0850   29.8430 N.am      6 SEP2        0.0000 
    112 CA         45.8430    7.4882   29.4215 C.3       4 GLC5        0.0000 
    113 CA         45.3590    8.6720   31.3770 C.3      12 GLL5        0.0000 
    114 CA         47.5925    9.9007   29.4592 C.3       4 GLC5        0.0000 
    115 CA         46.4928   14.7315   27.8473 C.3       4 GLC5        0.0000 
    116 CA         45.2120   13.1240   27.4430 C.3      12 GLL5        0.0000 
    117 CA         47.4830   15.9400   28.7960 C.3       8 GLP5        0.0000 
    118 CA         45.0148   10.9810   26.5400 C.3       4 GLC5        0.0000 
    119 CA         43.4342   13.5840   26.2653 C.3       4 GLC5        0.0000 
    120 CA         41.3660   13.6450   25.6320 C.3       8 GLP5        0.0000 
    121 CA         41.3353    3.9503   28.2775 C.3       4 GLC5        0.0000 
    122 CA         42.5670    3.1910   27.2070 C.3       8 GLP5        0.0000 
    123 CA         38.7315    7.6987   27.9325 C.3       4 GLC5        0.0000 
    124 CA         39.1170    9.3590   27.3310 C.3       8 GLP5        0.0000 
    125 CA         37.1857    2.2910   31.1218 C.3       4 GLC5        0.0000 
    126 CA         36.3640    3.8240   30.7880 C.3      12 GLL5        0.0000 
    127 CA         38.5610    0.9540   31.0850 C.3       8 GLP5        0.0000 
    128 CA         33.0850    4.5248   27.7720 C.3       4 GLC5        0.0000 
    129 CA         34.9770    3.9240   28.8240 C.3      12 GLL5        0.0000 
    130 CA         31.7570    5.3480   26.3590 C.3       8 GLP5        0.0000 
    131 CA         35.0425    2.0998   28.4845 C.3       4 GLC5        0.0000 
    132 CA         33.8490    3.4790   29.5460 C.3      12 GLL5        0.0000 
@<TRIPOS>BOND
@<TRIPOS>SUBSTRUCTURE
     1 ALC1       13 GROUP        1 X    ALC  0     ROOT ALC X 1
     2 SEC2        1 GROUP        1 X    SEC  0     **** SEC X 2
     3 LYC4       86 GROUP        1 X    LYC  0     **** LYC X 4
     4 GLC5        7 GROUP        1 X    GLC  0     **** GLC X 6
     5 ALP1       15 GROUP        1 Y    ALP  0     ROOT ALP Y 8
     6 SEP2        3 GROUP        1 Y    SEP  0     **** SEP Y 9
     7 LYP4       88 GROUP        1 Y    LYP  0     **** LYP Y 11
     8 GLP5        9 GROUP        1 Y    GLP  0     **** GLP Y 13
     9 ALL1       14 GROUP        1 Z    ALL  0     ROOT ALL Z 15
    10 SEL2        2 GROUP        1 Z    SEL  0     **** SEL Z 16
    11 LYL4       87 GROUP        1 Z    LYL  0     **** LYL Z 18
    12 GLL5        8 GROUP        1 Z    GLL  0     **** GLL Z 20
@<TRIPOS>SET

