#    Name: 4fc7_NAP_1_ligand
#    Modification time : Mon Mar 24 19:17:23 2014

@<TRIPOS>MOLECULE
4fc7_NAP_1_ligand
   73    77     1     0     0
SMALL
NO_CHARGES


@<TRIPOS>ATOM
      1 PA         42.3940    6.9230   33.1060 P.3       1 NAP401      0.0000 
      2 O1A        42.3200    8.3220   33.5870 O.co2     1 NAP401      0.0000 
      3 O2A        43.1250    5.8960   33.9770 O.co2     1 NAP401      0.0000 
      4 O5B        42.8170    6.9170   31.5460 O.3       1 NAP401      0.0000 
      5 C5B        42.8750    8.1030   30.7780 C.3       1 NAP401      0.0000 
      6 C4B        44.3370    8.2250   30.3170 C.3       1 NAP401      0.0000 
      7 O4B        44.3340    9.2040   29.2930 O.3       1 NAP401      0.0000 
      8 C3B        45.3590    8.6720   31.3770 C.3       1 NAP401      0.0000 
      9 O3B        46.4460    7.7140   31.3080 O.3       1 NAP401      0.0000 
     10 C2B        45.7930   10.0580   30.9120 C.3       1 NAP401      0.0000 
     11 O2B        47.1980   10.2670   31.0680 O.3       1 NAP401      0.0000 
     12 C1B        45.5290   10.0070   29.4070 C.3       1 NAP401      0.0000 
     13 N9A        45.1920   11.3220   28.8100 N.pl3     1 NAP401      0.0000 
     14 C8A        44.1440   12.1580   29.1360 C.2       1 NAP401      0.0000 
     15 N7A        44.1740   13.2680   28.3270 N.2       1 NAP401      0.0000 
     16 C5A        45.2120   13.1240   27.4430 C.ar      1 NAP401      0.0000 
     17 C6A        45.7930   13.9220   26.3540 C.ar      1 NAP401      0.0000 
     18 N6A        45.2240   15.1430   26.0560 N.pl3     1 NAP401      0.0000 
     19 N1A        46.8520   13.4110   25.7030 N.ar      1 NAP401      0.0000 
     20 C2A        47.4010   12.1880   26.0210 C.ar      1 NAP401      0.0000 
     21 N3A        46.9390   11.4420   27.0630 N.ar      1 NAP401      0.0000 
     22 C4A        45.8590   11.8380   27.7530 C.ar      1 NAP401      0.0000 
     23 O3         40.8840    6.4120   32.9670 O.3       1 NAP401      0.0000 
     24 PN         40.1450    4.9710   32.5840 P.3       1 NAP401      0.0000 
     25 O1N        38.9160    5.0570   33.4560 O.co2     1 NAP401      0.0000 
     26 O2N        41.0940    3.8500   32.6790 O.co2     1 NAP401      0.0000 
     27 O5D        39.7340    5.2480   31.0600 O.3       1 NAP401      0.0000 
     28 C5D        40.5120    4.6900   29.9860 C.3       1 NAP401      0.0000 
     29 C4D        39.6950    4.7290   28.7100 C.3       1 NAP401      0.0000 
     30 O4D        38.5570    3.8700   28.8810 O.3       1 NAP401      0.0000 
     31 C3D        39.0670    6.0650   28.2970 C.3       1 NAP401      0.0000 
     32 O3D        39.0320    6.1650   26.8720 O.3       1 NAP401      0.0000 
     33 C2D        37.6250    6.0120   28.7710 C.3       1 NAP401      0.0000 
     34 O2D        36.7880    6.8270   27.9440 O.3       1 NAP401      0.0000 
     35 C1D        37.3210    4.5310   28.5760 C.3       1 NAP401      0.0000 
     36 N1N        36.1980    4.0800   29.4410 N.pl3     1 NAP401      0.0000 
     37 C2N        36.3640    3.8240   30.7880 C.ar      1 NAP401      0.0000 
     38 C3N        35.2570    3.4320   31.5290 C.ar      1 NAP401      0.0000 
     39 C7N        35.4740    3.1150   32.9780 C.2       1 NAP401      0.0000 
     40 O7N        34.5410    2.6100   33.5780 O.2       1 NAP401      0.0000 
     41 N7N        36.6890    3.3220   33.5170 N.am      1 NAP401      0.0000 
     42 C4N        33.9490    3.2210   30.9180 C.ar      1 NAP401      0.0000 
     43 C5N        33.8490    3.4790   29.5460 C.ar      1 NAP401      0.0000 
     44 C6N        34.9770    3.9240   28.8240 C.ar      1 NAP401      0.0000 
     45 P2B        47.9210   11.7320   31.2950 P.3       1 NAP401      0.0000 
     46 O1X        47.0990   12.4210   32.3110 O.co2     1 NAP401      0.0000 
     47 O2X        49.4000   11.3720   31.5610 O.co2     1 NAP401      0.0000 
     48 O3X        47.7540   12.3980   29.9390 O.co2     1 NAP401      0.0000 
     49 H          42.6387    8.9854   31.3548 H         1 NAP401      0.0000 
     50 H          42.2555    8.0582   29.8941 H         1 NAP401      0.0000 
     51 H          44.6481    7.2733   29.9105 H         1 NAP401      0.0000 
     52 H          44.8898    8.7187   32.2963 H         1 NAP401      0.0000 
     53 H          45.1897   10.7868   31.3318 H         1 NAP401      0.0000 
     54 H          46.3321    9.5441   28.9177 H         1 NAP401      0.0000 
     55 H          43.4940   11.9870   29.8244 H         1 NAP401      0.0000 
     56 H          44.2529   15.2407   26.2734 H         1 NAP401      0.0000 
     57 H          45.8322   15.8242   25.6486 H         1 NAP401      0.0000 
     58 H          48.1959   11.8274   25.4411 H         1 NAP401      0.0000 
     59 H          40.7831    3.6504   30.1882 H         1 NAP401      0.0000 
     60 H          41.4314    5.2585   29.8223 H         1 NAP401      0.0000 
     61 H          40.2825    4.3609   27.8805 H         1 NAP401      0.0000 
     62 H          39.5616    6.8514   28.7653 H         1 NAP401      0.0000 
     63 H          37.5952    6.2316   29.7905 H         1 NAP401      0.0000 
     64 H          37.0734    4.3929   27.5333 H         1 NAP401      0.0000 
     65 H          37.2772    3.9197   31.2315 H         1 NAP401      0.0000 
     66 H          37.3863    3.6901   32.9020 H         1 NAP401      0.0000 
     67 H          36.7865    3.0894   34.4847 H         1 NAP401      0.0000 
     68 H          33.1871    2.9101   31.4711 H         1 NAP401      0.0000 
     69 H          32.9570    3.3461   29.0599 H         1 NAP401      0.0000 
     70 H          34.8694    4.1322   27.8165 H         1 NAP401      0.0000 
     71 H          46.3568    7.1614   32.1367 H         1 NAP401      0.0000 
     72 H          39.9889    6.2529   26.5953 H         1 NAP401      0.0000 
     73 H          36.4356    7.5375   28.5531 H         1 NAP401      0.0000 
@<TRIPOS>BOND
     1    2    1 ar   
     2    3    1 ar   
     3    4    1 1    
     4   23    1 1    
     5    5    4 1    
     6    6    5 1    
     7   49    5 1    
     8   50    5 1    
     9    7    6 1    
    10    8    6 1    
    11   51    6 1    
    12   12    7 1    
    13    9    8 1    
    14   10    8 1    
    15   52    8 1    
    16   71    9 1    
    17   11   10 1    
    18   12   10 1    
    19   53   10 1    
    20   45   11 1    
    21   13   12 1    
    22   54   12 1    
    23   14   13 1    
    24   22   13 1    
    25   15   14 2    
    26   55   14 1    
    27   16   15 1    
    28   17   16 ar   
    29   22   16 ar   
    30   18   17 1    
    31   19   17 ar   
    32   56   18 1    
    33   57   18 1    
    34   20   19 ar   
    35   21   20 ar   
    36   58   20 1    
    37   22   21 ar   
    38   24   23 1    
    39   25   24 ar   
    40   26   24 ar   
    41   27   24 1    
    42   28   27 1    
    43   29   28 1    
    44   59   28 1    
    45   60   28 1    
    46   30   29 1    
    47   31   29 1    
    48   61   29 1    
    49   35   30 1    
    50   32   31 1    
    51   33   31 1    
    52   62   31 1    
    53   72   32 1    
    54   34   33 1    
    55   35   33 1    
    56   63   33 1    
    57   73   34 1    
    58   36   35 1    
    59   64   35 1    
    60   37   36 ar   
    61   44   36 ar   
    62   38   37 ar   
    63   65   37 1    
    64   39   38 1    
    65   42   38 ar   
    66   40   39 2    
    67   41   39 am   
    68   66   41 1    
    69   67   41 1    
    70   43   42 ar   
    71   68   42 1    
    72   44   43 ar   
    73   69   43 1    
    74   70   44 1    
    75   46   45 ar   
    76   47   45 ar   
    77   48   45 ar   
@<TRIPOS>SUBSTRUCTURE
     1 NAP401      1 GROUP   
@<TRIPOS>SET

