#    Name: 4c2v_YJA_2_INTS_M
#    Modification time : Tue Mar 25 08:45:12 2014

@<TRIPOS>MOLECULE
4c2v_YJA_2_INTS_M
   84     0     9     0     0
SMALL
NO_CHARGES


@<TRIPOS>ATOM
      1 CA         34.9000   32.9325   65.5265 C.3       3 GLC5        0.0000 
      2 CA         33.2000   33.5840   65.7350 C.3       9 GLL5        0.0000 
      3 CA         36.6000   32.2810   65.3180 C.3       6 GLP5        0.0000 
      4 CA         32.3010   27.8165   66.0555 C.3       3 GLC5        0.0000 
      5 CA         31.7970   29.9120   65.4830 C.3       9 GLL5        0.0000 
      6 CA         32.8050   25.7210   66.6280 C.3       6 GLP5        0.0000 
      7 N          34.7070   31.0935   64.0560 N.am      2 SEC2        0.0000 
      8 N          33.8900   29.6780   63.7720 N.am      8 SEL2        0.0000 
      9 N          35.5240   32.5090   64.3400 N.am      5 SEP2        0.0000 
     10 CA         32.9365   25.8765   62.2750 C.3       3 GLC5        0.0000 
     11 CA         32.8960   27.6130   62.8170 C.3       9 GLL5        0.0000 
     12 CA         32.9770   24.1400   61.7330 C.3       6 GLP5        0.0000 
     13 CA         33.9050   27.0775   64.2770 C.3       3 GLC5        0.0000 
     14 CA         34.9140   26.5420   65.7370 C.3       6 GLP5        0.0000 
     15 CA         34.0980   25.4500   61.7975 C.3       3 GLC5        0.0000 
     16 CA         35.2190   26.7600   61.8620 C.3       9 GLL5        0.0000 
     17 CA         35.0665   26.6510   63.7995 C.3       3 GLC5        0.0000 
     18 CA         38.7115   25.9395   62.5000 C.3       3 GLC5        0.0000 
     19 CA         37.6460   25.2750   60.7470 C.3       9 GLL5        0.0000 
     20 CA         39.7770   26.6040   64.2530 C.3       6 GLP5        0.0000 
     21 CA         37.8710   23.1280   63.3370 C.3       3 GLC5        0.0000 
     22 CA         37.0040   23.1840   61.4170 C.3       9 GLL5        0.0000 
     23 CA         38.7380   23.0720   65.2570 C.3       6 GLP5        0.0000 
     24 CA         34.9905   23.6620   61.5750 C.3       3 GLC5        0.0000 
     25 CA         37.1385   21.3780   62.0395 C.3       3 GLC5        0.0000 
     26 CA         37.2730   19.5720   62.6620 C.3       6 GLP5        0.0000 
     27 CA         36.4645   21.9480   59.8410 C.3       3 GLC5        0.0000 
     28 CA         35.9250   20.7120   58.2650 C.3       6 GLP5        0.0000 
     29 CA         36.0215   23.8380   59.9075 C.3       3 GLC5        0.0000 
     30 CA         35.0390   24.4920   58.3980 C.3       6 GLP5        0.0000 
     31 N          37.4525   21.1840   60.4580 N.am      2 SEC2        0.0000 
     32 N          37.9660   22.5560   60.6420 N.am      8 SEL2        0.0000 
     33 N          36.9390   19.8120   60.2740 N.am      5 SEP2        0.0000 
     34 CA         37.7605   25.3495   57.6440 C.3       3 GLC5        0.0000 
     35 CA         39.5060   25.4290   59.0080 C.3       9 GLL5        0.0000 
     36 CA         36.0150   25.2700   56.2800 C.3       6 GLP5        0.0000 
     37 CA         41.0215   23.4150   60.2285 C.3       3 GLC5        0.0000 
     38 CA         40.5780   23.3830   58.1480 C.3       9 GLL5        0.0000 
     39 CA         41.4650   23.4470   62.3090 C.3       6 GLP5        0.0000 
     40 CA         43.0090   22.1995   59.5270 C.3       3 GLC5        0.0000 
     41 CA         42.2750   21.6740   57.4800 C.3       9 GLL5        0.0000 
     42 CA         43.7430   22.7250   61.5740 C.3       6 GLP5        0.0000 
     43 CA         41.7830   20.7830   59.1540 C.3       3 GLC5        0.0000 
     44 CA         41.2910   19.8920   60.8280 C.3       6 GLP5        0.0000 
     45 CA         40.6560   19.7605   54.9960 C.3       3 GLC5        0.0000 
     46 CA         42.1010   21.0780   56.0930 C.3       9 GLL5        0.0000 
     47 CA         39.2110   18.4430   53.8990 C.3       6 GLP5        0.0000 
     48 CA         41.1940   18.4110   53.5225 C.3       3 GLC5        0.0000 
     49 CA         43.1770   18.3790   53.1460 C.3       9 GLL5        0.0000 
     50 O          41.0830   22.9425   51.3930 O.2       1 ALC1        0.0000 
     51 O          42.1460   23.3070   52.1060 O.2       7 ALL1        0.0000 
     52 O          40.0200   22.5780   50.6800 O.2       4 ALP1        0.0000 
     53 CA         34.4105   31.2858   65.7795 C.3       3 GLC5        0.0000 
     54 CA         32.5270   31.1120   65.3050 C.3       9 GLL5        0.0000 
     55 CA         36.4230   30.8830   65.9070 C.3       6 GLP5        0.0000 
     56 CA         32.8245   30.9232   67.2390 C.3       3 GLC5        0.0000 
     57 CA         33.2510   30.1580   68.8260 C.3       6 GLP5        0.0000 
     58 CA         31.9868   33.6543   67.5340 C.3       3 GLC5        0.0000 
     59 CA         32.2690   32.2650   65.9990 C.3       9 GLL5        0.0000 
     60 CA         31.2390   34.3840   69.2010 C.3       6 GLP5        0.0000 
     61 CA         29.9185   32.4090   65.8872 C.3       3 GLC5        0.0000 
     62 CA         31.2010   32.2310   66.8680 C.3       9 GLL5        0.0000 
     63 CA         28.1020   32.5700   65.3410 C.3       6 GLP5        0.0000 
     64 CA         31.0292   33.0168   68.0807 C.3       3 GLC5        0.0000 
     65 CA         29.9778   31.6932   68.8667 C.3       3 GLC5        0.0000 
     66 CA         29.1360   31.7370   70.7730 C.3       6 GLP5        0.0000 
     67 CA         32.0352   30.9038   67.8932 C.3       3 GLC5        0.0000 
     68 CA         30.4380   31.0680   67.0530 C.3       9 GLL5        0.0000 
     69 CA         29.3430   31.5280   66.0147 C.3       3 GLC5        0.0000 
     70 CA         32.2572   30.0330   67.3647 C.3       3 GLC5        0.0000 
     71 CA         30.7300   29.9040   66.3240 C.3       9 GLL5        0.0000 
     72 CA         30.5358   29.0475   67.3239 C.3       3 GLC5        0.0000 
     73 CA         29.8810   27.8960   68.5620 C.3       6 GLP5        0.0000 
     74 CA         35.3978   25.7467   59.9625 C.3       3 GLC5        0.0000 
     75 CA         37.5892   21.8235   58.8165 C.3       3 GLC5        0.0000 
     76 CA         38.8020   23.2710   59.8280 C.3       9 GLL5        0.0000 
     77 CA         36.7579   24.3104   59.2360 C.3       3 GLC5        0.0000 
     78 CA         40.2101   23.6318   60.9697 C.3       3 GLC5        0.0000 
     79 CA         41.4995   25.1080   59.8830 C.3       3 GLC5        0.0000 
     80 CA         43.0330   25.1140   61.1740 C.3       6 GLP5        0.0000 
     81 CA         39.7079   23.0365   56.5505 C.3       3 GLC5        0.0000 
     82 CA         40.4260   24.7750   58.1760 C.3       9 GLL5        0.0000 
     83 CA         39.1320   22.1900   54.7490 C.3       6 GLP5        0.0000 
     84 CA         40.6600   21.7830   55.7678 C.3       3 GLC5        0.0000 
@<TRIPOS>BOND
@<TRIPOS>SUBSTRUCTURE
     1 ALC1       50 GROUP        1 X    ALC  0     ROOT ALC X 1
     2 SEC2        7 GROUP        1 X    SEC  0     **** SEC X 2
     3 GLC5        1 GROUP        1 X    GLC  0     **** GLC X 6
     4 ALP1       52 GROUP        1 Y    ALP  0     ROOT ALP Y 8
     5 SEP2        9 GROUP        1 Y    SEP  0     **** SEP Y 9
     6 GLP5        3 GROUP        1 Y    GLP  0     **** GLP Y 13
     7 ALL1       51 GROUP        1 Z    ALL  0     ROOT ALL Z 15
     8 SEL2        8 GROUP        1 Z    SEL  0     **** SEL Z 16
     9 GLL5        2 GROUP        1 Z    GLL  0     **** GLL Z 20
@<TRIPOS>SET

