#    Name: 4c2v_YJA_2_ligand
#    Modification time : Tue Mar 25 08:45:12 2014

@<TRIPOS>MOLECULE
4c2v_YJA_2_ligand
   68    71     1     0     0
SMALL
NO_CHARGES


@<TRIPOS>ATOM
      1 CAK        32.5270   31.1120   65.3050 C.ar      1 YJA1357     0.0000 
      2 CBC        32.2690   32.2650   65.9990 C.ar      1 YJA1357     0.0000 
      3 FAD        33.2000   33.5840   65.7350 F         1 YJA1357     0.0000 
      4 CAG        31.2010   32.2310   66.8680 C.ar      1 YJA1357     0.0000 
      5 CAE        30.4380   31.0680   67.0530 C.ar      1 YJA1357     0.0000 
      6 CAH        30.7300   29.9040   66.3240 C.ar      1 YJA1357     0.0000 
      7 CBD        31.7970   29.9120   65.4830 C.ar      1 YJA1357     0.0000 
      8 NAX        32.0340   28.8450   64.7440 N.am      1 YJA1357     0.0000 
      9 CBB        32.9570   28.8630   63.7820 C.2       1 YJA1357     0.0000 
     10 OAB        33.8900   29.6780   63.7720 O.2       1 YJA1357     0.0000 
     11 CAT        32.8960   27.6130   62.8170 C.3       1 YJA1357     0.0000 
     12 CBE        34.2960   27.7230   62.0500 C.2       1 YJA1357     0.0000 
     13 CAL        35.2190   26.7600   61.8620 C.2       1 YJA1357     0.0000 
     14 NAZ        34.7600   28.8220   61.4610 N.2       1 YJA1357     0.0000 
     15 NAW        36.0130   28.5410   60.9260 N.pl3     1 YJA1357     0.0000 
     16 CBG        36.2940   27.2430   61.1920 C.2       1 YJA1357     0.0000 
     17 NAY        37.4880   26.6380   60.8010 N.pl3     1 YJA1357     0.0000 
     18 C6         37.6460   25.2750   60.7470 C.ar      1 YJA1357     0.0000 
     19 N1         36.8640   24.5180   61.5640 N.ar      1 YJA1357     0.0000 
     20 C2         37.0040   23.1840   61.4170 C.ar      1 YJA1357     0.0000 
     21 N3         37.9660   22.5560   60.6420 N.ar      1 YJA1357     0.0000 
     22 C4         38.8020   23.2710   59.8280 C.ar      1 YJA1357     0.0000 
     23 CAM        39.7050   22.5990   58.9080 C.ar      1 YJA1357     0.0000 
     24 C5         38.6570   24.6980   59.8930 C.ar      1 YJA1357     0.0000 
     25 CAJ        39.5060   25.4290   59.0080 C.ar      1 YJA1357     0.0000 
     26 CAI        40.4260   24.7750   58.1760 C.ar      1 YJA1357     0.0000 
     27 CBF        40.5780   23.3830   58.1480 C.ar      1 YJA1357     0.0000 
     28 OBA        41.5500   22.8750   57.3060 O.3       1 YJA1357     0.0000 
     29 CAQ        42.2750   21.6740   57.4800 C.3       1 YJA1357     0.0000 
     30 CAP        42.1010   21.0780   56.0930 C.3       1 YJA1357     0.0000 
     31 CAS        43.4310   20.6320   55.5200 C.3       1 YJA1357     0.0000 
     32 NBK        43.2650   20.6530   54.0380 N.4       1 YJA1357     0.0000 
     33 CAO        44.0810   19.6140   53.3780 C.3       1 YJA1357     0.0000 
     34 CAA        43.1770   18.3790   53.1460 C.3       1 YJA1357     0.0000 
     35 CAR        43.5660   22.0130   53.5480 C.3       1 YJA1357     0.0000 
     36 CAN        43.0520   22.1710   52.1070 C.3       1 YJA1357     0.0000 
     37 OAC        42.1460   23.3070   52.1060 O.3       1 YJA1357     0.0000 
     38 H          33.3061   31.0986   64.5972 H         1 YJA1357     0.0000 
     39 H          30.9445   33.0836   67.4062 H         1 YJA1357     0.0000 
     40 H          29.6619   31.0677   67.7249 H         1 YJA1357     0.0000 
     41 H          30.1388   29.0778   66.4385 H         1 YJA1357     0.0000 
     42 H          31.4854   27.9568   64.9129 H         1 YJA1357     0.0000 
     43 H          32.1268   27.7395   62.1303 H         1 YJA1357     0.0000 
     44 H          32.8892   26.7389   63.3783 H         1 YJA1357     0.0000 
     45 H          35.1297   25.8318   62.1673 H         1 YJA1357     0.0000 
     46 H          36.5597   29.1657   60.4590 H         1 YJA1357     0.0000 
     47 H          38.2936   27.2575   60.5390 H         1 YJA1357     0.0000 
     48 H          36.3185   22.5420   61.9392 H         1 YJA1357     0.0000 
     49 H          39.6825   21.5976   58.8390 H         1 YJA1357     0.0000 
     50 H          39.4330   26.4555   58.9884 H         1 YJA1357     0.0000 
     51 H          41.0277   25.3556   57.5459 H         1 YJA1357     0.0000 
     52 H          41.8285   21.0214   58.1844 H         1 YJA1357     0.0000 
     53 H          43.3077   21.8367   57.6485 H         1 YJA1357     0.0000 
     54 H          41.6543   21.8255   55.4337 H         1 YJA1357     0.0000 
     55 H          41.4257   20.2216   56.1516 H         1 YJA1357     0.0000 
     56 H          43.6497   19.6363   55.8581 H         1 YJA1357     0.0000 
     57 H          44.1984   21.3208   55.8205 H         1 YJA1357     0.0000 
     58 H          42.1972   20.4482   53.8283 H         1 YJA1357     0.0000 
     59 H          44.9088   19.3140   54.0034 H         1 YJA1357     0.0000 
     60 H          44.4415   19.9538   52.4184 H         1 YJA1357     0.0000 
     61 H          44.6395   22.1954   53.5500 H         1 YJA1357     0.0000 
     62 H          43.0794   22.7637   54.1688 H         1 YJA1357     0.0000 
     63 H          42.5465   21.2583   51.8277 H         1 YJA1357     0.0000 
     64 H          43.9023   22.3393   51.4626 H         1 YJA1357     0.0000 
     65 H          43.6730   17.6344   52.6993 H         1 YJA1357     0.0000 
     66 H          42.8157   18.0166   54.0051 H         1 YJA1357     0.0000 
     67 H          42.3917   18.5972   52.5666 H         1 YJA1357     0.0000 
     68 H          41.4847   23.1099   51.3822 H         1 YJA1357     0.0000 
@<TRIPOS>BOND
     1    2    1 ar   
     2    7    1 ar   
     3   38    1 1    
     4    3    2 1    
     5    4    2 ar   
     6    5    4 ar   
     7   39    4 1    
     8    6    5 ar   
     9   40    5 1    
    10    7    6 ar   
    11   41    6 1    
    12    8    7 1    
    13    9    8 am   
    14   42    8 1    
    15   10    9 2    
    16   11    9 1    
    17   12   11 1    
    18   43   11 1    
    19   44   11 1    
    20   13   12 1    
    21   14   12 2    
    22   16   13 2    
    23   45   13 1    
    24   15   14 1    
    25   16   15 1    
    26   46   15 1    
    27   17   16 1    
    28   18   17 1    
    29   47   17 1    
    30   19   18 ar   
    31   24   18 ar   
    32   20   19 ar   
    33   21   20 ar   
    34   48   20 1    
    35   22   21 ar   
    36   23   22 ar   
    37   24   22 ar   
    38   27   23 ar   
    39   49   23 1    
    40   25   24 ar   
    41   26   25 ar   
    42   50   25 1    
    43   27   26 ar   
    44   51   26 1    
    45   28   27 1    
    46   29   28 1    
    47   30   29 1    
    48   52   29 1    
    49   53   29 1    
    50   31   30 1    
    51   54   30 1    
    52   55   30 1    
    53   32   31 1    
    54   56   31 1    
    55   57   31 1    
    56   33   32 1    
    57   35   32 1    
    58   58   32 1    
    59   34   33 1    
    60   59   33 1    
    61   60   33 1    
    62   65   34 1    
    63   66   34 1    
    64   67   34 1    
    65   36   35 1    
    66   61   35 1    
    67   62   35 1    
    68   37   36 1    
    69   63   36 1    
    70   64   36 1    
    71   68   37 1    
@<TRIPOS>SUBSTRUCTURE
     1 YJA1357     1 GROUP   
@<TRIPOS>SET

