#    Name: 2yqs_UD1_1_INTS_M
#    Modification time : Mon Apr  7 18:30:03 2014

@<TRIPOS>MOLECULE
2yqs_UD1_1_INTS_M
  103     0    12     0     0
SMALL
NO_CHARGES


@<TRIPOS>ATOM
      1 CA         11.1020   -9.2285   33.0655 C.3       4 GLC5        0.0000 
      2 CA         10.5220   -7.0810   33.1370 C.3      12 GLL5        0.0000 
      3 CA         11.6820  -11.3760   32.9940 C.3       8 GLP5        0.0000 
      4 CA         11.9840   -6.8785   31.5490 C.3       4 GLC5        0.0000 
      5 CA         13.4460   -6.6760   29.9610 C.3       8 GLP5        0.0000 
      6 CA          9.6700   -8.8500   31.1335 C.3       4 GLC5        0.0000 
      7 CA          9.1270   -7.4360   32.5630 C.3      12 GLL5        0.0000 
      8 CA         10.2130  -10.2640   29.7040 C.3       8 GLP5        0.0000 
      9 CA          8.6080   -8.9910   33.9075 C.3       4 GLC5        0.0000 
     10 CA          8.0890  -10.5460   35.2520 C.3       8 GLP5        0.0000 
     11 CA          7.6090   -8.3150   29.8895 C.3       4 GLC5        0.0000 
     12 CA          7.3540   -6.5450   30.9710 C.3      12 GLL5        0.0000 
     13 CA          7.8640  -10.0850   28.8080 C.3       8 GLP5        0.0000 
     14 CA          5.6750   -6.9845   30.1135 C.3       4 GLC5        0.0000 
     15 CA          3.9960   -7.4240   29.2560 C.3       8 GLP5        0.0000 
     16 CA         14.8015   -3.9995   36.5915 C.3       4 GLC5        0.0000 
     17 CA         13.1340   -4.1890   36.0940 C.3      12 GLL5        0.0000 
     18 CA         16.4690   -3.8100   37.0890 C.3       8 GLP5        0.0000 
     19 CA         12.9175   -5.9050   36.6565 C.3       4 GLC5        0.0000 
     20 CA         12.7010   -7.6210   37.2190 C.3       8 GLP5        0.0000 
     21 O          12.9395   -5.8755   33.9955 O.2       1 ALC1        0.0000 
     22 O          11.7560   -5.3140   34.3740 O.2       9 ALL1        0.0000 
     23 O          14.1230   -6.4370   33.6170 O.2       5 ALP1        0.0000 
     24 N          10.9395   -9.3525   33.0325 N.am      2 SEC2        0.0000 
     25 N          10.8790   -8.0680   34.1080 N.am     10 SEL2        0.0000 
     26 N          11.0000  -10.6370   31.9570 N.am      6 SEP2        0.0000 
     27 N           9.9635   -8.2965   35.1405 N.am      2 SEC2        0.0000 
     28 N           9.0480   -8.5250   36.1730 N.am      6 SEP2        0.0000 
     29 O          12.2070   -8.3000   33.7085 O.2       1 ALC1        0.0000 
     30 O          10.8790   -8.0680   34.1080 O.2       9 ALL1        0.0000 
     31 O          13.5350   -8.5320   33.3090 O.2       5 ALP1        0.0000 
     32 N          10.0435   -9.6865   31.9465 N.am      2 SEC2        0.0000 
     33 N           9.0870   -8.7360   31.9360 N.am     10 SEL2        0.0000 
     34 O           7.8310   -9.0145   32.4570 O.2       1 ALC1        0.0000 
     35 O           9.0870   -8.7360   31.9360 O.2       9 ALL1        0.0000 
     36 O           6.5750   -9.2930   32.9780 O.2       5 ALP1        0.0000 
     37 N           7.5480   -4.2190   29.5515 N.am      2 SEC2        0.0000 
     38 N           7.1190   -5.5000   30.0200 N.am     10 SEL2        0.0000 
     39 N           7.9770   -2.9380   29.0830 N.am      6 SEP2        0.0000 
     40 N          10.8175   -2.9255   36.7085 N.am      2 SEC2        0.0000 
     41 N          10.7660   -4.1590   36.0510 N.am     10 SEL2        0.0000 
     42 N          10.8690   -1.6920   37.3660 N.am      6 SEP2        0.0000 
     43 O          12.0870    5.2360   37.9635 O.2       1 ALC1        0.0000 
     44 O          12.0160    4.1400   37.2070 O.2       9 ALL1        0.0000 
     45 O          12.1580    6.3320   38.7200 O.2       5 ALP1        0.0000 
     46 CA         14.4465    2.2830   36.8975 C.3       4 GLC5        0.0000 
     47 CA         13.0340    2.6490   35.5810 C.3      12 GLL5        0.0000 
     48 CA         15.8590    1.9170   38.2140 C.3       8 GLP5        0.0000 
     49 CA         12.7125    1.8175   37.5320 C.3       4 GLC5        0.0000 
     50 CA         12.3910    0.9860   39.4830 C.3       8 GLP5        0.0000 
     51 CA         11.5270    1.2180   37.0410 C.3       4 GLC5        0.0000 
     52 CA         11.8160    2.1990   35.3040 C.3      12 GLL5        0.0000 
     53 CA         11.2380    0.2370   38.7780 C.3       8 GLP5        0.0000 
     54 N           9.2230    5.3695   36.9700 N.am      2 SEC2        0.0000 
     55 N           9.7440    4.1600   37.5440 N.am     10 SEL2        0.0000 
     56 N           8.7020    6.5790   36.3960 N.am      6 SEP2        0.0000 
     57 N          14.1610    4.8335   38.2370 N.am      2 SEC2        0.0000 
     58 N          14.2680    4.1830   36.9260 N.am     10 SEL2        0.0000 
     59 N          14.0540    5.4840   39.5480 N.am      6 SEP2        0.0000 
     60 CA          8.0580    2.1815   37.0575 C.3       4 GLC5        0.0000 
     61 CA          9.3140    2.1800   35.6150 C.3      12 GLL5        0.0000 
     62 CA          6.8020    2.1830   38.5000 C.3       8 GLP5        0.0000 
     63 CA         10.2760    1.2085   37.1965 C.3       4 GLC5        0.0000 
     64 CA          9.9710    4.0115   33.7015 C.3       4 GLC5        0.0000 
     65 CA          8.8430    2.3980   34.1890 C.3      12 GLL5        0.0000 
     66 CA         11.0990    5.6250   33.2140 C.3       8 GLP5        0.0000 
     67 N           9.2855    4.8315   34.2590 N.am      2 SEC2        0.0000 
     68 N           8.2050    3.6700   34.1020 N.am     10 SEL2        0.0000 
     69 N          10.3660    5.9930   34.4160 N.am      6 SEP2        0.0000 
     70 CA          6.1905    2.6285   33.3600 C.3       4 GLC5        0.0000 
     71 CA          7.8270    1.2370   34.0170 C.3      12 GLL5        0.0000 
     72 CA          4.5540    4.0200   32.7030 C.3       8 GLP5        0.0000 
     73 CA          7.6100    1.1420   36.6830 C.3       4 GLC5        0.0000 
     74 CA          8.4180    0.1010   34.8660 C.3      12 GLL5        0.0000 
     75 N          10.0735   -0.4585   36.6045 N.am      2 SEC2        0.0000 
     76 N           9.2780    0.7750   35.8430 N.am     10 SEL2        0.0000 
     77 N           4.9965    1.6380   34.3675 N.am      2 SEC2        0.0000 
     78 N           6.5390    1.6630   34.4930 N.am     10 SEL2        0.0000 
     79 N           3.4540    1.6130   34.2420 N.am      6 SEP2        0.0000 
     80 O           6.0965    2.6280   35.3525 O.2       1 ALC1        0.0000 
     81 O           6.5390    1.6630   34.4930 O.2       9 ALL1        0.0000 
     82 O           5.6540    3.5930   36.2120 O.2       5 ALP1        0.0000 
     83 NZ         11.1410   -2.3950   28.5445 N.4       3 LYC4        0.0000 
     84 NZ         10.7000   -3.2000   29.6400 N.4      11 LYL4        0.0000 
     85 NZ         11.9340   -1.7720   26.1790 N.4       7 LYP4        0.0000 
     86 NZ          9.3385   -3.0690   29.3615 N.4       3 LYC4        0.0000 
     87 NZ          7.9770   -2.9380   29.0830 N.4       7 LYP4        0.0000 
     88 N          11.1410   -2.3950   28.5445 N.am      2 SEC2        0.0000 
     89 N          10.7000   -3.2000   29.6400 N.am     10 SEL2        0.0000 
     90 N          11.5820   -1.5900   27.4490 N.am      6 SEP2        0.0000 
     91 N           9.3385   -3.0690   29.3615 N.am      2 SEC2        0.0000 
     92 N          13.6350   -3.9085   29.9075 N.am      2 SEC2        0.0000 
     93 N          12.8720   -3.1800   30.6990 N.am     10 SEL2        0.0000 
     94 N          14.3980   -4.6370   29.1160 N.am      6 SEP2        0.0000 
     95 CA          8.6030   -5.1418   34.0755 C.3       4 GLC5        0.0000 
     96 CA         10.0420   -4.6370   32.7310 C.3      12 GLL5        0.0000 
     97 CA          6.9660   -5.1320   34.8860 C.3       8 GLP5        0.0000 
     98 CA          8.3953   -6.1952   33.8680 C.3       4 GLC5        0.0000 
     99 CA          7.5140   -5.7912   33.0643 C.3       4 GLC5        0.0000 
    100 CA          8.7700   -6.3560   31.5140 C.3      12 GLL5        0.0000 
    101 CA         11.7620    4.0245   34.3282 C.3       4 GLC5        0.0000 
    102 CA          7.0884   -0.5543   33.6531 C.3       4 GLC5        0.0000 
    103 CA          5.4570   -0.9950   33.0090 C.3       8 GLP5        0.0000 
@<TRIPOS>BOND
@<TRIPOS>SUBSTRUCTURE
     1 ALC1       21 GROUP        1 X    ALC  0     ROOT ALC X 1
     2 SEC2       24 GROUP        1 X    SEC  0     **** SEC X 2
     3 LYC4       83 GROUP        1 X    LYC  0     **** LYC X 4
     4 GLC5        1 GROUP        1 X    GLC  0     **** GLC X 6
     5 ALP1       23 GROUP        1 Y    ALP  0     ROOT ALP Y 8
     6 SEP2       26 GROUP        1 Y    SEP  0     **** SEP Y 9
     7 LYP4       85 GROUP        1 Y    LYP  0     **** LYP Y 11
     8 GLP5        3 GROUP        1 Y    GLP  0     **** GLP Y 13
     9 ALL1       22 GROUP        1 Z    ALL  0     ROOT ALL Z 15
    10 SEL2       25 GROUP        1 Z    SEL  0     **** SEL Z 16
    11 LYL4       84 GROUP        1 Z    LYL  0     **** LYL Z 18
    12 GLL5        2 GROUP        1 Z    GLL  0     **** GLL Z 20
@<TRIPOS>SET

