#    Name: 2yqs_UD1_1_ligand
#    Modification time : Mon Apr  7 18:30:04 2014

@<TRIPOS>MOLECULE
2yqs_UD1_1_ligand
   64    66     1     0     0
SMALL
NO_CHARGES


@<TRIPOS>ATOM
      1 C1'        10.0420   -4.6370   32.7310 C.3       1 UD11001     0.0000 
      2 C2'        10.4380   -5.6660   33.7990 C.3       1 UD11001     0.0000 
      3 C3'        10.5220   -7.0810   33.1370 C.3       1 UD11001     0.0000 
      4 C4'         9.1270   -7.4360   32.5630 C.3       1 UD11001     0.0000 
      5 C5'         8.7700   -6.3560   31.5140 C.3       1 UD11001     0.0000 
      6 C6'         7.3540   -6.5450   30.9710 C.3       1 UD11001     0.0000 
      7 C7'        11.7930   -4.5550   35.5020 C.2       1 UD11001     0.0000 
      8 C8'        13.1340   -4.1890   36.0940 C.3       1 UD11001     0.0000 
      9 N2'        11.7560   -5.3140   34.3740 N.am      1 UD11001     0.0000 
     10 O1'        11.0410   -4.6200   31.7360 O.3       1 UD11001     0.0000 
     11 O3'        10.8790   -8.0680   34.1080 O.3       1 UD11001     0.0000 
     12 O4'         9.0870   -8.7360   31.9360 O.3       1 UD11001     0.0000 
     13 O5'         8.7810   -5.0420   32.1370 O.3       1 UD11001     0.0000 
     14 O6'         7.1190   -5.5000   30.0200 O.3       1 UD11001     0.0000 
     15 O7'        10.7660   -4.1590   36.0510 O.2       1 UD11001     0.0000 
     16 N1         10.6730    2.6940   35.9550 N.am      1 UD11001     0.0000 
     17 C2         10.7390    3.7040   36.9540 C.2       1 UD11001     0.0000 
     18 N3         12.0160    4.1400   37.2070 N.am      1 UD11001     0.0000 
     19 C4         13.2090    3.6850   36.5840 C.2       1 UD11001     0.0000 
     20 C5         13.0340    2.6490   35.5810 C.2       1 UD11001     0.0000 
     21 C6         11.8160    2.1990   35.3040 C.2       1 UD11001     0.0000 
     22 O2          9.7440    4.1600   37.5440 O.2       1 UD11001     0.0000 
     23 O4         14.2680    4.1830   36.9260 O.2       1 UD11001     0.0000 
     24 C1B         9.3140    2.1800   35.6150 C.3       1 UD11001     0.0000 
     25 C2B         8.8430    2.3980   34.1890 C.3       1 UD11001     0.0000 
     26 O2'         8.2050    3.6700   34.1020 O.3       1 UD11001     0.0000 
     27 C3B         7.8270    1.2370   34.0170 C.3       1 UD11001     0.0000 
     28 C4B         8.4180    0.1010   34.8660 C.3       1 UD11001     0.0000 
     29 O4B         9.2780    0.7750   35.8430 O.3       1 UD11001     0.0000 
     30 O3B         6.5390    1.6630   34.4930 O.3       1 UD11001     0.0000 
     31 C5B         9.3170   -0.8960   34.1530 C.3       1 UD11001     0.0000 
     32 O5B        10.1640   -0.1970   33.2600 O.3       1 UD11001     0.0000 
     33 PA         11.4210   -0.8730   32.6290 P.3       1 UD11001     0.0000 
     34 O1A        12.2680    0.1030   31.8790 O.co2     1 UD11001     0.0000 
     35 O2A        12.2320   -1.5570   33.6620 O.co2     1 UD11001     0.0000 
     36 O3A        10.8500   -1.9610   31.7320 O.3       1 UD11001     0.0000 
     37 PB         11.3890   -3.2670   30.9520 P.3       1 UD11001     0.0000 
     38 O1B        10.7000   -3.2000   29.6400 O.co2     1 UD11001     0.0000 
     39 O2B        12.8720   -3.1800   30.6990 O.co2     1 UD11001     0.0000 
     40 H           9.9432   -3.6882   33.2145 H         1 UD11001     0.0000 
     41 H           9.6865   -5.6964   34.5522 H         1 UD11001     0.0000 
     42 H          11.2107   -7.0302   32.3286 H         1 UD11001     0.0000 
     43 H           8.4079   -7.3512   33.3604 H         1 UD11001     0.0000 
     44 H           9.4596   -6.4005   30.7084 H         1 UD11001     0.0000 
     45 H           6.6637   -6.4951   31.8075 H         1 UD11001     0.0000 
     46 H           7.2972   -7.5287   30.5151 H         1 UD11001     0.0000 
     47 H          12.5781   -5.6569   33.8979 H         1 UD11001     0.0000 
     48 H          12.1457    4.9049   37.9508 H         1 UD11001     0.0000 
     49 H          13.8847    2.3023   35.1190 H         1 UD11001     0.0000 
     50 H          11.6671    1.4506   34.5816 H         1 UD11001     0.0000 
     51 H           8.5774    2.6561   36.2809 H         1 UD11001     0.0000 
     52 H           9.6377    2.2474   33.5386 H         1 UD11001     0.0000 
     53 H           7.8376    0.9498   33.0030 H         1 UD11001     0.0000 
     54 H           7.6382   -0.4037   35.3847 H         1 UD11001     0.0000 
     55 H           8.6741   -1.6144   33.6326 H         1 UD11001     0.0000 
     56 H           9.8839   -1.4411   34.9157 H         1 UD11001     0.0000 
     57 H          13.6611   -4.9996   36.3489 H         1 UD11001     0.0000 
     58 H          13.6934   -3.6658   35.4511 H         1 UD11001     0.0000 
     59 H          13.0363   -3.6317   36.9185 H         1 UD11001     0.0000 
     60 H          11.8681   -7.9735   34.2213 H         1 UD11001     0.0000 
     61 H           8.1952   -9.1150   32.1830 H         1 UD11001     0.0000 
     62 H           6.3512   -4.9789   30.3927 H         1 UD11001     0.0000 
     63 H           8.3932    3.9909   33.1737 H         1 UD11001     0.0000 
     64 H           6.6482    2.6353   34.6996 H         1 UD11001     0.0000 
@<TRIPOS>BOND
     1    2    1 1    
     2   10    1 1    
     3   13    1 1    
     4   40    1 1    
     5    3    2 1    
     6    9    2 1    
     7   41    2 1    
     8    4    3 1    
     9   11    3 1    
    10   42    3 1    
    11    5    4 1    
    12   12    4 1    
    13   43    4 1    
    14    6    5 1    
    15   13    5 1    
    16   44    5 1    
    17   14    6 1    
    18   45    6 1    
    19   46    6 1    
    20    8    7 1    
    21    9    7 am   
    22   15    7 2    
    23   57    8 1    
    24   58    8 1    
    25   59    8 1    
    26   47    9 1    
    27   37   10 1    
    28   60   11 1    
    29   61   12 1    
    30   62   14 1    
    31   17   16 1    
    32   21   16 1    
    33   24   16 1    
    34   18   17 1    
    35   22   17 2    
    36   19   18 1    
    37   48   18 1    
    38   20   19 1    
    39   23   19 2    
    40   21   20 2    
    41   49   20 1    
    42   50   21 1    
    43   25   24 1    
    44   29   24 1    
    45   51   24 1    
    46   26   25 1    
    47   27   25 1    
    48   52   25 1    
    49   63   26 1    
    50   28   27 1    
    51   30   27 1    
    52   53   27 1    
    53   29   28 1    
    54   31   28 1    
    55   54   28 1    
    56   64   30 1    
    57   32   31 1    
    58   55   31 1    
    59   56   31 1    
    60   33   32 1    
    61   34   33 ar   
    62   35   33 ar   
    63   36   33 1    
    64   37   36 1    
    65   38   37 ar   
    66   39   37 ar   
@<TRIPOS>SUBSTRUCTURE
     1 UD11001     1 GROUP   
@<TRIPOS>SET

