#    Name: 3oy3_XY3_1_INTS_M
#    Modification time : Tue Mar 25 05:39:11 2014

@<TRIPOS>MOLECULE
3oy3_XY3_1_INTS_M
  115     0     9     0     0
SMALL
NO_CHARGES


@<TRIPOS>ATOM
      1 CA         17.4405   12.3515    3.6235 C.3       3 GLC5        0.0000 
      2 CA         17.0520   11.5210    1.6480 C.3       9 GLL5        0.0000 
      3 CA         17.8290   13.1820    5.5990 C.3       6 GLP5        0.0000 
      4 CA         13.2885    9.6385    4.1400 C.3       3 GLC5        0.0000 
      5 CA         13.4560    7.6850    4.0430 C.3       9 GLL5        0.0000 
      6 CA         13.1210   11.5920    4.2370 C.3       6 GLP5        0.0000 
      7 CA          9.6080    2.0285    5.4285 C.3       3 GLC5        0.0000 
      8 CA          9.8130    3.9040    4.3850 C.3       9 GLL5        0.0000 
      9 CA          9.4030    0.1530    6.4720 C.3       6 GLP5        0.0000 
     10 CA         11.7460    3.8250    3.6810 C.3       3 GLC5        0.0000 
     11 CA         13.6790    3.7460    2.9770 C.3       6 GLP5        0.0000 
     12 CA          7.9485    6.4820    6.2255 C.3       3 GLC5        0.0000 
     13 CA          8.0450    4.4480    6.0100 C.3       9 GLL5        0.0000 
     14 CA          7.8520    8.5160    6.4410 C.3       6 GLP5        0.0000 
     15 CA         24.5635    9.8115   -0.1905 C.3       3 GLC5        0.0000 
     16 CA         23.4610    8.4620    0.5800 C.3       9 GLL5        0.0000 
     17 CA         25.6660   11.1610   -0.9610 C.3       6 GLP5        0.0000 
     18 CA         22.7770    8.8635   -1.3980 C.3       3 GLC5        0.0000 
     19 CA         22.0930    9.2650   -3.3760 C.3       6 GLP5        0.0000 
     20 CA         23.2620   10.5940    1.2455 C.3       3 GLC5        0.0000 
     21 CA         23.0630   12.7260    1.9110 C.3       6 GLP5        0.0000 
     22 CA         21.7050    7.7235    0.6035 C.3       3 GLC5        0.0000 
     23 CA         19.9490    6.9850    0.6270 C.3       6 GLP5        0.0000 
     24 CA         25.3435   10.0865    0.7955 C.3       3 GLC5        0.0000 
     25 CA         25.0210    9.0120    2.5520 C.3       9 GLL5        0.0000 
     26 CA         24.0420   10.8690    2.2315 C.3       3 GLC5        0.0000 
     27 CA         24.1980    7.3360    3.3600 C.3       3 GLC5        0.0000 
     28 CA         23.3750    5.6600    4.1680 C.3       6 GLP5        0.0000 
     29 CA         24.6685   11.2820    4.6895 C.3       3 GLC5        0.0000 
     30 CA         23.4850    9.7220    3.8910 C.3       9 GLL5        0.0000 
     31 CA         25.8520   12.8420    5.4880 C.3       6 GLP5        0.0000 
     32 CA         24.0005    9.2590    5.8850 C.3       3 GLC5        0.0000 
     33 CA         24.5160    8.7960    7.8790 C.3       6 GLP5        0.0000 
     34 CA         21.2285   12.5290    1.4810 C.3       3 GLC5        0.0000 
     35 CA         19.3940   12.3320    1.0510 C.3       9 GLL5        0.0000 
     36 CA         19.9865   13.9390    0.1470 C.3       3 GLC5        0.0000 
     37 CA         20.5790   15.5460   -0.7570 C.3       6 GLP5        0.0000 
     38 N          16.1100    5.9410    3.9730 N.am      2 SEC2        0.0000 
     39 N          16.3510    7.3650    4.1180 N.am      8 SEL2        0.0000 
     40 N          15.8690    4.5170    3.8280 N.am      5 SEP2        0.0000 
     41 O          13.8895    8.9585    2.1275 O.2       1 ALC1        0.0000 
     42 O          14.4590    8.3940    3.2930 O.2       7 ALL1        0.0000 
     43 O          13.3200    9.5230    0.9620 O.2       4 ALP1        0.0000 
     44 CA         15.4125    5.7515    5.5985 C.3       3 GLC5        0.0000 
     45 CA         13.7530    6.9410    5.2560 C.3       9 GLL5        0.0000 
     46 CA         17.0720    4.5620    5.9410 C.3       6 GLP5        0.0000 
     47 CA         12.9695    2.5145    6.9520 C.3       3 GLC5        0.0000 
     48 CA         13.0280    4.1700    7.0270 C.3       9 GLL5        0.0000 
     49 CA         12.9110    0.8590    6.8770 C.3       6 GLP5        0.0000 
     50 CA         14.3145    3.0595    7.9210 C.3       3 GLC5        0.0000 
     51 CA         15.6010    1.9490    8.8150 C.3       6 GLP5        0.0000 
     52 CA         13.3535    3.9580    5.0020 C.3       3 GLC5        0.0000 
     53 CA         15.2800    7.2745    7.5170 C.3       3 GLC5        0.0000 
     54 CA         14.3550    5.6860    7.6580 C.3       9 GLL5        0.0000 
     55 CA         16.2050    8.8630    7.3760 C.3       6 GLP5        0.0000 
     56 CA         14.9780    3.8175    8.2365 C.3       3 GLC5        0.0000 
     57 CA         11.1310    5.0465    9.8750 C.3       3 GLC5        0.0000 
     58 CA         12.3230    5.8250    8.2610 C.3       9 GLL5        0.0000 
     59 CA          9.9390    4.2680   11.4890 C.3       6 GLP5        0.0000 
     60 CA          7.0935    0.5670    2.8980 C.3       3 GLC5        0.0000 
     61 CA          6.4400    2.6170    2.9750 C.3       9 GLL5        0.0000 
     62 CA          7.7470   -1.4830    2.8210 C.3       6 GLP5        0.0000 
     63 O           7.1790    2.1280    5.0875 O.2       1 ALC1        0.0000 
     64 O           7.4550    3.0520    3.9930 O.2       7 ALL1        0.0000 
     65 O           6.9030    1.2040    6.1820 O.2       4 ALP1        0.0000 
     66 O           8.3980    1.7510    4.0375 O.2       1 ALC1        0.0000 
     67 O           9.3410    0.4500    4.0820 O.2       4 ALP1        0.0000 
     68 O          27.6160    8.4270    3.9585 O.2       1 ALC1        0.0000 
     69 O          27.1300    8.3730    2.5860 O.2       7 ALL1        0.0000 
     70 O          28.1020    8.4810    5.3310 O.2       4 ALP1        0.0000 
     71 O           6.1230    1.0935    5.1135 O.2       1 ALC1        0.0000 
     72 O           5.3430    0.9830    4.0450 O.2       7 ALL1        0.0000 
     73 CA         21.9990   11.2245    2.1745 C.3       3 GLC5        0.0000 
     74 CA         20.3560    9.8190    2.3720 C.3       9 GLL5        0.0000 
     75 CA         21.3280    8.3660    3.9855 C.3       3 GLC5        0.0000 
     76 CA         21.7210    7.0090    5.5330 C.3       6 GLP5        0.0000 
     77 CA         20.4420    8.3540    1.5325 C.3       3 GLC5        0.0000 
     78 CA         21.5140    9.6270    2.5040 C.3       9 GLL5        0.0000 
     79 CA         19.5747   12.1080    3.2628 C.3       3 GLC5        0.0000 
     80 CA         18.4510   11.2980    1.6760 C.3       9 GLL5        0.0000 
     81 CA         20.2270   12.4010    5.1620 C.3       6 GLP5        0.0000 
     82 CA         15.5950   12.6223    1.9935 C.3       3 GLC5        0.0000 
     83 CA         16.1480   10.5620    2.2220 C.3       9 GLL5        0.0000 
     84 CA         14.5900   14.2030    2.0520 C.3       6 GLP5        0.0000 
     85 CA         19.4666   10.2307    4.1126 C.3       3 GLC5        0.0000 
     86 CA         18.0830    9.1540    2.8590 C.3       9 GLL5        0.0000 
     87 CA         20.0640   10.9050    5.6280 C.3       6 GLP5        0.0000 
     88 CA         14.9047    8.0880    6.0128 C.3       3 GLC5        0.0000 
     89 CA         13.2325    5.7210    3.3922 C.3       3 GLC5        0.0000 
     90 CA         11.5158    8.8145    2.6614 C.3       3 GLC5        0.0000 
     91 CA         11.0980   10.2760    1.2790 C.3       6 GLP5        0.0000 
     92 CA         11.7413    9.2907    4.6825 C.3       3 GLC5        0.0000 
     93 CA         11.0810    7.0100    4.2800 C.3       9 GLL5        0.0000 
     94 CA         11.8840   11.2230    5.4390 C.3       6 GLP5        0.0000 
     95 CA         12.4540    5.1935    3.9312 C.3       3 GLC5        0.0000 
     96 CA         13.4608    5.1680    4.2982 C.3       3 GLC5        0.0000 
     97 CA         12.7320    6.2390    5.9830 C.3       9 GLL5        0.0000 
     98 CA          9.2865    7.3022    5.9929 C.3       3 GLC5        0.0000 
     99 CA         10.4160    6.9000    7.5883 C.3       3 GLC5        0.0000 
    100 CA         10.2130    5.5360    6.2040 C.3       9 GLL5        0.0000 
    101 CA         10.0370    7.8960    9.3290 C.3       6 GLP5        0.0000 
    102 CA         23.1185   11.1590    2.6075 C.3       3 GLC5        0.0000 
    103 CA         22.8630    9.4620    2.7170 C.3       9 GLL5        0.0000 
    104 CA         22.4475    8.3005    4.4185 C.3       3 GLC5        0.0000 
    105 CA         21.2040   10.2572    4.2660 C.3       3 GLC5        0.0000 
    106 CA         15.5955   11.0111    3.8037 C.3       3 GLC5        0.0000 
    107 CA         16.6700    9.3530    2.8380 C.3       9 GLL5        0.0000 
    108 CA         14.5560   11.8250    5.2210 C.3       6 GLP5        0.0000 
    109 CA         17.7454   12.2834   -0.3633 C.3       3 GLC5        0.0000 
    110 CA         16.9180   12.6960   -2.0830 C.3       6 GLP5        0.0000 
    111 CA         11.3795    6.7717    8.5445 C.3       3 GLC5        0.0000 
    112 CA         13.1210    5.4700    7.2590 C.3       9 GLL5        0.0000 
    113 CA         15.3934    4.9075    6.6707 C.3       3 GLC5        0.0000 
    114 CA         13.6789    4.9940    9.4964 C.3       3 GLC5        0.0000 
    115 CA         14.3390    4.4490   11.1620 C.3       6 GLP5        0.0000 
@<TRIPOS>BOND
@<TRIPOS>SUBSTRUCTURE
     1 ALC1       41 GROUP        1 X    ALC  0     ROOT ALC X 1
     2 SEC2       38 GROUP        1 X    SEC  0     **** SEC X 2
     3 GLC5        1 GROUP        1 X    GLC  0     **** GLC X 6
     4 ALP1       43 GROUP        1 Y    ALP  0     ROOT ALP Y 8
     5 SEP2       40 GROUP        1 Y    SEP  0     **** SEP Y 9
     6 GLP5        3 GROUP        1 Y    GLP  0     **** GLP Y 13
     7 ALL1       42 GROUP        1 Z    ALL  0     ROOT ALL Z 15
     8 SEL2       39 GROUP        1 Z    SEL  0     **** SEL Z 16
     9 GLL5        2 GROUP        1 Z    GLL  0     **** GLL Z 20
@<TRIPOS>SET

