#    Name: 3oy3_XY3_1_ligand
#    Modification time : Tue Mar 25 05:39:11 2014

@<TRIPOS>MOLECULE
3oy3_XY3_1_ligand
   74    77     1     0     0
SMALL
NO_CHARGES


@<TRIPOS>ATOM
      1 N1         24.8300    9.5410    3.7640 N.pl3     1 XY31        0.0000 
      2 N3          9.2620    4.9440    5.3110 N.3       1 XY31        0.0000 
      3 C4         20.3560    9.8190    2.3720 C.1       1 XY31        0.0000 
      4 C5         18.9550   10.0990    2.2990 C.ar      1 XY31        0.0000 
      5 C6         18.4510   11.2980    1.6760 C.ar      1 XY31        0.0000 
      6 C7         17.0520   11.5210    1.6480 C.ar      1 XY31        0.0000 
      7 C8         16.1480   10.5620    2.2220 C.ar      1 XY31        0.0000 
      8 C10        18.0830    9.1540    2.8590 C.ar      1 XY31        0.0000 
      9 C13        13.4560    7.6850    4.0430 C.ar      1 XY31        0.0000 
     10 C15        11.0810    7.0100    4.2800 C.ar      1 XY31        0.0000 
     11 C17        12.7320    6.2390    5.9830 C.ar      1 XY31        0.0000 
     12 C20        10.2130    5.5360    6.2040 C.3       1 XY31        0.0000 
     13 C21         9.8130    3.9040    4.3850 C.3       1 XY31        0.0000 
     14 C22         8.7300    3.5040    3.3360 C.3       1 XY31        0.0000 
     15 C24         8.0450    4.4480    6.0100 C.3       1 XY31        0.0000 
     16 C26        23.4610    8.4620    0.5800 C.3       1 XY31        0.0000 
     17 C81        26.2290    8.4960    1.9470 C.2       1 XY31        0.0000 
     18 O2         26.2580    8.1960    0.6080 O.2       1 XY31        0.0000 
     19 N82        23.7740    9.0310    1.8000 N.pl3     1 XY31        0.0000 
     20 C84        25.0210    9.0120    2.5520 C.2       1 XY31        0.0000 
     21 C1         23.4850    9.7220    3.8910 C.2       1 XY31        0.0000 
     22 C2         22.8630    9.4620    2.7170 C.2       1 XY31        0.0000 
     23 C3         21.5140    9.6270    2.5040 C.1       1 XY31        0.0000 
     24 C9         16.6700    9.3530    2.8380 C.ar      1 XY31        0.0000 
     25 C11        19.3940   12.3320    1.0510 C.3       1 XY31        0.0000 
     26 C12        15.8070    8.2880    3.4620 C.2       1 XY31        0.0000 
     27 O1         16.3510    7.3650    4.1180 O.2       1 XY31        0.0000 
     28 N2         14.4590    8.3940    3.2930 N.am      1 XY31        0.0000 
     29 C14        12.1160    7.7070    3.5720 C.ar      1 XY31        0.0000 
     30 C16        11.3770    6.2720    5.4910 C.ar      1 XY31        0.0000 
     31 C18        13.7530    6.9410    5.2560 C.ar      1 XY31        0.0000 
     32 C19        13.1210    5.4700    7.2590 C.3       1 XY31        0.0000 
     33 F1         13.0280    4.1700    7.0270 F         1 XY31        0.0000 
     34 F2         14.3550    5.6860    7.6580 F         1 XY31        0.0000 
     35 F3         12.3230    5.8250    8.2610 F         1 XY31        0.0000 
     36 C23         6.9510    4.0860    4.9680 C.3       1 XY31        0.0000 
     37 C25         6.4400    2.6170    2.9750 C.3       1 XY31        0.0000 
     38 N4          7.4550    3.0520    3.9930 N.4       1 XY31        0.0000 
     39 N5         27.1300    8.3730    2.5860 N.am      1 XY31        0.0000 
     40 C27         5.3990    2.3950    3.4020 C.3       1 XY31        0.0000 
     41 O3          5.3430    0.9830    4.0450 O.3       1 XY31        0.0000 
     42 H          25.4878    9.7541    4.4174 H         1 XY31        0.0000 
     43 H          16.6745   12.3659    1.2192 H         1 XY31        0.0000 
     44 H          15.1518   10.7210    2.2011 H         1 XY31        0.0000 
     45 H          18.4570    8.3012    3.2939 H         1 XY31        0.0000 
     46 H          10.1252    7.0306    3.9322 H         1 XY31        0.0000 
     47 H          10.6740    4.7751    6.8707 H         1 XY31        0.0000 
     48 H           9.7312    6.2754    6.8802 H         1 XY31        0.0000 
     49 H          10.0940    3.0130    4.9357 H         1 XY31        0.0000 
     50 H          10.6749    4.2874    3.8500 H         1 XY31        0.0000 
     51 H           9.1399    2.7036    2.7157 H         1 XY31        0.0000 
     52 H           8.5402    4.3710    2.6991 H         1 XY31        0.0000 
     53 H           7.6431    5.2111    6.6702 H         1 XY31        0.0000 
     54 H           8.2700    3.5558    6.5871 H         1 XY31        0.0000 
     55 H          23.0396    9.9991    4.7121 H         1 XY31        0.0000 
     56 H          14.0834    9.0553    2.5437 H         1 XY31        0.0000 
     57 H          11.8811    8.2216    2.7227 H         1 XY31        0.0000 
     58 H          14.7182    6.9211    5.5956 H         1 XY31        0.0000 
     59 H           6.6690    4.9947    4.4383 H         1 XY31        0.0000 
     60 H           6.0821    3.7051    5.5025 H         1 XY31        0.0000 
     61 H           6.9802    1.7525    2.4199 H         1 XY31        0.0000 
     62 H           6.5142    3.4426    2.1624 H         1 XY31        0.0000 
     63 H           7.7228    2.1417    4.5977 H         1 XY31        0.0000 
     64 H          27.0162    8.5945    3.5545 H         1 XY31        0.0000 
     65 H          27.9573    8.0541    2.1235 H         1 XY31        0.0000 
     66 H           4.5065    2.3715    2.6856 H         1 XY31        0.0000 
     67 H           4.9980    3.0609    4.2423 H         1 XY31        0.0000 
     68 H          24.0442    8.8114   -0.1533 H         1 XY31        0.0000 
     69 H          23.5718    7.4683    0.5943 H         1 XY31        0.0000 
     70 H          22.5147    8.6476    0.3155 H         1 XY31        0.0000 
     71 H          20.0297   12.7097    1.7242 H         1 XY31        0.0000 
     72 H          19.9456   11.9358    0.3170 H         1 XY31        0.0000 
     73 H          18.8922   13.1022    0.6574 H         1 XY31        0.0000 
     74 H           5.4473    1.1416    5.0269 H         1 XY31        0.0000 
@<TRIPOS>BOND
     1   20    1 2    
     2   21    1 1    
     3   42    1 1    
     4   12    2 1    
     5   13    2 1    
     6   15    2 1    
     7    4    3 1    
     8   23    3 3    
     9    5    4 ar   
    10    8    4 ar   
    11    6    5 ar   
    12   25    5 1    
    13    7    6 ar   
    14   43    6 1    
    15   24    7 ar   
    16   44    7 1    
    17   24    8 ar   
    18   45    8 1    
    19   28    9 1    
    20   29    9 ar   
    21   31    9 ar   
    22   29   10 ar   
    23   30   10 ar   
    24   46   10 1    
    25   30   11 ar   
    26   31   11 ar   
    27   32   11 1    
    28   30   12 1    
    29   47   12 1    
    30   48   12 1    
    31   14   13 1    
    32   49   13 1    
    33   50   13 1    
    34   38   14 1    
    35   51   14 1    
    36   52   14 1    
    37   36   15 1    
    38   53   15 1    
    39   54   15 1    
    40   19   16 1    
    41   68   16 1    
    42   69   16 1    
    43   70   16 1    
    44   18   17 2    
    45   20   17 1    
    46   39   17 am   
    47   20   19 1    
    48   22   19 1    
    49   22   21 2    
    50   55   21 1    
    51   23   22 1    
    52   26   24 1    
    53   71   25 1    
    54   72   25 1    
    55   73   25 1    
    56   27   26 2    
    57   28   26 am   
    58   56   28 1    
    59   57   29 1    
    60   58   31 1    
    61   33   32 1    
    62   34   32 1    
    63   35   32 1    
    64   38   36 1    
    65   59   36 1    
    66   60   36 1    
    67   38   37 1    
    68   40   37 1    
    69   61   37 1    
    70   62   37 1    
    71   63   38 1    
    72   64   39 1    
    73   65   39 1    
    74   41   40 1    
    75   66   40 1    
    76   67   40 1    
    77   74   41 1    
@<TRIPOS>SUBSTRUCTURE
     1 XY31        1 GROUP   
@<TRIPOS>SET

