#    Name: 4lxm_1YU_2_INTS_M
#    Modification time : Tue Mar 25 11:38:01 2014

@<TRIPOS>MOLECULE
4lxm_1YU_2_INTS_M
   73     0     6     0     0
SMALL
NO_CHARGES


@<TRIPOS>ATOM
      1 CA         18.7100    0.9475  -13.9925 C.3       2 GLC5        0.0000 
      2 CA         17.6300    1.1590  -15.8210 C.3       6 GLL5        0.0000 
      3 CA         19.7900    0.7360  -12.1640 C.3       4 GLP5        0.0000 
      4 CA         15.9570    0.6310  -14.8660 C.3       2 GLC5        0.0000 
      5 CA         14.2840    0.1030  -13.9110 C.3       4 GLP5        0.0000 
      6 CA         13.3500    6.8760  -19.7225 C.3       2 GLC5        0.0000 
      7 CA         14.0240    6.4270  -17.9110 C.3       6 GLL5        0.0000 
      8 CA         12.6760    7.3250  -21.5340 C.3       4 GLP5        0.0000 
      9 CA         14.8605    9.1145  -16.6190 C.3       2 GLC5        0.0000 
     10 CA         15.9130    8.2020  -17.9900 C.3       6 GLL5        0.0000 
     11 CA         13.8080   10.0270  -15.2480 C.3       4 GLP5        0.0000 
     12 CA         17.9805    8.3090  -17.2785 C.3       2 GLC5        0.0000 
     13 CA         20.0480    8.4160  -16.5670 C.3       4 GLP5        0.0000 
     14 CA         18.0150   11.4940  -19.8360 C.3       2 GLC5        0.0000 
     15 CA         16.9820    9.5440  -20.0110 C.3       6 GLL5        0.0000 
     16 CA         19.0480   13.4440  -19.6610 C.3       4 GLP5        0.0000 
     17 CA         14.9165    9.4705  -20.0470 C.3       2 GLC5        0.0000 
     18 CA         12.8510    9.3970  -20.0830 C.3       4 GLP5        0.0000 
     19 CA         17.0195    6.8430  -23.4585 C.3       2 GLC5        0.0000 
     20 CA         18.0170    8.3350  -22.1030 C.3       6 GLL5        0.0000 
     21 CA         16.0220    5.3510  -24.8140 C.3       4 GLP5        0.0000 
     22 CA         17.7270   13.0420  -24.0615 C.3       2 GLC5        0.0000 
     23 CA         17.8150   11.2340  -23.4630 C.3       6 GLL5        0.0000 
     24 CA         17.6390   14.8500  -24.6600 C.3       4 GLP5        0.0000 
     25 CA         19.6555   12.0805  -23.8010 C.3       2 GLC5        0.0000 
     26 CA         21.4960   12.9270  -24.1390 C.3       4 GLP5        0.0000 
     27 CA         13.8755   16.4855  -23.5695 C.3       2 GLC5        0.0000 
     28 CA         13.6290   14.5330  -23.4390 C.3       6 GLL5        0.0000 
     29 CA         14.1220   18.4380  -23.7000 C.3       4 GLP5        0.0000 
     30 CA         15.6340   14.6915  -24.0495 C.3       2 GLC5        0.0000 
     31 CA         10.5075   12.4115  -22.3945 C.3       2 GLC5        0.0000 
     32 CA         11.6480   13.1530  -24.1370 C.3       6 GLL5        0.0000 
     33 CA          9.3670   11.6700  -20.6520 C.3       4 GLP5        0.0000 
     34 CA         13.6050   13.1910  -20.3875 C.3       2 GLC5        0.0000 
     35 CA         12.6830   12.7710  -21.8880 C.3       6 GLL5        0.0000 
     36 CA         14.5270   13.6110  -18.8870 C.3       4 GLP5        0.0000 
     37 CA         11.0250   12.2205  -21.2700 C.3       2 GLC5        0.0000 
     38 CA         12.5385   11.4945  -20.4725 C.3       2 GLC5        0.0000 
     39 CA         12.3940   10.2180  -19.0570 C.3       4 GLP5        0.0000 
     40 O          17.3010   10.9640  -18.4205 O.2       1 ALC1        0.0000 
     41 O          16.2180   10.7330  -19.7270 O.2       5 ALL1        0.0000 
     42 O          18.3840   11.1950  -17.1140 O.2       3 ALP1        0.0000 
     43 O          16.2185   11.1500  -18.4380 O.2       1 ALC1        0.0000 
     44 O          16.2190   11.5670  -17.1490 O.2       3 ALP1        0.0000 
     45 CA         11.6815    6.3285  -18.7805 C.3       2 GLC5        0.0000 
     46 CA         12.3350    4.7560  -17.8450 C.3       6 GLL5        0.0000 
     47 CA         11.0280    7.9010  -19.7160 C.3       4 GLP5        0.0000 
     48 CA         11.1525    3.9040  -19.3980 C.3       2 GLC5        0.0000 
     49 CA          9.9700    3.0520  -20.9510 C.3       4 GLP5        0.0000 
     50 CA         11.2275    5.3400  -17.0475 C.3       2 GLC5        0.0000 
     51 CA         10.1200    5.9240  -16.2500 C.3       4 GLP5        0.0000 
     52 O          12.6685    2.7625  -15.7685 O.2       1 ALC1        0.0000 
     53 O          13.9590    3.0530  -16.4000 O.2       5 ALL1        0.0000 
     54 O          11.3780    2.4720  -15.1370 O.2       3 ALP1        0.0000 
     55 CA         18.1625    4.9925  -12.8085 C.3       2 GLC5        0.0000 
     56 CA         18.3560    3.1140  -13.8640 C.3       6 GLL5        0.0000 
     57 CA         17.9690    6.8710  -11.7530 C.3       4 GLP5        0.0000 
     58 CA         16.4445    3.5625  -13.0640 C.3       2 GLC5        0.0000 
     59 CA         14.5330    4.0110  -12.2640 C.3       4 GLP5        0.0000 
     60 CA         18.3825    5.9945  -13.1945 C.3       2 GLC5        0.0000 
     61 CA         18.7960    5.1180  -14.6360 C.3       6 GLL5        0.0000 
     62 CA         19.4220    6.7670  -15.6015 C.3       2 GLC5        0.0000 
     63 CA         14.2447    8.3305  -16.4925 C.3       2 GLC5        0.0000 
     64 CA         15.3390    6.8410  -17.5630 C.3       6 GLL5        0.0000 
     65 CA         15.9088    6.7254  -15.2699 C.3       2 GLC5        0.0000 
     66 CA         16.1780    7.3610  -13.4500 C.3       4 GLP5        0.0000 
     67 CA         14.4695    8.8098  -19.4195 C.3       2 GLC5        0.0000 
     68 CA         13.1837    9.1725  -24.0497 C.3       2 GLC5        0.0000 
     69 CA         13.7040   11.0690  -24.9230 C.3       6 GLL5        0.0000 
     70 CA         12.1880    7.7380  -22.9270 C.3       4 GLP5        0.0000 
     71 CA         19.3435    2.0519  -13.3206 C.3       2 GLC5        0.0000 
     72 CA         19.7657    4.3169  -13.1368 C.3       2 GLC5        0.0000 
     73 CA         20.6850    4.3910  -11.7170 C.3       4 GLP5        0.0000 
@<TRIPOS>BOND
@<TRIPOS>SUBSTRUCTURE
     1 ALC1       40 GROUP        1 X    ALC  0     ROOT ALC X 1
     2 GLC5        1 GROUP        1 X    GLC  0     **** GLC X 6
     3 ALP1       42 GROUP        1 Y    ALP  0     ROOT ALP Y 8
     4 GLP5        3 GROUP        1 Y    GLP  0     **** GLP Y 13
     5 ALL1       41 GROUP        1 Z    ALL  0     ROOT ALL Z 15
     6 GLL5        2 GROUP        1 Z    GLL  0     **** GLL Z 20
@<TRIPOS>SET

