#    Name: 4lxm_1YU_2_ligand
#    Modification time : Tue Mar 25 11:38:01 2014

@<TRIPOS>MOLECULE
4lxm_1YU_2_ligand
   69    71     1     0     0
SMALL
NO_CHARGES


@<TRIPOS>ATOM
      1 F1         19.1400    1.8470  -17.3080 F         1 1YU501      0.0000 
      2 C2         17.9190    2.0940  -16.7610 C.3       1 1YU501      0.0000 
      3 F3         16.9970    1.9810  -17.7490 F         1 1YU501      0.0000 
      4 F4         17.6300    1.1590  -15.8210 F         1 1YU501      0.0000 
      5 C5         17.8630    3.5280  -16.1570 C.3       1 1YU501      0.0000 
      6 O7         16.5290    3.8320  -15.6950 O.3       1 1YU501      0.0000 
      7 C8         15.7110    4.6990  -16.4200 C.ar      1 1YU501      0.0000 
      8 C9         14.4020    4.2780  -16.7700 C.ar      1 1YU501      0.0000 
      9 C10        13.5620    5.1480  -17.5140 C.ar      1 1YU501      0.0000 
     10 C11        14.0240    6.4270  -17.9110 C.ar      1 1YU501      0.0000 
     11 C13        15.3390    6.8410  -17.5630 C.ar      1 1YU501      0.0000 
     12 C14        16.1690    5.9780  -16.8130 C.ar      1 1YU501      0.0000 
     13 C16        15.9130    8.2020  -17.9900 C.3       1 1YU501      0.0000 
     14 C19        16.2630    8.2430  -19.5220 C.3       1 1YU501      0.0000 
     15 C21        16.9820    9.5440  -20.0110 C.3       1 1YU501      0.0000 
     16 C23        17.2370    9.5690  -21.5520 C.3       1 1YU501      0.0000 
     17 C25        18.0170    8.3350  -22.1030 C.3       1 1YU501      0.0000 
     18 S28        17.0890    6.8460  -21.7390 S.o       1 1YU501      0.0000 
     19 C29        17.0760    6.9770  -19.9590 C.3       1 1YU501      0.0000 
     20 O32        17.9790    5.6920  -22.0990 O.2       1 1YU501      0.0000 
     21 N33        17.8340   10.8530  -22.0190 N.3       1 1YU501      0.0000 
     22 C35        17.8150   11.2340  -23.4630 C.3       1 1YU501      0.0000 
     23 C38        16.3710   11.1550  -24.0010 C.ar      1 1YU501      0.0000 
     24 C39        15.4000   12.0690  -23.5190 C.ar      1 1YU501      0.0000 
     25 C41        14.0450   12.0610  -23.9560 C.ar      1 1YU501      0.0000 
     26 C42        13.7040   11.0690  -24.9230 C.ar      1 1YU501      0.0000 
     27 C44        14.6550   10.1450  -25.4220 C.ar      1 1YU501      0.0000 
     28 C46        15.9950   10.1860  -24.9610 C.ar      1 1YU501      0.0000 
     29 C48        13.0190   13.0990  -23.3800 C.3       1 1YU501      0.0000 
     30 C49        13.6290   14.5330  -23.4390 C.3       1 1YU501      0.0000 
     31 C53        11.6480   13.1530  -24.1370 C.3       1 1YU501      0.0000 
     32 C57        12.6830   12.7710  -21.8880 C.3       1 1YU501      0.0000 
     33 O61        16.2180   10.7330  -19.7270 O.3       1 1YU501      0.0000 
     34 F63        12.3350    4.7560  -17.8450 F         1 1YU501      0.0000 
     35 N64        13.9590    3.0530  -16.4000 N.pl3     1 1YU501      0.0000 
     36 C67        18.7970    3.7960  -14.9490 C.3       1 1YU501      0.0000 
     37 F68        20.0790    3.4470  -15.2320 F         1 1YU501      0.0000 
     38 F69        18.3560    3.1140  -13.8640 F         1 1YU501      0.0000 
     39 F70        18.7960    5.1180  -14.6360 F         1 1YU501      0.0000 
     40 H          18.1361    4.2404  -16.9403 H         1 1YU501      0.0000 
     41 H          13.4195    7.0481  -18.4427 H         1 1YU501      0.0000 
     42 H          17.1125    6.2814  -16.5508 H         1 1YU501      0.0000 
     43 H          16.8219    8.4079  -17.4273 H         1 1YU501      0.0000 
     44 H          15.1855    8.9856  -17.7857 H         1 1YU501      0.0000 
     45 H          15.2968    8.1841  -20.0753 H         1 1YU501      0.0000 
     46 H          17.9539    9.6010  -19.5320 H         1 1YU501      0.0000 
     47 H          16.2061    9.5021  -22.0269 H         1 1YU501      0.0000 
     48 H          18.9344    8.1803  -21.6081 H         1 1YU501      0.0000 
     49 H          18.0831    8.3327  -23.1547 H         1 1YU501      0.0000 
     50 H          16.6191    6.0771  -19.6443 H         1 1YU501      0.0000 
     51 H          18.0997    7.0488  -19.7050 H         1 1YU501      0.0000 
     52 H          18.4354   10.5566  -24.0424 H         1 1YU501      0.0000 
     53 H          18.1749   12.2505  -23.5920 H         1 1YU501      0.0000 
     54 H          15.6879   12.7775  -22.8151 H         1 1YU501      0.0000 
     55 H          12.7310   11.0265  -25.2679 H         1 1YU501      0.0000 
     56 H          14.3757    9.4494  -26.1136 H         1 1YU501      0.0000 
     57 H          16.6785    9.5247  -25.3177 H         1 1YU501      0.0000 
     58 H          13.4619    3.0081  -15.5334 H         1 1YU501      0.0000 
     59 H          14.1681    2.3018  -17.0261 H         1 1YU501      0.0000 
     60 H          14.4743   14.5991  -22.9088 H         1 1YU501      0.0000 
     61 H          13.8487   14.8049  -24.3759 H         1 1YU501      0.0000 
     62 H          12.9999   15.2195  -23.0745 H         1 1YU501      0.0000 
     63 H          11.7646   13.3982  -25.0994 H         1 1YU501      0.0000 
     64 H          11.1762   12.2716  -24.1141 H         1 1YU501      0.0000 
     65 H          11.0285   13.8276  -23.7356 H         1 1YU501      0.0000 
     66 H          13.4986   12.7946  -21.3098 H         1 1YU501      0.0000 
     67 H          12.0311   13.4237  -21.5020 H         1 1YU501      0.0000 
     68 H          12.2801   11.8611  -21.7894 H         1 1YU501      0.0000 
     69 H          16.3230   10.8791  -18.7433 H         1 1YU501      0.0000 
@<TRIPOS>BOND
     1    2    1 1    
     2    3    2 1    
     3    4    2 1    
     4    5    2 1    
     5    6    5 1    
     6   36    5 1    
     7   40    5 1    
     8    7    6 1    
     9    8    7 ar   
    10   12    7 ar   
    11    9    8 ar   
    12   35    8 1    
    13   10    9 ar   
    14   34    9 1    
    15   11   10 ar   
    16   41   10 1    
    17   12   11 ar   
    18   13   11 1    
    19   42   12 1    
    20   14   13 1    
    21   43   13 1    
    22   44   13 1    
    23   15   14 1    
    24   19   14 1    
    25   45   14 1    
    26   16   15 1    
    27   33   15 1    
    28   46   15 1    
    29   17   16 1    
    30   21   16 1    
    31   47   16 1    
    32   18   17 1    
    33   48   17 1    
    34   49   17 1    
    35   19   18 1    
    36   20   18 2    
    37   50   19 1    
    38   51   19 1    
    39   22   21 1    
    40   23   22 1    
    41   52   22 1    
    42   53   22 1    
    43   24   23 ar   
    44   28   23 ar   
    45   25   24 ar   
    46   54   24 1    
    47   26   25 ar   
    48   29   25 1    
    49   27   26 ar   
    50   55   26 1    
    51   28   27 ar   
    52   56   27 1    
    53   57   28 1    
    54   30   29 1    
    55   31   29 1    
    56   32   29 1    
    57   60   30 1    
    58   61   30 1    
    59   62   30 1    
    60   63   31 1    
    61   64   31 1    
    62   65   31 1    
    63   66   32 1    
    64   67   32 1    
    65   68   32 1    
    66   69   33 1    
    67   58   35 1    
    68   59   35 1    
    69   37   36 1    
    70   38   36 1    
    71   39   36 1    
@<TRIPOS>SUBSTRUCTURE
     1 1YU501      1 GROUP   
@<TRIPOS>SET

