#    Name: 2cmk_CDP_1_INTS_M
#    Modification time : Tue Mar 25 01:08:31 2014

@<TRIPOS>MOLECULE
2cmk_CDP_1_INTS_M
   65     0    12     0     0
SMALL
NO_CHARGES


@<TRIPOS>ATOM
      1 NZ         62.9265   54.5140   23.7575 N.4       3 LYC4        0.0000 
      2 NZ         63.2230   54.7240   25.0160 N.4      11 LYL4        0.0000 
      3 NZ         62.8420   54.6320   21.2330 N.4       7 LYP4        0.0000 
      4 N          64.0410   53.9275   25.6630 N.am      2 SEC2        0.0000 
      5 N          63.2230   54.7240   25.0160 N.am     10 SEL2        0.0000 
      6 N          64.8590   53.1310   26.3100 N.am      6 SEP2        0.0000 
      7 N          62.9265   54.5140   23.7575 N.am      2 SEC2        0.0000 
      8 N          62.6300   54.3040   22.4990 N.am      6 SEP2        0.0000 
      9 N          63.3565   53.8460   26.8175 N.am      2 SEC2        0.0000 
     10 N          61.8540   54.5610   27.3250 N.am     10 SEL2        0.0000 
     11 N          60.9335   56.9960   26.8070 N.am      2 SEC2        0.0000 
     12 N          61.3600   56.6450   25.6960 N.am     10 SEL2        0.0000 
     13 N          60.5070   57.3470   27.9180 N.am      6 SEP2        0.0000 
     14 NZ         62.5915   56.4410   22.0535 N.4       3 LYC4        0.0000 
     15 NZ         62.1510   56.9780   23.1910 N.4      11 LYL4        0.0000 
     16 N          62.5915   56.4410   22.0535 N.am      2 SEC2        0.0000 
     17 N          62.1510   56.9780   23.1910 N.am     10 SEL2        0.0000 
     18 N          63.0320   55.9040   20.9160 N.am      6 SEP2        0.0000 
     19 N          62.3905   55.6410   22.8450 N.am      2 SEC2        0.0000 
     20 NZ         60.2190   59.0010   25.6770 N.4       3 LYC4        0.0000 
     21 NZ         61.1690   58.9710   24.4120 N.4      11 LYL4        0.0000 
     22 NZ         59.6050   58.3160   28.0180 N.4       7 LYP4        0.0000 
     23 N          60.2190   59.0010   25.6770 N.am      2 SEC2        0.0000 
     24 N          61.1690   58.9710   24.4120 N.am     10 SEL2        0.0000 
     25 N          59.2690   59.0310   26.9420 N.am      6 SEP2        0.0000 
     26 N          61.7300   60.0485   24.5090 N.am      2 SEC2        0.0000 
     27 N          62.2910   61.1260   24.6060 N.am      6 SEP2        0.0000 
     28 CA         56.2705   55.8720   24.4105 C.3       4 GLC5        0.0000 
     29 CA         57.9010   55.5260   23.2430 C.3      12 GLL5        0.0000 
     30 CA         54.6400   56.2180   25.5780 C.3       8 GLP5        0.0000 
     31 CA         60.3170   54.5330   19.8450 C.3       4 GLC5        0.0000 
     32 CA         58.9850   54.4200   21.3950 C.3      12 GLL5        0.0000 
     33 CA         61.6490   54.6460   18.2950 C.3       8 GLP5        0.0000 
     34 N          57.9825   52.5515   19.4735 N.am      2 SEC2        0.0000 
     35 N          58.8550   53.2380   20.6410 N.am     10 SEL2        0.0000 
     36 N          57.1100   51.8650   18.3060 N.am      6 SEP2        0.0000 
     37 O          59.5615   52.1105   20.5735 O.2       1 ALC1        0.0000 
     38 O          58.8550   53.2380   20.6410 O.2       9 ALL1        0.0000 
     39 O          60.2680   50.9830   20.5060 O.2       5 ALP1        0.0000 
     40 CA         56.0840   54.8340   20.4130 C.3       4 GLC5        0.0000 
     41 CA         57.9650   55.4180   20.9270 C.3      12 GLL5        0.0000 
     42 CA         54.2030   54.2500   19.8990 C.3       8 GLP5        0.0000 
     43 N          56.4435   54.7965   17.2005 N.am      2 SEC2        0.0000 
     44 N          57.4520   54.9030   18.1980 N.am     10 SEL2        0.0000 
     45 N          55.4350   54.6900   16.2030 N.am      6 SEP2        0.0000 
     46 N          57.2810   53.3840   18.2520 N.am      2 SEC2        0.0000 
     47 N          57.9160   53.6545   17.3340 N.am      2 SEC2        0.0000 
     48 N          58.3800   52.4060   16.4700 N.am      6 SEP2        0.0000 
     49 N          57.6485   56.3240   16.1355 N.am      2 SEC2        0.0000 
     50 N          58.5760   56.6160   17.4130 N.am     10 SEL2        0.0000 
     51 N          56.7210   56.0320   14.8580 N.am      6 SEP2        0.0000 
     52 O          60.0715   59.5780   17.1795 O.2       1 ALC1        0.0000 
     53 O          59.7570   58.4310   16.6030 O.2       9 ALL1        0.0000 
     54 O          60.3860   60.7250   17.7560 O.2       5 ALP1        0.0000 
     55 O          59.5425   58.0205   15.1780 O.2       1 ALC1        0.0000 
     56 O          59.3280   57.6100   13.7530 O.2       5 ALP1        0.0000 
     57 CA         59.7440   60.0335   18.2530 C.3       4 GLC5        0.0000 
     58 CA         59.6800   58.0540   18.9430 C.3      12 GLL5        0.0000 
     59 CA         59.8080   62.0130   17.5630 C.3       8 GLP5        0.0000 
     60 CA         61.4735   58.6515   18.1485 C.3       4 GLC5        0.0000 
     61 CA         63.2670   59.2490   17.3540 C.3       8 GLP5        0.0000 
     62 CA         59.4200   59.0435   20.6685 C.3       4 GLC5        0.0000 
     63 CA         59.2240   57.2660   19.9670 C.3      12 GLL5        0.0000 
     64 CA         59.3880   60.4270   21.8820 C.3       8 GLP5        0.0000 
     65 CA         60.5505   56.1530   18.8750 C.3       4 GLC5        0.0000 
@<TRIPOS>BOND
@<TRIPOS>SUBSTRUCTURE
     1 ALC1       37 GROUP        1 X    ALC  0     ROOT ALC X 1
     2 SEC2        4 GROUP        1 X    SEC  0     **** SEC X 2
     3 LYC4        1 GROUP        1 X    LYC  0     **** LYC X 4
     4 GLC5       28 GROUP        1 X    GLC  0     **** GLC X 6
     5 ALP1       39 GROUP        1 Y    ALP  0     ROOT ALP Y 8
     6 SEP2        6 GROUP        1 Y    SEP  0     **** SEP Y 9
     7 LYP4        3 GROUP        1 Y    LYP  0     **** LYP Y 11
     8 GLP5       30 GROUP        1 Y    GLP  0     **** GLP Y 13
     9 ALL1       38 GROUP        1 Z    ALL  0     ROOT ALL Z 15
    10 SEL2        5 GROUP        1 Z    SEL  0     **** SEL Z 16
    11 LYL4        2 GROUP        1 Z    LYL  0     **** LYL Z 18
    12 GLL5       29 GROUP        1 Z    GLL  0     **** GLL Z 20
@<TRIPOS>SET

