#    Name: 2cmk_CDP_1_ligand
#    Modification time : Tue Mar 25 01:08:31 2014

@<TRIPOS>MOLECULE
2cmk_CDP_1_ligand
   37    38     1     0     0
SMALL
NO_CHARGES


@<TRIPOS>ATOM
      1 O3B        63.2230   54.7240   25.0160 O.co2     1 CDP407      0.0000 
      2 PB         61.7650   54.9800   25.7810 P.3       1 CDP407      0.0000 
      3 O1B        60.6790   54.0610   25.0720 O.co2     1 CDP407      0.0000 
      4 O2B        61.8540   54.5610   27.3250 O.co2     1 CDP407      0.0000 
      5 O3A        61.3600   56.6450   25.6960 O.3       1 CDP407      0.0000 
      6 PA         61.1180   57.4410   24.2320 P.3       1 CDP407      0.0000 
      7 O1A        62.1510   56.9780   23.1910 O.co2     1 CDP407      0.0000 
      8 O2A        61.1690   58.9710   24.4120 O.co2     1 CDP407      0.0000 
      9 O5'        59.6280   57.1620   23.6080 O.3       1 CDP407      0.0000 
     10 C5'        58.9130   56.0870   24.1540 C.3       1 CDP407      0.0000 
     11 C4'        57.9010   55.5260   23.2430 C.3       1 CDP407      0.0000 
     12 O4'        57.7560   56.2580   22.0340 O.3       1 CDP407      0.0000 
     13 C3'        58.6640   54.2530   22.8520 C.3       1 CDP407      0.0000 
     14 O3'        57.7760   53.1780   23.0860 O.3       1 CDP407      0.0000 
     15 C2'        58.9850   54.4200   21.3950 C.3       1 CDP407      0.0000 
     16 O2'        58.8550   53.2380   20.6410 O.3       1 CDP407      0.0000 
     17 C1'        57.9650   55.4180   20.9270 C.3       1 CDP407      0.0000 
     18 N1         58.4740   56.1940   19.7830 N.am      1 CDP407      0.0000 
     19 C2         58.1580   55.8840   18.4720 C.2       1 CDP407      0.0000 
     20 O2         57.4520   54.9030   18.1980 O.2       1 CDP407      0.0000 
     21 N3         58.5760   56.6160   17.4130 N.2       1 CDP407      0.0000 
     22 C4         59.3400   57.7030   17.6410 C.2       1 CDP407      0.0000 
     23 N4         59.7570   58.4310   16.6030 N.pl3     1 CDP407      0.0000 
     24 C5         59.6800   58.0540   18.9430 C.2       1 CDP407      0.0000 
     25 C6         59.2240   57.2660   19.9670 C.2       1 CDP407      0.0000 
     26 H          58.3994   56.3876   25.1046 H         1 CDP407      0.0000 
     27 H          59.6045   55.2591   24.4608 H         1 CDP407      0.0000 
     28 H          57.0495   55.2511   23.7255 H         1 CDP407      0.0000 
     29 H          59.5432   54.2151   23.4233 H         1 CDP407      0.0000 
     30 H          59.9478   54.8800   21.3070 H         1 CDP407      0.0000 
     31 H          57.0742   54.8914   20.6635 H         1 CDP407      0.0000 
     32 H          59.9147   57.9322   15.7507 H         1 CDP407      0.0000 
     33 H          59.8744   59.4097   16.7708 H         1 CDP407      0.0000 
     34 H          60.2538   58.8777   19.1209 H         1 CDP407      0.0000 
     35 H          59.5003   57.5502   20.9578 H         1 CDP407      0.0000 
     36 H          57.8938   52.5697   22.3011 H         1 CDP407      0.0000 
     37 H          59.6088   52.6543   20.9430 H         1 CDP407      0.0000 
@<TRIPOS>BOND
     1    2    1 ar   
     2    3    2 ar   
     3    4    2 ar   
     4    5    2 1    
     5    6    5 1    
     6    7    6 ar   
     7    8    6 ar   
     8    9    6 1    
     9   10    9 1    
    10   11   10 1    
    11   26   10 1    
    12   27   10 1    
    13   12   11 1    
    14   13   11 1    
    15   28   11 1    
    16   17   12 1    
    17   14   13 1    
    18   15   13 1    
    19   29   13 1    
    20   36   14 1    
    21   16   15 1    
    22   17   15 1    
    23   30   15 1    
    24   37   16 1    
    25   18   17 1    
    26   31   17 1    
    27   19   18 am   
    28   25   18 1    
    29   20   19 2    
    30   21   19 1    
    31   22   21 2    
    32   23   22 1    
    33   24   22 1    
    34   32   23 1    
    35   33   23 1    
    36   25   24 2    
    37   34   24 1    
    38   35   25 1    
@<TRIPOS>SUBSTRUCTURE
     1 CDP407      1 GROUP   
@<TRIPOS>SET

