#    Name: 4ha5_13W_2_INTS_M
#    Modification time : Tue Mar 25 00:44:52 2014

@<TRIPOS>MOLECULE
4ha5_13W_2_INTS_M
   41     0     9     0     0
SMALL
NO_CHARGES


@<TRIPOS>ATOM
      1 CA         14.4945   32.6460   51.4265 C.3       3 GLC5        0.0000 
      2 CA         15.0210   33.7920   53.0510 C.3       9 GLL5        0.0000 
      3 CA         13.9680   31.5000   49.8020 C.3       6 GLP5        0.0000 
      4 CA         12.2525   34.6725   53.7405 C.3       3 GLC5        0.0000 
      5 CA         14.3130   34.3110   54.1640 C.3       9 GLL5        0.0000 
      6 CA         10.1920   35.0340   53.3170 C.3       6 GLP5        0.0000 
      7 CA         16.7585   36.0950   57.0530 C.3       3 GLC5        0.0000 
      8 CA         16.4510   34.7260   55.2990 C.3       9 GLL5        0.0000 
      9 CA         17.0660   37.4640   58.8070 C.3       6 GLP5        0.0000 
     10 OD1        20.2560   37.4525   58.8635 O.co2     2 ASC3        0.0000 
     11 OD1        20.9480   35.2720   58.3060 O.co2     8 ASL3        0.0000 
     12 OD1        20.1070   38.8030   58.5200 O.co2     5 ASP3        0.0000 
     13 OD1        21.4000   37.1205   56.9595 O.co2     2 ASC3        0.0000 
     14 OD1        21.3650   38.4510   56.7900 O.co2     5 ASP3        0.0000 
     15 OD1        20.0020   35.9625   60.5000 O.co2     2 ASC3        0.0000 
     16 OD1        19.5990   35.8230   61.7930 O.co2     5 ASP3        0.0000 
     17 O          21.4000   37.1205   56.9595 O.2       1 ALC1        0.0000 
     18 O          21.4350   35.7900   57.1290 O.2       7 ALL1        0.0000 
     19 O          21.3650   38.4510   56.7900 O.2       4 ALP1        0.0000 
     20 O          20.2560   37.4525   58.8635 O.2       1 ALC1        0.0000 
     21 O          20.4050   36.1020   59.2070 O.2       7 ALL1        0.0000 
     22 O          20.1070   38.8030   58.5200 O.2       4 ALP1        0.0000 
     23 O          20.0020   35.9625   60.5000 O.2       1 ALC1        0.0000 
     24 O          19.5990   35.8230   61.7930 O.2       4 ALP1        0.0000 
     25 CA         23.7540   37.2125   56.2555 C.3       3 GLC5        0.0000 
     26 CA         22.9750   35.7920   55.2180 C.3       9 GLL5        0.0000 
     27 CA         24.5330   38.6330   57.2930 C.3       6 GLP5        0.0000 
     28 CA         15.7085   36.3860   57.6180 C.3       3 GLC5        0.0000 
     29 CA         14.3510   35.3080   56.4290 C.3       9 GLL5        0.0000 
     30 CA         16.5222   36.4955   54.5625 C.3       3 GLC5        0.0000 
     31 CA         15.0400   34.7760   55.2850 C.3       9 GLL5        0.0000 
     32 CA         17.2990   38.2400   53.8330 C.3       6 GLP5        0.0000 
     33 CA         17.9936   36.3379   54.2919 C.3       3 GLC5        0.0000 
     34 CA         17.1870   34.2090   54.1900 C.3       9 GLL5        0.0000 
     35 CA         20.5170   36.4593   54.4705 C.3       3 GLC5        0.0000 
     36 CA         19.4450   34.6880   55.2930 C.3       9 GLL5        0.0000 
     37 CA         20.9000   38.3200   53.7460 C.3       6 GLP5        0.0000 
     38 CA         21.6848   36.8445   54.6848 C.3       3 GLC5        0.0000 
     39 CA         21.9640   34.9460   56.0290 C.3       9 GLL5        0.0000 
     40 CA         13.2109   36.4069   55.3529 C.3       3 GLC5        0.0000 
     41 CA         11.9080   37.8880   55.1290 C.3       6 GLP5        0.0000 
@<TRIPOS>BOND
@<TRIPOS>SUBSTRUCTURE
     1 ALC1       17 GROUP        1 X    ALC  0     ROOT ALC X 1
     2 ASC3       10 GROUP        1 X    ASC  0     **** ASC X 3
     3 GLC5        1 GROUP        1 X    GLC  0     **** GLC X 6
     4 ALP1       19 GROUP        1 Y    ALP  0     ROOT ALP Y 8
     5 ASP3       12 GROUP        1 Y    ASP  0     **** ASP Y 10
     6 GLP5        3 GROUP        1 Y    GLP  0     **** GLP Y 13
     7 ALL1       18 GROUP        1 Z    ALL  0     ROOT ALL Z 15
     8 ASL3       11 GROUP        1 Z    ASL  0     **** ASL Z 17
     9 GLL5        2 GROUP        1 Z    GLL  0     **** GLL Z 20
@<TRIPOS>SET

