#    Name: 4ha5_13W_2_ligand
#    Modification time : Tue Mar 25 00:44:52 2014

@<TRIPOS>MOLECULE
4ha5_13W_2_ligand
   40    42     1     0     0
SMALL
NO_CHARGES


@<TRIPOS>ATOM
      1 C1         15.0210   33.7920   53.0510 C.ar      1 13W503      0.0000 
      2 C2         14.3130   34.3110   54.1640 C.ar      1 13W503      0.0000 
      3 C3         15.0400   34.7760   55.2850 C.ar      1 13W503      0.0000 
      4 C4         16.4510   34.7260   55.2990 C.ar      1 13W503      0.0000 
      5 C5         17.1870   34.2090   54.1900 C.ar      1 13W503      0.0000 
      6 C6         16.4400   33.7400   53.0610 C.ar      1 13W503      0.0000 
      7 C7         18.6760   34.1580   54.2270 C.2       1 13W503      0.0000 
      8 C8         19.4450   34.6880   55.2930 C.2       1 13W503      0.0000 
      9 C9         20.8230   34.5090   55.0970 C.2       1 13W503      0.0000 
     10 S1         21.1290   33.7060   53.6350 S.3       1 13W503      0.0000 
     11 C10        19.4880   33.5810   53.2340 C.2       1 13W503      0.0000 
     12 C11        21.9640   34.9460   56.0290 C.3       1 13W503      0.0000 
     13 C12        22.6510   33.6890   56.6160 C.3       1 13W503      0.0000 
     14 C13        21.8530   33.0460   57.7820 C.2       1 13W503      0.0000 
     15 N1         21.0320   33.9000   58.5310 N.am      1 13W503      0.0000 
     16 C14        20.9480   35.2720   58.3060 C.cat     1 13W503      0.0000 
     17 N2         21.4350   35.7900   57.1290 N.pl3     1 13W503      0.0000 
     18 N3         20.4050   36.1020   59.2070 N.pl3     1 13W503      0.0000 
     19 C15        22.9750   35.7920   55.2180 C.3       1 13W503      0.0000 
     20 C16        20.2350   33.2390   59.6050 C.3       1 13W503      0.0000 
     21 O1         21.9570   31.8420   58.0030 O.2       1 13W503      0.0000 
     22 C17        14.3510   35.3080   56.4290 C.1       1 13W503      0.0000 
     23 N4         13.8180   35.7430   57.3670 N.1       1 13W503      0.0000 
     24 H          14.5075   33.4525   52.2350 H         1 13W503      0.0000 
     25 H          13.3006   34.3479   54.1556 H         1 13W503      0.0000 
     26 H          16.9653   35.0672   56.1213 H         1 13W503      0.0000 
     27 H          16.9416   33.3630   52.2526 H         1 13W503      0.0000 
     28 H          19.0565   35.1231   56.0660 H         1 13W503      0.0000 
     29 H          19.3041   33.1641   52.4377 H         1 13W503      0.0000 
     30 H          23.6450   33.9650   56.9800 H         1 13W503      0.0000 
     31 H          22.7723   32.9471   55.8214 H         1 13W503      0.0000 
     32 H          21.4526   36.8149   56.9587 H         1 13W503      0.0000 
     33 H          20.3425   37.0632   58.9383 H         1 13W503      0.0000 
     34 H          20.1108   35.6859   60.0674 H         1 13W503      0.0000 
     35 H          23.7411   36.0978   55.7833 H         1 13W503      0.0000 
     36 H          23.3622   35.2762   54.4538 H         1 13W503      0.0000 
     37 H          22.5495   36.6110   54.8331 H         1 13W503      0.0000 
     38 H          20.8208   32.7824   60.2746 H         1 13W503      0.0000 
     39 H          19.6722   33.8955   60.1073 H         1 13W503      0.0000 
     40 H          19.6168   32.5454   59.2352 H         1 13W503      0.0000 
@<TRIPOS>BOND
     1    2    1 ar   
     2    6    1 ar   
     3   24    1 1    
     4    3    2 ar   
     5   25    2 1    
     6    4    3 ar   
     7   22    3 1    
     8    5    4 ar   
     9   26    4 1    
    10    6    5 ar   
    11    7    5 1    
    12   27    6 1    
    13    8    7 1    
    14   11    7 2    
    15    9    8 2    
    16   28    8 1    
    17   10    9 1    
    18   12    9 1    
    19   11   10 1    
    20   29   11 1    
    21   13   12 1    
    22   17   12 1    
    23   19   12 1    
    24   14   13 1    
    25   30   13 1    
    26   31   13 1    
    27   15   14 am   
    28   21   14 2    
    29   16   15 ar   
    30   20   15 1    
    31   17   16 ar   
    32   18   16 ar   
    33   32   17 1    
    34   33   18 1    
    35   34   18 1    
    36   35   19 1    
    37   36   19 1    
    38   37   19 1    
    39   38   20 1    
    40   39   20 1    
    41   40   20 1    
    42   23   22 3    
@<TRIPOS>SUBSTRUCTURE
     1 13W503      1 GROUP   
@<TRIPOS>SET

