#    Name: 2i62_SAH_3_INTS_M
#    Modification time : Tue Mar 25 17:30:12 2014

@<TRIPOS>MOLECULE
2i62_SAH_3_INTS_M
   85     0     9     0     0
SMALL
NO_CHARGES


@<TRIPOS>ATOM
      1 O           6.0790   -9.2545   43.9250 O.2       1 ALC1        0.0000 
      2 O           4.9920   -8.6490   43.5140 O.2       7 ALL1        0.0000 
      3 O           7.1660   -9.8600   44.3360 O.2       4 ALP1        0.0000 
      4 O           5.2270   -7.5825   44.2745 O.2       1 ALC1        0.0000 
      5 O           5.4620   -6.5160   45.0350 O.2       4 ALP1        0.0000 
      6 O           4.8915   -7.1845   42.8360 O.2       1 ALC1        0.0000 
      7 O           4.7910   -5.7200   42.1580 O.2       4 ALP1        0.0000 
      8 CA          5.4780  -10.1735   42.7635 C.3       3 GLC5        0.0000 
      9 CA          3.6720   -9.3350   43.7620 C.3       9 GLL5        0.0000 
     10 CA          7.2840  -11.0120   41.7650 C.3       6 GLP5        0.0000 
     11 CA          2.0915  -10.2765   42.6050 C.3       3 GLC5        0.0000 
     12 CA          0.5110  -11.2180   41.4480 C.3       6 GLP5        0.0000 
     13 CA          1.7675  -10.9260   45.0970 C.3       3 GLC5        0.0000 
     14 CA          3.6560  -10.1860   45.0580 C.3       9 GLL5        0.0000 
     15 CA         -0.1210  -11.6660   45.1360 C.3       6 GLP5        0.0000 
     16 CA          3.3040   -7.6105   46.6905 C.3       3 GLC5        0.0000 
     17 CA          3.5990   -9.5150   46.4500 C.3       9 GLL5        0.0000 
     18 CA          3.0090   -5.7060   46.9310 C.3       6 GLP5        0.0000 
     19 CA          2.3280  -12.5120   47.9570 C.3       3 GLC5        0.0000 
     20 CA          3.1330  -10.5750   47.8960 C.3       9 GLL5        0.0000 
     21 CA          1.5230  -14.4490   48.0180 C.3       6 GLP5        0.0000 
     22 N           2.1095   -6.1560   42.7070 N.am      2 SEC2        0.0000 
     23 N           2.7590   -7.1480   43.3670 N.am      8 SEL2        0.0000 
     24 N           1.4600   -5.1640   42.0470 N.am      5 SEP2        0.0000 
     25 N           3.7750   -6.4340   42.7625 N.am      2 SEC2        0.0000 
     26 N           4.7910   -5.7200   42.1580 N.am      5 SEP2        0.0000 
     27 N           0.8040   -9.0875   44.9980 N.am      2 SEC2        0.0000 
     28 N           1.3860   -8.6620   43.8910 N.am      8 SEL2        0.0000 
     29 N           0.2220   -9.5130   46.1050 N.am      5 SEP2        0.0000 
     30 CA          6.1090   -8.9015   48.6180 C.3       3 GLC5        0.0000 
     31 CA          4.7550  -10.6530   48.7270 C.3       9 GLL5        0.0000 
     32 CA          7.4630   -7.1500   48.5090 C.3       6 GLP5        0.0000 
     33 CA          5.1525   -9.7930   50.7285 C.3       3 GLC5        0.0000 
     34 CA          5.5500   -8.9330   52.7300 C.3       6 GLP5        0.0000 
     35 CA          5.1440  -13.5125   49.9345 C.3       3 GLC5        0.0000 
     36 CA          5.5060  -12.9740   47.9370 C.3       9 GLL5        0.0000 
     37 CA          4.7820  -14.0510   51.9320 C.3       6 GLP5        0.0000 
     38 CA          3.6750  -13.6590   48.6520 C.3       3 GLC5        0.0000 
     39 CA          1.8440  -14.3440   49.3670 C.3       6 GLP5        0.0000 
     40 CA          5.2715  -13.2255   45.7555 C.3       3 GLC5        0.0000 
     41 CA          5.0370  -13.4770   43.5740 C.3       6 GLP5        0.0000 
     42 O           6.7450  -13.4045   45.9440 O.2       1 ALC1        0.0000 
     43 O           5.5940  -13.3520   46.5720 O.2       7 ALL1        0.0000 
     44 O           7.8960  -13.4570   45.3160 O.2       4 ALP1        0.0000 
     45 CA          5.9470  -14.4505   50.2605 C.3       3 GLC5        0.0000 
     46 CA          6.5880  -13.5950   48.8110 C.3       9 GLL5        0.0000 
     47 CA          5.3060  -15.3060   51.7100 C.3       6 GLP5        0.0000 
     48 N           7.0930  -16.2600   48.7685 N.am      2 SEC2        0.0000 
     49 N           7.0040  -14.9140   48.5210 N.am      8 SEL2        0.0000 
     50 N           7.1820  -17.6060   49.0160 N.am      5 SEP2        0.0000 
     51 O           7.3675  -15.2750   47.1255 O.2       1 ALC1        0.0000 
     52 O           7.0040  -14.9140   48.5210 O.2       7 ALL1        0.0000 
     53 O           7.7310  -15.6360   45.7300 O.2       4 ALP1        0.0000 
     54 CA          8.7400  -10.6535   48.2885 C.3       3 GLC5        0.0000 
     55 CA          7.7140  -12.6190   48.5800 C.3       9 GLL5        0.0000 
     56 CA          9.7660   -8.6880   47.9970 C.3       6 GLP5        0.0000 
     57 CA         14.0210  -13.0035   49.8185 C.3       3 GLC5        0.0000 
     58 CA         12.1280  -12.4810   50.7750 C.3       9 GLL5        0.0000 
     59 CA         15.9140  -13.5260   48.8620 C.3       6 GLP5        0.0000 
     60 CA         13.0335  -10.6075   50.6480 C.3       3 GLC5        0.0000 
     61 CA         13.9390   -8.7340   50.5210 C.3       6 GLP5        0.0000 
     62 O          14.3370  -12.8795   51.7420 O.2       1 ALC1        0.0000 
     63 O          12.8410  -12.5390   51.9090 O.2       7 ALL1        0.0000 
     64 O          15.8330  -13.2200   51.5750 O.2       4 ALP1        0.0000 
     65 N          14.1930  -11.7425   49.4090 N.am      2 SEC2        0.0000 
     66 N          12.8310  -12.3080   49.6280 N.am      8 SEL2        0.0000 
     67 N          15.5550  -11.1770   49.1900 N.am      5 SEP2        0.0000 
     68 CA         11.7930  -14.0045   48.6150 C.3       3 GLC5        0.0000 
     69 CA         12.2000  -12.2330   48.4060 C.3       9 GLL5        0.0000 
     70 CA         11.3860  -15.7760   48.8240 C.3       6 GLP5        0.0000 
     71 CA         12.8275  -12.5090   46.6265 C.3       3 GLC5        0.0000 
     72 CA         13.4550  -12.7850   44.8470 C.3       6 GLP5        0.0000 
     73 CA         14.0570  -12.8795   48.6340 C.3       3 GLC5        0.0000 
     74 CA         13.0060  -10.7240   48.2505 C.3       3 GLC5        0.0000 
     75 CA         13.8120   -9.2150   48.0950 C.3       6 GLP5        0.0000 
     76 CA         10.9830  -10.4605   48.2015 C.3       3 GLC5        0.0000 
     77 CA          9.9290  -10.6085   48.7180 C.3       3 GLC5        0.0000 
     78 CA         10.0920  -12.5290   49.4390 C.3       9 GLL5        0.0000 
     79 CA          4.3505  -11.6188   43.9920 C.3       3 GLC5        0.0000 
     80 CA          1.5120  -10.4065   46.6735 C.3       3 GLC5        0.0000 
     81 CA         -0.3420  -10.7680   46.1740 C.3       6 GLP5        0.0000 
     82 CA         11.0728  -14.1546   49.4549 C.3       3 GLC5        0.0000 
     83 CA         10.7260  -12.5940   50.6900 C.3       9 GLL5        0.0000 
     84 CA         10.7468  -10.9061   51.2399 C.3       3 GLC5        0.0000 
     85 CA         10.7340   -9.2790   52.3940 C.3       6 GLP5        0.0000 
@<TRIPOS>BOND
@<TRIPOS>SUBSTRUCTURE
     1 ALC1        1 GROUP        1 X    ALC  0     ROOT ALC X 1
     2 SEC2       22 GROUP        1 X    SEC  0     **** SEC X 2
     3 GLC5        8 GROUP        1 X    GLC  0     **** GLC X 6
     4 ALP1        3 GROUP        1 Y    ALP  0     ROOT ALP Y 8
     5 SEP2       24 GROUP        1 Y    SEP  0     **** SEP Y 9
     6 GLP5       10 GROUP        1 Y    GLP  0     **** GLP Y 13
     7 ALL1        2 GROUP        1 Z    ALL  0     ROOT ALL Z 15
     8 SEL2       23 GROUP        1 Z    SEL  0     **** SEL Z 16
     9 GLL5        9 GROUP        1 Z    GLL  0     **** GLL Z 20
@<TRIPOS>SET

