#    Name: 2i62_SAH_3_ligand
#    Modification time : Tue Mar 25 17:30:13 2014

@<TRIPOS>MOLECULE
2i62_SAH_3_ligand
   46    48     1     0     0
SMALL
NO_CHARGES


@<TRIPOS>ATOM
      1 N           4.9920   -8.6490   43.5140 N.4       1 SAH4003     0.0000 
      2 CA          3.6720   -9.3350   43.7620 C.3       1 SAH4003     0.0000 
      3 CB          3.6560  -10.1860   45.0580 C.3       1 SAH4003     0.0000 
      4 CG          3.5990   -9.5150   46.4500 C.3       1 SAH4003     0.0000 
      5 SD          3.1330  -10.5750   47.8960 S.3       1 SAH4003     0.0000 
      6 C           2.5430   -8.3280   43.6730 C.2       1 SAH4003     0.0000 
      7 O           2.7590   -7.1480   43.3670 O.co2     1 SAH4003     0.0000 
      8 OXT         1.3860   -8.6620   43.8910 O.co2     1 SAH4003     0.0000 
      9 C5'         4.7550  -10.6530   48.7270 C.3       1 SAH4003     0.0000 
     10 C4'         5.8050  -11.4790   47.9800 C.3       1 SAH4003     0.0000 
     11 O4'         7.0640  -11.3540   48.6150 O.3       1 SAH4003     0.0000 
     12 C3'         5.5060  -12.9740   47.9370 C.3       1 SAH4003     0.0000 
     13 O3'         5.5940  -13.3520   46.5720 O.3       1 SAH4003     0.0000 
     14 C2'         6.5880  -13.5950   48.8110 C.3       1 SAH4003     0.0000 
     15 O2'         7.0040  -14.9140   48.5210 O.3       1 SAH4003     0.0000 
     16 C1'         7.7140  -12.6190   48.5800 C.3       1 SAH4003     0.0000 
     17 N9          8.7370  -12.6730   49.6360 N.pl3     1 SAH4003     0.0000 
     18 C8          8.5350  -12.8050   50.9900 C.2       1 SAH4003     0.0000 
     19 N7          9.7430  -12.7620   51.6020 N.2       1 SAH4003     0.0000 
     20 C5         10.7260  -12.5940   50.6900 C.ar      1 SAH4003     0.0000 
     21 C6         12.1280  -12.4810   50.7750 C.ar      1 SAH4003     0.0000 
     22 N6         12.8410  -12.5390   51.9090 N.pl3     1 SAH4003     0.0000 
     23 N1         12.8310  -12.3080   49.6280 N.ar      1 SAH4003     0.0000 
     24 C2         12.2000  -12.2330   48.4060 C.ar      1 SAH4003     0.0000 
     25 N3         10.8310  -12.3370   48.3170 N.ar      1 SAH4003     0.0000 
     26 C4         10.0920  -12.5290   49.4390 C.ar      1 SAH4003     0.0000 
     27 H           3.5229  -10.0543   42.9108 H         1 SAH4003     0.0000 
     28 H           4.5603  -10.8643   45.0360 H         1 SAH4003     0.0000 
     29 H           2.7896  -10.9088   44.9849 H         1 SAH4003     0.0000 
     30 H           2.8535   -8.7215   46.5139 H         1 SAH4003     0.0000 
     31 H           4.5611   -9.1169   46.7743 H         1 SAH4003     0.0000 
     32 H           4.4947  -11.0601   49.6915 H         1 SAH4003     0.0000 
     33 H           5.0131   -9.6094   48.8159 H         1 SAH4003     0.0000 
     34 H           5.8656  -11.1231   46.9571 H         1 SAH4003     0.0000 
     35 H           4.5623  -13.1284   48.3690 H         1 SAH4003     0.0000 
     36 H           6.2827  -13.4508   49.8442 H         1 SAH4003     0.0000 
     37 H           8.1316  -12.7999   47.6191 H         1 SAH4003     0.0000 
     38 H           7.6832  -12.9087   51.4150 H         1 SAH4003     0.0000 
     39 H          13.8350  -12.5000   51.8063 H         1 SAH4003     0.0000 
     40 H          12.3150  -12.6162   52.7560 H         1 SAH4003     0.0000 
     41 H          12.7626  -12.0969   47.5454 H         1 SAH4003     0.0000 
     42 H           4.9759   -8.1047   42.6752 H         1 SAH4003     0.0000 
     43 H           5.2347   -8.0296   44.2606 H         1 SAH4003     0.0000 
     44 H           5.7406   -9.3058   43.4230 H         1 SAH4003     0.0000 
     45 H           6.5717  -13.3391   46.3625 H         1 SAH4003     0.0000 
     46 H           7.1723  -14.9213   47.5353 H         1 SAH4003     0.0000 
@<TRIPOS>BOND
     1    2    1 1    
     2   42    1 1    
     3   43    1 1    
     4   44    1 1    
     5    3    2 1    
     6    6    2 1    
     7   27    2 1    
     8    4    3 1    
     9   28    3 1    
    10   29    3 1    
    11    5    4 1    
    12   30    4 1    
    13   31    4 1    
    14    9    5 1    
    15    7    6 ar   
    16    8    6 ar   
    17   10    9 1    
    18   32    9 1    
    19   33    9 1    
    20   11   10 1    
    21   12   10 1    
    22   34   10 1    
    23   16   11 1    
    24   13   12 1    
    25   14   12 1    
    26   35   12 1    
    27   45   13 1    
    28   15   14 1    
    29   16   14 1    
    30   36   14 1    
    31   46   15 1    
    32   17   16 1    
    33   37   16 1    
    34   18   17 1    
    35   26   17 1    
    36   19   18 2    
    37   38   18 1    
    38   20   19 1    
    39   21   20 ar   
    40   26   20 ar   
    41   22   21 1    
    42   23   21 ar   
    43   39   22 1    
    44   40   22 1    
    45   24   23 ar   
    46   25   24 ar   
    47   41   24 1    
    48   26   25 ar   
@<TRIPOS>SUBSTRUCTURE
     1 SAH4003     1 GROUP   
@<TRIPOS>SET

