#    Name: 3hxf_BD9_1_INTS_M
#    Modification time : Tue Mar 25 15:20:38 2014

@<TRIPOS>MOLECULE
3hxf_BD9_1_INTS_M
   90     0     6     0     0
SMALL
NO_CHARGES


@<TRIPOS>ATOM
      1 CA          2.5260   28.4940   20.0385 C.3       2 GLC5        0.0000 
      2 CA          2.8970   26.9640   18.8130 C.3       6 GLL5        0.0000 
      3 CA          2.1550   30.0240   21.2640 C.3       4 GLP5        0.0000 
      4 CA          3.1550   25.0305   18.9380 C.3       2 GLC5        0.0000 
      5 CA          3.4130   23.0970   19.0630 C.3       4 GLP5        0.0000 
      6 CA          1.7265   25.9955   19.7670 C.3       2 GLC5        0.0000 
      7 CA          0.5560   25.0270   20.7210 C.3       4 GLP5        0.0000 
      8 CA          2.6530   29.3655   19.1000 C.3       2 GLC5        0.0000 
      9 CA          3.6960   27.9520   17.9640 C.3       6 GLL5        0.0000 
     10 CA          1.6100   30.7790   20.2360 C.3       4 GLP5        0.0000 
     11 CA          5.1255   26.2945   16.3590 C.3       2 GLC5        0.0000 
     12 CA          5.2210   27.7460   17.8900 C.3       6 GLL5        0.0000 
     13 CA          5.0300   24.8430   14.8280 C.3       4 GLP5        0.0000 
     14 CA          6.0385   25.4995   16.6375 C.3       2 GLC5        0.0000 
     15 CA          7.0470   26.1560   18.4470 C.3       6 GLL5        0.0000 
     16 CA          9.7805   26.9615   19.4275 C.3       2 GLC5        0.0000 
     17 CA          8.1550   25.8360   19.4540 C.3       6 GLL5        0.0000 
     18 CA         11.4060   28.0870   19.4010 C.3       4 GLP5        0.0000 
     19 CA          9.9275   22.9540   19.2115 C.3       2 GLC5        0.0000 
     20 CA          8.3420   24.3310   19.6690 C.3       6 GLL5        0.0000 
     21 CA         11.5130   21.5770   18.7540 C.3       4 GLP5        0.0000 
     22 CA          9.3175   21.5075   19.8975 C.3       2 GLC5        0.0000 
     23 CA          7.4760   22.0300   19.5710 C.3       6 GLL5        0.0000 
     24 CA         11.1590   20.9850   20.2240 C.3       4 GLP5        0.0000 
     25 CA          6.6910   19.5985   17.5940 C.3       2 GLC5        0.0000 
     26 CA          6.7990   21.0000   18.6930 C.3       6 GLL5        0.0000 
     27 CA          6.5830   18.1970   16.4950 C.3       4 GLP5        0.0000 
     28 CA          5.2600   22.0150   18.1935 C.3       2 GLC5        0.0000 
     29 CA          3.7210   23.0300   17.6940 C.3       4 GLP5        0.0000 
     30 CA          3.5730   19.7025   19.7835 C.3       2 GLC5        0.0000 
     31 CA          4.6480   18.5100   20.6890 C.3       6 GLL5        0.0000 
     32 CA          2.4980   20.8950   18.8780 C.3       4 GLP5        0.0000 
     33 CA          6.1675   15.8995   18.9940 C.3       2 GLC5        0.0000 
     34 CA          5.0300   17.0380   20.5230 C.3       6 GLL5        0.0000 
     35 CA          7.3050   14.7610   17.4650 C.3       4 GLP5        0.0000 
     36 CA          5.8065   17.6175   18.5090 C.3       2 GLC5        0.0000 
     37 CA          3.7635   16.0240   19.3135 C.3       2 GLC5        0.0000 
     38 CA          2.4970   15.0100   18.1040 C.3       4 GLP5        0.0000 
     39 CA          3.4085   17.9700   19.3255 C.3       2 GLC5        0.0000 
     40 CA          1.7870   18.9020   18.1280 C.3       4 GLP5        0.0000 
     41 CA          1.4930   16.9350   21.5895 C.3       2 GLC5        0.0000 
     42 CA          3.0030   15.9700   21.7050 C.3       6 GLL5        0.0000 
     43 CA         -0.0170   17.9000   21.4740 C.3       4 GLP5        0.0000 
     44 CA          3.4055   20.4140   23.9950 C.3       2 GLC5        0.0000 
     45 CA          4.9870   19.3410   24.5450 C.3       6 GLL5        0.0000 
     46 CA          1.8240   21.4870   23.4450 C.3       4 GLP5        0.0000 
     47 CA          1.2295   17.8670   23.0545 C.3       2 GLC5        0.0000 
     48 CA          2.4760   17.8340   24.6350 C.3       6 GLL5        0.0000 
     49 N           3.1730   27.3515   23.1190 N.am      1 SEC2        0.0000 
     50 N           4.2680   27.4980   22.1840 N.am      5 SEL2        0.0000 
     51 N           2.0780   27.2050   24.0540 N.am      3 SEP2        0.0000 
     52 CA          8.9340   25.8500   23.2260 C.3       2 GLC5        0.0000 
     53 CA          6.9660   25.6920   23.8770 C.3       6 GLL5        0.0000 
     54 CA         10.9020   26.0080   22.5750 C.3       4 GLP5        0.0000 
     55 CA          6.6360   25.8720   29.3135 C.3       2 GLC5        0.0000 
     56 CA          6.9560   25.1650   27.9560 C.3       6 GLL5        0.0000 
     57 CA          6.3160   26.5790   30.6710 C.3       4 GLP5        0.0000 
     58 CA          6.1215   27.0100   27.2160 C.3       2 GLC5        0.0000 
     59 CA          5.2870   28.8550   26.4760 C.3       4 GLP5        0.0000 
     60 CA          4.9450   25.3470   27.5660 C.3       2 GLC5        0.0000 
     61 CA          2.9340   25.5290   27.1760 C.3       4 GLP5        0.0000 
     62 CA          8.0050   26.9195   28.0220 C.3       2 GLC5        0.0000 
     63 CA          9.0540   28.6740   28.0880 C.3       4 GLP5        0.0000 
     64 CA         10.4110   24.7155   25.9870 C.3       2 GLC5        0.0000 
     65 CA          9.0040   23.8820   27.0950 C.3       6 GLL5        0.0000 
     66 CA         11.8180   25.5490   24.8790 C.3       4 GLP5        0.0000 
     67 CA          9.0225   23.3930   30.4520 C.3       2 GLC5        0.0000 
     68 CA          9.3750   23.2370   28.4820 C.3       6 GLL5        0.0000 
     69 CA          8.6700   23.5490   32.4220 C.3       4 GLP5        0.0000 
     70 N           7.2605   21.8730   31.0845 N.am      1 SEC2        0.0000 
     71 N           7.6140   21.8400   29.5720 N.am      5 SEL2        0.0000 
     72 N           6.9070   21.9060   32.5970 N.am      3 SEP2        0.0000 
     73 CA          1.8168   28.0530   17.3008 C.3       2 GLC5        0.0000 
     74 CA          0.3370   28.6480   16.2130 C.3       4 GLP5        0.0000 
     75 CA          7.0005   28.9057   18.4198 C.3       2 GLC5        0.0000 
     76 CA          8.4360   30.4460   18.3850 C.3       4 GLP5        0.0000 
     77 CA          7.0140   27.3594   16.7874 C.3       2 GLC5        0.0000 
     78 CA          7.7220   27.9580   15.1240 C.3       4 GLP5        0.0000 
     79 CA          9.5753   25.5457   21.0682 C.3       2 GLC5        0.0000 
     80 CA          8.5228   23.4430   17.7138 C.3       2 GLC5        0.0000 
     81 CA          9.2880   22.9900   15.9680 C.3       4 GLP5        0.0000 
     82 CA          5.3688   22.9213   19.2368 C.3       2 GLC5        0.0000 
     83 CA          7.1730   23.4610   19.2500 C.3       6 GLL5        0.0000 
     84 CA          8.2127   22.2525   17.5500 C.3       2 GLC5        0.0000 
     85 CA          5.9300   27.5365   25.0635 C.3       2 GLC5        0.0000 
     86 CA          9.5860   20.7490   30.0517 C.3       2 GLC5        0.0000 
     87 CA          8.6160   21.9370   28.6570 C.3       6 GLL5        0.0000 
     88 CA         10.4130   20.0880   31.8540 C.3       4 GLP5        0.0000 
     89 CA          8.8496   20.1382   30.4723 C.3       2 GLC5        0.0000 
     90 CA          6.9010   20.7240   29.7340 C.3       6 GLL5        0.0000 
@<TRIPOS>BOND
@<TRIPOS>SUBSTRUCTURE
     1 SEC2       49 GROUP        1 X    SEC  0     ROOT SEC X 2
     2 GLC5        1 GROUP        1 X    GLC  0     **** GLC X 6
     3 SEP2       51 GROUP        1 Y    SEP  0     ROOT SEP Y 9
     4 GLP5        3 GROUP        1 Y    GLP  0     **** GLP Y 13
     5 SEL2       50 GROUP        1 Z    SEL  0     ROOT SEL Z 16
     6 GLL5        2 GROUP        1 Z    GLL  0     **** GLL Z 20
@<TRIPOS>SET

