#    Name: 3hxf_BD9_1_ligand
#    Modification time : Tue Mar 25 15:20:38 2014

@<TRIPOS>MOLECULE
3hxf_BD9_1_ligand
  108   111     1     0     0
SMALL
NO_CHARGES


@<TRIPOS>ATOM
      1 C11         2.8970   26.9640   18.8130 C.3       1 BD9334      0.0000 
      2 C10         3.6960   27.9520   17.9640 C.3       1 BD9334      0.0000 
      3 C9          5.2210   27.7460   17.8900 C.3       1 BD9334      0.0000 
      4 C1          5.9090   26.9850   19.0190 C.3       1 BD9334      0.0000 
      5 C2          7.0470   26.1560   18.4470 C.3       1 BD9334      0.0000 
      6 C3          8.1550   25.8360   19.4540 C.3       1 BD9334      0.0000 
      7 C4          8.3420   24.3310   19.6690 C.3       1 BD9334      0.0000 
      8 C5          7.1730   23.4610   19.2500 C.3       1 BD9334      0.0000 
      9 C6          7.4760   22.0300   19.5710 C.3       1 BD9334      0.0000 
     10 C7          6.7990   21.0000   18.6930 C.3       1 BD9334      0.0000 
     11 C8          6.4830   19.8710   19.6820 C.2       1 BD9334      0.0000 
     12 O1          7.4220   19.3920   20.3200 O.2       1 BD9334      0.0000 
     13 N1          5.2080   19.4950   19.7660 N.am      1 BD9334      0.0000 
     14 C12         4.6480   18.5100   20.6890 C.3       1 BD9334      0.0000 
     15 C27         5.0300   17.0380   20.5230 C.3       1 BD9334      0.0000 
     16 C28         4.3120   16.0890   21.5210 C.2       1 BD9334      0.0000 
     17 C29         3.0030   15.9700   21.7050 C.2       1 BD9334      0.0000 
     18 N6          2.7980   15.0560   22.6460 N.2       1 BD9334      0.0000 
     19 C30         3.9600   14.6010   23.0810 C.2       1 BD9334      0.0000 
     20 N7          4.9010   15.2380   22.3870 N.pl3     1 BD9334      0.0000 
     21 C13         4.7710   19.2120   22.0920 C.2       1 BD9334      0.0000 
     22 O2          4.6590   20.4310   22.0510 O.2       1 BD9334      0.0000 
     23 N2          4.9860   18.5690   23.2620 N.am      1 BD9334      0.0000 
     24 C14         4.9870   19.3410   24.5450 C.3       1 BD9334      0.0000 
     25 C31         4.7640   18.3880   25.7240 C.3       1 BD9334      0.0000 
     26 C32         3.4210   17.6440   25.5500 C.2       1 BD9334      0.0000 
     27 C33         2.4760   17.8340   24.6350 C.2       1 BD9334      0.0000 
     28 N8          1.4720   16.9400   24.8370 N.pl3     1 BD9334      0.0000 
     29 C34         1.7780   16.2080   25.8820 C.2       1 BD9334      0.0000 
     30 N9          2.9770   16.6310   26.3070 N.2       1 BD9334      0.0000 
     31 C15         6.2630   20.1650   24.7620 C.2       1 BD9334      0.0000 
     32 O3          7.3520   19.5960   24.6350 O.2       1 BD9334      0.0000 
     33 N3          6.0540   21.4650   25.0400 N.am      1 BD9334      0.0000 
     34 C16         7.1460   22.4270   25.3000 C.3       1 BD9334      0.0000 
     35 C17         7.5200   23.1910   24.0220 C.3       1 BD9334      0.0000 
     36 C38         6.6350   24.3710   23.5600 C.ar      1 BD9334      0.0000 
     37 C37         5.5280   24.1130   22.7630 C.ar      1 BD9334      0.0000 
     38 C36         4.7300   25.1650   22.3150 C.ar      1 BD9334      0.0000 
     39 C35         5.0490   26.4870   22.6370 C.ar      1 BD9334      0.0000 
     40 O5          4.2680   27.4980   22.1840 O.3       1 BD9334      0.0000 
     41 C40         6.1800   26.7440   23.4250 C.ar      1 BD9334      0.0000 
     42 C39         6.9660   25.6920   23.8770 C.ar      1 BD9334      0.0000 
     43 C18         6.6710   23.4820   26.2640 C.2       1 BD9334      0.0000 
     44 O4          5.4790   23.6710   26.2690 O.2       1 BD9334      0.0000 
     45 N4          7.5480   24.1490   27.0470 N.am      1 BD9334      0.0000 
     46 C19         6.9560   25.1650   27.9560 C.3       1 BD9334      0.0000 
     47 C20         9.0040   23.8820   27.0950 C.3       1 BD9334      0.0000 
     48 C21         9.3750   23.2370   28.4820 C.3       1 BD9334      0.0000 
     49 C24         8.6160   21.9370   28.6570 C.ar      1 BD9334      0.0000 
     50 C25         8.9020   20.8830   27.8420 C.ar      1 BD9334      0.0000 
     51 C26         8.1870   19.6780   27.9700 C.ar      1 BD9334      0.0000 
     52 C22         7.1560   19.6280   28.9240 C.ar      1 BD9334      0.0000 
     53 C23         6.9010   20.7240   29.7340 C.ar      1 BD9334      0.0000 
     54 N5          7.6140   21.8400   29.5720 N.ar      1 BD9334      0.0000 
     55 H           3.5014   28.9848   18.3390 H         1 BD9334      0.0000 
     56 H           3.2915   27.9388   16.9241 H         1 BD9334      0.0000 
     57 H           5.7027   28.7549   17.7937 H         1 BD9334      0.0000 
     58 H           5.4548   27.2337   16.9194 H         1 BD9334      0.0000 
     59 H           5.1910   26.3320   19.5011 H         1 BD9334      0.0000 
     60 H           6.3019   27.6916   19.7406 H         1 BD9334      0.0000 
     61 H           7.4911   26.6928   17.5912 H         1 BD9334      0.0000 
     62 H           6.6419   25.2079   18.0537 H         1 BD9334      0.0000 
     63 H           7.9130   26.3066   20.4138 H         1 BD9334      0.0000 
     64 H           9.0980   26.2658   19.0970 H         1 BD9334      0.0000 
     65 H           8.5588   24.1539   20.7433 H         1 BD9334      0.0000 
     66 H           9.2501   24.0076   19.1183 H         1 BD9334      0.0000 
     67 H           7.0080   23.5745   18.1810 H         1 BD9334      0.0000 
     68 H           6.2806   23.7800   19.7837 H         1 BD9334      0.0000 
     69 H           7.2002   21.8270   20.6326 H         1 BD9334      0.0000 
     70 H           8.5787   21.8693   19.5200 H         1 BD9334      0.0000 
     71 H           7.4701   20.6466   17.9569 H         1 BD9334      0.0000 
     72 H           5.8975   21.3875   18.3003 H         1 BD9334      0.0000 
     73 H           4.4779   19.9323   19.1088 H         1 BD9334      0.0000 
     74 H           3.4933   18.5745   20.4975 H         1 BD9334      0.0000 
     75 H           6.1145   16.9267   20.6582 H         1 BD9334      0.0000 
     76 H           4.7891   16.7132   19.5016 H         1 BD9334      0.0000 
     77 H           2.3128   16.4665   21.2323 H         1 BD9334      0.0000 
     78 H           4.1043   13.9388   23.7653 H         1 BD9334      0.0000 
     79 H           5.8625   15.1166   22.4815 H         1 BD9334      0.0000 
     80 H           5.1524   17.5684   23.3385 H         1 BD9334      0.0000 
     81 H           4.1369   20.0386   24.5364 H         1 BD9334      0.0000 
     82 H           4.7367   18.9536   26.6462 H         1 BD9334      0.0000 
     83 H           5.5666   17.6630   25.7599 H         1 BD9334      0.0000 
     84 H           2.4849   18.5010   23.9270 H         1 BD9334      0.0000 
     85 H           1.2563   15.5022   26.2789 H         1 BD9334      0.0000 
     86 H           5.0890   21.8684   25.0871 H         1 BD9334      0.0000 
     87 H           8.0080   21.9583   25.6850 H         1 BD9334      0.0000 
     88 H           7.5834   22.4540   23.1754 H         1 BD9334      0.0000 
     89 H           8.5725   23.5704   24.1323 H         1 BD9334      0.0000 
     90 H           5.2941   23.1464   22.5014 H         1 BD9334      0.0000 
     91 H           3.8970   24.9673   21.7411 H         1 BD9334      0.0000 
     92 H           6.4222   27.7127   23.6648 H         1 BD9334      0.0000 
     93 H           7.8010   25.8823   24.4511 H         1 BD9334      0.0000 
     94 H           9.5749   24.7984   26.9982 H         1 BD9334      0.0000 
     95 H           9.3012   23.1841   26.3206 H         1 BD9334      0.0000 
     96 H           9.1070   23.9372   29.2594 H         1 BD9334      0.0000 
     97 H          10.4397   23.0560   28.4931 H         1 BD9334      0.0000 
     98 H           9.6395   20.9488   27.1246 H         1 BD9334      0.0000 
     99 H           8.4068   18.8793   27.3976 H         1 BD9334      0.0000 
    100 H           6.5939   18.7721   29.0149 H         1 BD9334      0.0000 
    101 H           6.1585   20.6532   30.4516 H         1 BD9334      0.0000 
    102 H           2.9964   26.0254   18.4827 H         1 BD9334      0.0000 
    103 H           3.1926   26.9714   19.7683 H         1 BD9334      0.0000 
    104 H           1.9195   27.1749   18.8070 H         1 BD9334      0.0000 
    105 H           7.6545   25.6244   28.5047 H         1 BD9334      0.0000 
    106 H           6.4664   25.8754   27.4504 H         1 BD9334      0.0000 
    107 H           6.3033   24.7569   28.5943 H         1 BD9334      0.0000 
    108 H           4.8970   28.2586   22.0231 H         1 BD9334      0.0000 
@<TRIPOS>BOND
     1    2    1 1    
     2  102    1 1    
     3  103    1 1    
     4  104    1 1    
     5    3    2 1    
     6   55    2 1    
     7   56    2 1    
     8    4    3 1    
     9   57    3 1    
    10   58    3 1    
    11    5    4 1    
    12   59    4 1    
    13   60    4 1    
    14    6    5 1    
    15   61    5 1    
    16   62    5 1    
    17    7    6 1    
    18   63    6 1    
    19   64    6 1    
    20    8    7 1    
    21   65    7 1    
    22   66    7 1    
    23    9    8 1    
    24   67    8 1    
    25   68    8 1    
    26   10    9 1    
    27   69    9 1    
    28   70    9 1    
    29   11   10 1    
    30   71   10 1    
    31   72   10 1    
    32   12   11 2    
    33   13   11 am   
    34   14   13 1    
    35   73   13 1    
    36   15   14 1    
    37   21   14 1    
    38   74   14 1    
    39   16   15 1    
    40   75   15 1    
    41   76   15 1    
    42   17   16 2    
    43   20   16 1    
    44   18   17 1    
    45   77   17 1    
    46   19   18 2    
    47   20   19 1    
    48   78   19 1    
    49   79   20 1    
    50   22   21 2    
    51   23   21 am   
    52   24   23 1    
    53   80   23 1    
    54   25   24 1    
    55   31   24 1    
    56   81   24 1    
    57   26   25 1    
    58   82   25 1    
    59   83   25 1    
    60   27   26 2    
    61   30   26 1    
    62   28   27 1    
    63   84   27 1    
    64   29   28 1    
    65   30   29 2    
    66   85   29 1    
    67   32   31 2    
    68   33   31 am   
    69   34   33 1    
    70   86   33 1    
    71   35   34 1    
    72   43   34 1    
    73   87   34 1    
    74   36   35 1    
    75   88   35 1    
    76   89   35 1    
    77   37   36 ar   
    78   42   36 ar   
    79   38   37 ar   
    80   90   37 1    
    81   39   38 ar   
    82   91   38 1    
    83   40   39 1    
    84   41   39 ar   
    85  108   40 1    
    86   42   41 ar   
    87   92   41 1    
    88   93   42 1    
    89   44   43 2    
    90   45   43 am   
    91   46   45 1    
    92   47   45 1    
    93  105   46 1    
    94  106   46 1    
    95  107   46 1    
    96   48   47 1    
    97   94   47 1    
    98   95   47 1    
    99   49   48 1    
   100   96   48 1    
   101   97   48 1    
   102   50   49 ar   
   103   54   49 ar   
   104   51   50 ar   
   105   98   50 1    
   106   52   51 ar   
   107   99   51 1    
   108   53   52 ar   
   109  100   52 1    
   110   54   53 ar   
   111  101   53 1    
@<TRIPOS>SUBSTRUCTURE
     1 BD9334      1 GROUP   
@<TRIPOS>SET

