#    Name: 2hl0_A3S_1_INTS_M
#    Modification time : Tue Mar 25 16:40:16 2014

@<TRIPOS>MOLECULE
2hl0_A3S_1_INTS_M
   55     0     9     0     0
SMALL
NO_CHARGES


@<TRIPOS>ATOM
      1 CA         14.8725   30.6215   19.5295 C.3       3 GLC5        0.0000 
      2 CA         13.8920   32.1150   20.3180 C.3       9 GLL5        0.0000 
      3 CA         15.8530   29.1280   18.7410 C.3       6 GLP5        0.0000 
      4 CA          7.3240   31.0640   24.3390 C.3       3 GLC5        0.0000 
      5 CA          9.0780   30.3430   23.4820 C.3       9 GLL5        0.0000 
      6 CA          5.5700   31.7850   25.1960 C.3       6 GLP5        0.0000 
      7 CA          8.9220   32.2045   23.4860 C.3       3 GLC5        0.0000 
      8 CA          8.7660   34.0660   23.4900 C.3       6 GLP5        0.0000 
      9 CA         10.1240   28.8525   24.6640 C.3       3 GLC5        0.0000 
     10 CA         11.1700   27.3620   25.8460 C.3       6 GLP5        0.0000 
     11 CA          8.9700   28.4680   22.7185 C.3       3 GLC5        0.0000 
     12 CA          8.8620   26.5930   21.9550 C.3       6 GLP5        0.0000 
     13 N           7.9110   30.3110   25.7055 N.am      2 SEC2        0.0000 
     14 N           9.1460   30.4720   24.7960 N.am      8 SEL2        0.0000 
     15 N           6.6760   30.1500   26.6150 N.am      5 SEP2        0.0000 
     16 CA          9.0370   29.3440   26.4510 C.3       3 GLC5        0.0000 
     17 CA         10.3270   30.5910   25.4220 C.3       9 GLL5        0.0000 
     18 CA          7.7470   28.0970   27.4800 C.3       6 GLP5        0.0000 
     19 O           9.3680   30.7805   27.7350 O.2       1 ALC1        0.0000 
     20 O          10.3860   30.7130   26.7450 O.2       7 ALL1        0.0000 
     21 O           8.3500   30.8480   28.7250 O.2       4 ALP1        0.0000 
     22 CA         10.4585   29.8810   19.6680 C.3       3 GLC5        0.0000 
     23 CA         12.0640   30.6180   20.3090 C.3       9 GLL5        0.0000 
     24 CA          8.8530   29.1440   19.0270 C.3       6 GLP5        0.0000 
     25 N          13.5270   29.1715   18.7970 N.am      2 SEC2        0.0000 
     26 N          12.4210   29.9710   19.0850 N.am      8 SEL2        0.0000 
     27 N          14.6330   28.3720   18.5090 N.am      5 SEP2        0.0000 
     28 N          12.0520   30.0380   17.8180 N.am      2 SEC2        0.0000 
     29 N          11.6830   30.1050   16.5510 N.am      5 SEP2        0.0000 
     30 CA         11.3285   33.0650   21.9055 C.3       3 GLC5        0.0000 
     31 CA         12.3660   32.1120   20.2250 C.3       9 GLL5        0.0000 
     32 CA         10.2910   34.0180   23.5860 C.3       6 GLP5        0.0000 
     33 O          12.7275   32.7765   17.7405 O.2       1 ALC1        0.0000 
     34 O          11.9400   32.7250   18.9580 O.2       7 ALL1        0.0000 
     35 O          13.5150   32.8280   16.5230 O.2       4 ALP1        0.0000 
     36 O           8.4615   33.0715   17.7590 O.2       1 ALC1        0.0000 
     37 O           9.1470   34.3420   17.3240 O.2       7 ALL1        0.0000 
     38 O           7.7760   31.8010   18.1940 O.2       4 ALP1        0.0000 
     39 N          11.7195   35.4285   14.8040 N.am      2 SEC2        0.0000 
     40 N          11.0930   35.9810   15.9910 N.am      8 SEL2        0.0000 
     41 N          12.3460   34.8760   13.6170 N.am      5 SEP2        0.0000 
     42 N           9.2240   33.8135   21.0125 N.am      2 SEC2        0.0000 
     43 N          10.0980   33.9030   19.8890 N.am      8 SEL2        0.0000 
     44 N           8.3500   33.7240   22.1360 N.am      5 SEP2        0.0000 
     45 CA         15.5377   33.3165   19.7880 C.3       3 GLC5        0.0000 
     46 CA         16.9480   33.8620   18.9420 C.3       6 GLP5        0.0000 
     47 CA         12.5640   28.6965   21.5640 C.3       3 GLC5        0.0000 
     48 CA         13.0580   30.2120   21.4010 C.3       9 GLL5        0.0000 
     49 CA         12.5670   26.9780   22.2730 C.3       6 GLP5        0.0000 
     50 CA         14.2070   29.7715   19.7980 C.3       3 GLC5        0.0000 
     51 CA         10.5873   32.2840   24.1431 C.3       3 GLC5        0.0000 
     52 CA         11.0267   28.9560   25.2731 C.3       3 GLC5        0.0000 
     53 CA         12.6002   34.9562   16.2587 C.3       3 GLC5        0.0000 
     54 CA         10.5940   34.1320   17.4690 C.3       9 GLL5        0.0000 
     55 CA         14.2430   35.1120   15.1300 C.3       6 GLP5        0.0000 
@<TRIPOS>BOND
@<TRIPOS>SUBSTRUCTURE
     1 ALC1       19 GROUP        1 X    ALC  0     ROOT ALC X 1
     2 SEC2       13 GROUP        1 X    SEC  0     **** SEC X 2
     3 GLC5        1 GROUP        1 X    GLC  0     **** GLC X 6
     4 ALP1       21 GROUP        1 Y    ALP  0     ROOT ALP Y 8
     5 SEP2       15 GROUP        1 Y    SEP  0     **** SEP Y 9
     6 GLP5        3 GROUP        1 Y    GLP  0     **** GLP Y 13
     7 ALL1       20 GROUP        1 Z    ALL  0     ROOT ALL Z 15
     8 SEL2       14 GROUP        1 Z    SEL  0     **** SEL Z 16
     9 GLL5        2 GROUP        1 Z    GLL  0     **** GLL Z 20
@<TRIPOS>SET

