#    Name: 2hl0_A3S_1_ligand
#    Modification time : Tue Mar 25 16:40:16 2014

@<TRIPOS>MOLECULE
2hl0_A3S_1_ligand
   45    47     1     0     0
SMALL
NO_CHARGES


@<TRIPOS>ATOM
      1 O5'        13.7530   33.6000   22.2330 O.3       1 A3S500      0.0000 
      2 C5'        14.3630   33.4270   20.9500 C.3       1 A3S500      0.0000 
      3 C4'        13.8920   32.1150   20.3180 C.3       1 A3S500      0.0000 
      4 O4'        14.2380   31.0000   21.1580 O.3       1 A3S500      0.0000 
      5 C1'        13.0580   30.2120   21.4010 C.3       1 A3S500      0.0000 
      6 N9         12.6250   30.4460   22.8000 N.pl3     1 A3S500      0.0000 
      7 C4         11.3860   30.4390   23.2900 C.ar      1 A3S500      0.0000 
      8 N3         10.1700   30.3250   22.7360 N.ar      1 A3S500      0.0000 
      9 C2          9.0780   30.3430   23.4820 C.ar      1 A3S500      0.0000 
     10 N1          9.1460   30.4720   24.7960 N.ar      1 A3S500      0.0000 
     11 C6         10.3270   30.5910   25.4220 C.ar      1 A3S500      0.0000 
     12 N6         10.3860   30.7130   26.7450 N.pl3     1 A3S500      0.0000 
     13 C5         11.4940   30.5790   24.6670 C.ar      1 A3S500      0.0000 
     14 N7         12.7850   30.6740   24.9650 N.2       1 A3S500      0.0000 
     15 C8         13.4640   30.5960   23.8230 C.2       1 A3S500      0.0000 
     16 C2'        12.0640   30.6180   20.3090 C.3       1 A3S500      0.0000 
     17 O2'        12.4210   29.9710   19.0850 O.3       1 A3S500      0.0000 
     18 C3'        12.3660   32.1120   20.2250 C.3       1 A3S500      0.0000 
     19 N8         11.9400   32.7250   18.9580 N.am      1 A3S500      0.0000 
     20 N           9.1470   34.3420   17.3240 N.4       1 A3S500      0.0000 
     21 CA         10.5940   34.1320   17.4690 C.3       1 A3S500      0.0000 
     22 CB         11.3210   35.4690   17.3060 C.3       1 A3S500      0.0000 
     23 OG         11.0930   35.9810   15.9910 O.3       1 A3S500      0.0000 
     24 C          10.9050   33.5540   18.8510 C.2       1 A3S500      0.0000 
     25 O          10.0980   33.9030   19.8890 O.2       1 A3S500      0.0000 
     26 H          15.4566   33.3886   21.0225 H         1 A3S500      0.0000 
     27 H          14.1013   34.2410   20.2632 H         1 A3S500      0.0000 
     28 H          14.2927   32.0186   19.3448 H         1 A3S500      0.0000 
     29 H          13.3043   29.1651   21.2551 H         1 A3S500      0.0000 
     30 H           8.1301   30.2522   23.0171 H         1 A3S500      0.0000 
     31 H           9.5090   30.7234   27.2255 H         1 A3S500      0.0000 
     32 H          11.3020   30.7833   27.1400 H         1 A3S500      0.0000 
     33 H          14.4435   30.6424   23.7456 H         1 A3S500      0.0000 
     34 H          11.1079   30.4717   20.6438 H         1 A3S500      0.0000 
     35 H          11.9840   32.5908   21.0778 H         1 A3S500      0.0000 
     36 H          12.5226   32.4574   18.1228 H         1 A3S500      0.0000 
     37 H          10.9560   33.4540   16.7228 H         1 A3S500      0.0000 
     38 H          12.3853   35.2952   17.4959 H         1 A3S500      0.0000 
     39 H          10.9457   36.1489   18.0780 H         1 A3S500      0.0000 
     40 H           8.7941   34.9811   18.0074 H         1 A3S500      0.0000 
     41 H           8.9140   34.7151   16.4259 H         1 A3S500      0.0000 
     42 H           8.6356   33.4891   17.4287 H         1 A3S500      0.0000 
     43 H          14.5162   33.7142   22.8690 H         1 A3S500      0.0000 
     44 H          13.1484   30.5363   18.6962 H         1 A3S500      0.0000 
     45 H          10.2206   35.5836   15.7063 H         1 A3S500      0.0000 
@<TRIPOS>BOND
     1    2    1 1    
     2   43    1 1    
     3    3    2 1    
     4   26    2 1    
     5   27    2 1    
     6    4    3 1    
     7   18    3 1    
     8   28    3 1    
     9    5    4 1    
    10    6    5 1    
    11   16    5 1    
    12   29    5 1    
    13    7    6 1    
    14   15    6 1    
    15    8    7 ar   
    16   13    7 ar   
    17    9    8 ar   
    18   10    9 ar   
    19   30    9 1    
    20   11   10 ar   
    21   12   11 1    
    22   13   11 ar   
    23   31   12 1    
    24   32   12 1    
    25   14   13 1    
    26   15   14 2    
    27   33   15 1    
    28   17   16 1    
    29   18   16 1    
    30   34   16 1    
    31   44   17 1    
    32   19   18 1    
    33   35   18 1    
    34   24   19 am   
    35   36   19 1    
    36   21   20 1    
    37   40   20 1    
    38   41   20 1    
    39   42   20 1    
    40   22   21 1    
    41   24   21 1    
    42   37   21 1    
    43   23   22 1    
    44   38   22 1    
    45   39   22 1    
    46   45   23 1    
    47   25   24 2    
@<TRIPOS>SUBSTRUCTURE
     1 A3S500      1 GROUP   
@<TRIPOS>SET

