#    Name: 3eub_MTE_1_INTS_M
#    Modification time : Tue Mar 25 02:29:54 2014

@<TRIPOS>MOLECULE
3eub_MTE_1_INTS_M
   64     0     9     0     0
SMALL
NO_CHARGES


@<TRIPOS>ATOM
      1 N         -33.0410   66.4080  -38.6900 N.am      2 SEC2        0.0000 
      2 N         -33.4920   66.5180  -40.3320 N.am      8 SEL2        0.0000 
      3 N         -32.5900   66.2980  -37.0480 N.am      5 SEP2        0.0000 
      4 O         -30.6890   66.3475  -39.7665 O.2       1 ALC1        0.0000 
      5 O         -31.3730   65.9070  -41.0080 O.2       7 ALL1        0.0000 
      6 O         -30.0050   66.7880  -38.5250 O.2       4 ALP1        0.0000 
      7 N         -34.5035   65.7750  -45.5330 N.am      2 SEC2        0.0000 
      8 N         -34.5990   65.9040  -44.2180 N.am      8 SEL2        0.0000 
      9 N         -34.4080   65.6460  -46.8480 N.am      5 SEP2        0.0000 
     10 N         -35.5320   66.5775  -45.0245 N.am      2 SEC2        0.0000 
     11 N         -36.4650   67.2510  -45.8310 N.am      5 SEP2        0.0000 
     12 CA        -37.7235   67.7320  -38.1165 C.3       3 GLC5        0.0000 
     13 CA        -37.0470   67.2660  -39.9150 C.3       9 GLL5        0.0000 
     14 CA        -38.4000   68.1980  -36.3180 C.3       6 GLP5        0.0000 
     15 O         -35.2055   67.0125  -38.3710 O.2       1 ALC1        0.0000 
     16 O         -35.6430   67.1230  -39.6720 O.2       7 ALL1        0.0000 
     17 O         -34.7680   66.9020  -37.0700 O.2       4 ALP1        0.0000 
     18 CA        -36.1885   67.5045  -43.6685 C.3       3 GLC5        0.0000 
     19 CA        -35.3180   66.5200  -42.0130 C.3       9 GLL5        0.0000 
     20 CA        -37.0590   68.4890  -45.3240 C.3       6 GLP5        0.0000 
     21 CA        -36.0735   65.1425  -42.9560 C.3       3 GLC5        0.0000 
     22 CA        -36.8290   63.7650  -43.8990 C.3       6 GLP5        0.0000 
     23 CA        -34.6885   65.1325  -39.5570 C.3       3 GLC5        0.0000 
     24 CA        -34.8010   66.7240  -40.6240 C.3       9 GLL5        0.0000 
     25 CA        -34.5760   63.5410  -38.4900 C.3       6 GLP5        0.0000 
     26 CA        -38.5570   69.5320  -41.2450 C.3       3 GLC5        0.0000 
     27 CA        -38.8840   67.5940  -41.5410 C.3       9 GLL5        0.0000 
     28 CA        -38.2300   71.4700  -40.9490 C.3       6 GLP5        0.0000 
     29 CA        -38.3645   68.5375  -44.0250 C.3       3 GLC5        0.0000 
     30 CA        -39.6700   68.5860  -42.7260 C.3       9 GLL5        0.0000 
     31 CA        -40.0625   68.2770  -44.8640 C.3       3 GLC5        0.0000 
     32 CA        -40.4550   67.9680  -47.0020 C.3       6 GLP5        0.0000 
     33 CA        -39.8680   70.2290  -42.7180 C.3       3 GLC5        0.0000 
     34 CA        -40.0660   71.8720  -42.7100 C.3       6 GLP5        0.0000 
     35 CA        -40.7120   69.5070  -41.0920 C.3       3 GLC5        0.0000 
     36 CA        -41.7540   70.4280  -39.4580 C.3       6 GLP5        0.0000 
     37 CA        -42.2765   65.2435  -41.4520 C.3       3 GLC5        0.0000 
     38 CA        -41.2220   66.6060  -40.8550 C.3       9 GLL5        0.0000 
     39 CA        -43.3310   63.8810  -42.0490 C.3       6 GLP5        0.0000 
     40 CA        -43.2395   66.3995  -40.3015 C.3       3 GLC5        0.0000 
     41 CA        -45.2570   66.1930  -39.7480 C.3       6 GLP5        0.0000 
     42 CA        -41.8865   66.2010  -38.9905 C.3       3 GLC5        0.0000 
     43 CA        -42.5510   65.7960  -37.1260 C.3       6 GLP5        0.0000 
     44 CA        -38.6950   67.0445  -37.9735 C.3       3 GLC5        0.0000 
     45 CA        -38.9900   65.8910  -39.6290 C.3       9 GLL5        0.0000 
     46 CA        -38.8080   63.5485  -41.8045 C.3       3 GLC5        0.0000 
     47 CA        -39.4340   64.4520  -39.9290 C.3       9 GLL5        0.0000 
     48 CA        -38.1820   62.6450  -43.6800 C.3       6 GLP5        0.0000 
     49 CA        -41.3825   64.1665  -40.9890 C.3       3 GLC5        0.0000 
     50 N         -37.7950   62.2110  -39.6020 N.am      2 SEC2        0.0000 
     51 N         -38.7940   63.4400  -39.1520 N.am      8 SEL2        0.0000 
     52 N         -36.7960   60.9820  -40.0520 N.am      5 SEP2        0.0000 
     53 N         -41.9145   61.9925  -37.3005 N.am      2 SEC2        0.0000 
     54 N         -40.8230   62.7660  -38.1040 N.am      8 SEL2        0.0000 
     55 N         -43.0060   61.2190  -36.4970 N.am      5 SEP2        0.0000 
     56 N         -41.4750   61.6395  -38.6240 N.am      2 SEC2        0.0000 
     57 N         -42.1270   60.5130  -39.1440 N.am      5 SEP2        0.0000 
     58 CA        -37.5935   68.0520  -43.3893 C.3       3 GLC5        0.0000 
     59 CA        -36.9437   69.4310  -40.7293 C.3       3 GLC5        0.0000 
     60 CA        -37.3720   67.6360  -41.3680 C.3       9 GLL5        0.0000 
     61 CA        -36.6780   71.4110  -40.8170 C.3       6 GLP5        0.0000 
     62 CA        -41.0775   68.5565  -40.1227 C.3       3 GLC5        0.0000 
     63 CA        -39.5800   66.7640  -40.7200 C.3       9 GLL5        0.0000 
     64 CA        -40.8815   65.4838  -38.4525 C.3       3 GLC5        0.0000 
@<TRIPOS>BOND
@<TRIPOS>SUBSTRUCTURE
     1 ALC1        4 GROUP        1 X    ALC  0     ROOT ALC X 1
     2 SEC2        1 GROUP        1 X    SEC  0     **** SEC X 2
     3 GLC5       12 GROUP        1 X    GLC  0     **** GLC X 6
     4 ALP1        6 GROUP        1 Y    ALP  0     ROOT ALP Y 8
     5 SEP2        3 GROUP        1 Y    SEP  0     **** SEP Y 9
     6 GLP5       14 GROUP        1 Y    GLP  0     **** GLP Y 13
     7 ALL1        5 GROUP        1 Z    ALL  0     ROOT ALL Z 15
     8 SEL2        2 GROUP        1 Z    SEL  0     **** SEL Z 16
     9 GLL5       13 GROUP        1 Z    GLL  0     **** GLL Z 20
@<TRIPOS>SET

