#    Name: 3eub_MTE_1_ligand
#    Modification time : Tue Mar 25 02:29:54 2014

@<TRIPOS>MOLECULE
3eub_MTE_1_ligand
   34    36     1     0     0
SMALL
NO_CHARGES


@<TRIPOS>ATOM
      1 N1        -33.4920   66.5180  -40.3320 N.2       1 MTE1333     0.0000 
      2 C2        -32.6570   66.1130  -41.3300 C.2       1 MTE1333     0.0000 
      3 N2        -31.3730   65.9070  -41.0080 N.pl3     1 MTE1333     0.0000 
      4 N3        -33.0340   65.9200  -42.6180 N.am      1 MTE1333     0.0000 
      5 C4        -34.3040   66.0950  -43.0270 C.2       1 MTE1333     0.0000 
      6 O4        -34.5990   65.9040  -44.2180 O.2       1 MTE1333     0.0000 
      7 N5        -36.6410   66.7490  -42.2730 N.pl3     1 MTE1333     0.0000 
      8 C6        -37.3720   67.6360  -41.3680 C.3       1 MTE1333     0.0000 
      9 C7        -37.0470   67.2660  -39.9150 C.3       1 MTE1333     0.0000 
     10 N8        -35.6430   67.1230  -39.6720 N.pl3     1 MTE1333     0.0000 
     11 C9        -35.3180   66.5200  -42.0130 C.2       1 MTE1333     0.0000 
     12 C10       -34.8010   66.7240  -40.6240 C.2       1 MTE1333     0.0000 
     13 C1'       -38.8840   67.5940  -41.5410 C.2       1 MTE1333     0.0000 
     14 S1'       -39.6700   68.5860  -42.7260 S.3       1 MTE1333     0.0000 
     15 C2'       -39.5800   66.7640  -40.7200 C.2       1 MTE1333     0.0000 
     16 S2'       -41.2220   66.6060  -40.8550 S.3       1 MTE1333     0.0000 
     17 C3'       -38.9900   65.8910  -39.6290 C.3       1 MTE1333     0.0000 
     18 O3'       -37.5630   65.9800  -39.5720 O.3       1 MTE1333     0.0000 
     19 C4'       -39.4340   64.4520  -39.9290 C.3       1 MTE1333     0.0000 
     20 O4'       -38.7940   63.4400  -39.1520 O.3       1 MTE1333     0.0000 
     21 P         -39.3920   63.0610  -37.7110 P.3       1 MTE1333     0.0000 
     22 O1P       -40.8230   62.7660  -38.1040 O.co2     1 MTE1333     0.0000 
     23 O2P       -39.0250   64.2840  -36.9300 O.co2     1 MTE1333     0.0000 
     24 O3P       -38.6230   61.8770  -37.1870 O.co2     1 MTE1333     0.0000 
     25 H         -30.7766   65.6020  -41.7505 H         1 MTE1333     0.0000 
     26 H         -31.1259   66.0767  -40.0540 H         1 MTE1333     0.0000 
     27 H         -32.3032   65.6224  -43.3205 H         1 MTE1333     0.0000 
     28 H         -37.1354   66.3424  -43.0488 H         1 MTE1333     0.0000 
     29 H         -37.0451   68.6694  -41.5048 H         1 MTE1333     0.0000 
     30 H         -37.4620   68.0131  -39.2604 H         1 MTE1333     0.0000 
     31 H         -35.3116   67.3484  -38.7066 H         1 MTE1333     0.0000 
     32 H         -39.4502   66.1741  -38.6904 H         1 MTE1333     0.0000 
     33 H         -39.2734   64.2830  -41.0240 H         1 MTE1333     0.0000 
     34 H         -40.5454   64.4199  -39.7980 H         1 MTE1333     0.0000 
@<TRIPOS>BOND
     1    2    1 2    
     2   12    1 1    
     3    3    2 1    
     4    4    2 1    
     5   25    3 1    
     6   26    3 1    
     7    5    4 am   
     8   27    4 1    
     9    6    5 2    
    10   11    5 1    
    11    8    7 1    
    12   11    7 1    
    13   28    7 1    
    14    9    8 1    
    15   13    8 1    
    16   29    8 1    
    17   10    9 1    
    18   18    9 1    
    19   30    9 1    
    20   12   10 1    
    21   31   10 1    
    22   12   11 2    
    23   14   13 1    
    24   15   13 2    
    25   16   15 1    
    26   17   15 1    
    27   18   17 1    
    28   19   17 1    
    29   32   17 1    
    30   20   19 1    
    31   33   19 1    
    32   34   19 1    
    33   21   20 1    
    34   22   21 ar   
    35   23   21 ar   
    36   24   21 ar   
@<TRIPOS>SUBSTRUCTURE
     1 MTE1333     1 GROUP   
@<TRIPOS>SET

