#    Name: 1r6t_TYM_1_INTS_M
#    Modification time : Tue Mar 25 00:25:46 2014

@<TRIPOS>MOLECULE
1r6t_TYM_1_INTS_M
  101     0    15     0     0
SMALL
NO_CHARGES


@<TRIPOS>ATOM
      1 NZ         41.3470   42.5010   45.1730 N.4       4 LYC4        0.0000 
      2 NZ         42.6430   42.2900   45.6490 N.4      14 LYL4        0.0000 
      3 NZ         39.6370   43.3620   43.6180 N.4       9 LYP4        0.0000 
      4 N          41.3470   42.5010   45.1730 N.am      2 SEC2        0.0000 
      5 N          42.6430   42.2900   45.6490 N.am     12 SEL2        0.0000 
      6 N          40.0510   42.7120   44.6970 N.am      7 SEP2        0.0000 
      7 N          43.4845   42.4055   44.4580 N.am      2 SEC2        0.0000 
      8 N          44.3260   42.5210   43.2670 N.am      7 SEP2        0.0000 
      9 CA         42.3955   44.6485   45.5810 C.3       5 GLC5        0.0000 
     10 CA         43.0550   44.6480   47.6140 C.3      15 GLL5        0.0000 
     11 CA         41.7360   44.6490   43.5480 C.3      10 GLP5        0.0000 
     12 CA         42.3360   46.8015   51.2475 C.3       5 GLC5        0.0000 
     13 CA         42.2830   45.0290   50.9860 C.3      15 GLL5        0.0000 
     14 CA         42.3890   48.5740   51.5090 C.3      10 GLP5        0.0000 
     15 CA         41.9135   44.8295   53.6045 C.3       5 GLC5        0.0000 
     16 CA         40.2700   44.7160   52.4980 C.3      15 GLL5        0.0000 
     17 CA         43.5570   44.9430   54.7110 C.3      10 GLP5        0.0000 
     18 CA         39.3680   48.0960   54.0745 C.3       5 GLC5        0.0000 
     19 CA         39.4310   45.9240   54.1920 C.3      15 GLL5        0.0000 
     20 CA         39.3050   50.2680   53.9570 C.3      10 GLP5        0.0000 
     21 CA         41.4940   45.4335   54.4515 C.3       5 GLC5        0.0000 
     22 CA         39.2135   45.2045   56.0455 C.3       5 GLC5        0.0000 
     23 CA         38.9960   44.4850   57.8990 C.3      10 GLP5        0.0000 
     24 CA         37.3785   46.1615   54.8020 C.3       5 GLC5        0.0000 
     25 CA         35.3260   46.3990   55.4120 C.3      10 GLP5        0.0000 
     26 N          37.6980   45.2210   55.6155 N.am      2 SEC2        0.0000 
     27 N          38.3940   45.0790   54.3950 N.am     12 SEL2        0.0000 
     28 N          37.0020   45.3630   56.8360 N.am      7 SEP2        0.0000 
     29 CA         36.9555   45.4710   52.7290 C.3       5 GLC5        0.0000 
     30 CA         38.2700   43.9650   53.5980 C.3      15 GLL5        0.0000 
     31 CA         35.6410   46.9770   51.8600 C.3      10 GLP5        0.0000 
     32 CA         38.6330   44.2250   55.7485 C.3       5 GLC5        0.0000 
     33 CA         36.7980   45.1820   54.5050 C.3       5 GLC5        0.0000 
     34 O          36.2020   43.3405   54.9345 O.2       1 ALC1        0.0000 
     35 O          37.2330   43.1490   53.8160 O.2      11 ALL1        0.0000 
     36 O          35.1710   43.5320   56.0530 O.2       6 ALP1        0.0000 
     37 O          36.5000   41.9945   52.9590 O.2       1 ALC1        0.0000 
     38 O          35.7670   40.8400   52.1020 O.2       6 ALP1        0.0000 
     39 N          44.8780   45.2185   53.0680 N.am      2 SEC2        0.0000 
     40 N          44.2800   44.1300   52.1060 N.am     12 SEL2        0.0000 
     41 N          45.4760   46.3070   54.0300 N.am      7 SEP2        0.0000 
     42 O          44.4655   43.1015   52.9185 O.2       1 ALC1        0.0000 
     43 O          44.2800   44.1300   52.1060 O.2      11 ALL1        0.0000 
     44 O          44.6510   42.0730   53.7310 O.2       6 ALP1        0.0000 
     45 O          45.1075   47.0415   49.3635 O.2       1 ALC1        0.0000 
     46 O          44.9420   46.1760   50.3800 O.2      11 ALL1        0.0000 
     47 O          45.2730   47.9070   48.3470 O.2       6 ALP1        0.0000 
     48 OD1        47.7940   39.5270   44.7630 O.co2     3 ASC3        0.0000 
     49 OD1        47.8160   40.2440   45.8460 O.co2    13 ASL3        0.0000 
     50 OD1        47.7720   38.8100   43.6800 O.co2     8 ASP3        0.0000 
     51 OD1        47.4255   38.6980   45.3780 O.co2     3 ASC3        0.0000 
     52 OD1        47.0350   37.1520   44.9100 O.co2     8 ASP3        0.0000 
     53 O          49.2060   40.4075   46.1845 O.2       1 ALC1        0.0000 
     54 O          47.8160   40.2440   45.8460 O.2      11 ALL1        0.0000 
     55 O          50.5960   40.5710   46.5230 O.2       6 ALP1        0.0000 
     56 O          47.7940   39.5270   44.7630 O.2       1 ALC1        0.0000 
     57 O          47.7720   38.8100   43.6800 O.2       6 ALP1        0.0000 
     58 CA         46.1070   43.7345   44.5865 C.3       5 GLC5        0.0000 
     59 CA         47.3530   42.6130   45.4970 C.3      15 GLL5        0.0000 
     60 CA         44.8610   44.8560   43.6760 C.3      10 GLP5        0.0000 
     61 CA         51.3190   43.3590   46.7965 C.3       5 GLC5        0.0000 
     62 CA         50.0070   44.8950   46.8770 C.3      15 GLL5        0.0000 
     63 CA         52.6310   41.8230   46.7160 C.3      10 GLP5        0.0000 
     64 CA         50.5560   44.0800   43.2330 C.3       5 GLC5        0.0000 
     65 CA         49.7420   43.4660   45.1750 C.3      15 GLL5        0.0000 
     66 CA         51.3700   44.6940   41.2910 C.3      10 GLP5        0.0000 
     67 O          51.9825   44.7265   45.7840 O.2       1 ALC1        0.0000 
     68 O          50.6160   44.3370   45.7820 O.2      11 ALL1        0.0000 
     69 O          53.3490   45.1160   45.7860 O.2       6 ALP1        0.0000 
     70 O          51.5105   44.0795   44.5290 O.2       1 ALC1        0.0000 
     71 O          52.4050   43.8220   43.2760 O.2       6 ALP1        0.0000 
     72 CA         41.0658   44.9170   48.0022 C.3       5 GLC5        0.0000 
     73 CA         43.2220   45.4780   48.8630 C.3      15 GLL5        0.0000 
     74 CA         38.9930   44.7710   47.7660 C.3      10 GLP5        0.0000 
     75 CA         43.0840   46.9135   50.4215 C.3       5 GLC5        0.0000 
     76 CA         43.2480   44.7863   52.8192 C.3       5 GLC5        0.0000 
     77 CA         38.9623   41.7945   53.5442 C.3       5 GLC5        0.0000 
     78 CA         39.2570   43.7490   52.5850 C.3      15 GLL5        0.0000 
     79 CA         39.1610   39.7320   53.9970 C.3      10 GLP5        0.0000 
     80 CA         45.7062   43.6870   50.8220 C.3       5 GLC5        0.0000 
     81 CA         43.5950   44.2300   50.8690 C.3      15 GLL5        0.0000 
     82 CA         47.4470   42.7450   51.3070 C.3      10 GLP5        0.0000 
     83 CA         50.8895   42.6363   46.1148 C.3       5 GLC5        0.0000 
     84 CA         48.5828   45.7542   45.8800 C.3       5 GLC5        0.0000 
     85 CA         47.8170   46.8880   44.8440 C.3      10 GLP5        0.0000 
     86 CA         47.9423   46.0622   46.6680 C.3       5 GLC5        0.0000 
     87 CA         47.8300   44.7650   48.0240 C.3      15 GLL5        0.0000 
     88 CA         47.7572   43.9907   49.8995 C.3       5 GLC5        0.0000 
     89 CA         48.3324   45.0662   45.1344 C.3       5 GLC5        0.0000 
     90 CA         49.2054   42.4008   43.7134 C.3       5 GLC5        0.0000 
     91 CA         48.5540   43.4330   45.8520 C.3      15 GLL5        0.0000 
     92 CA         49.5630   41.5570   42.0020 C.3      10 GLP5        0.0000 
     93 CA         48.9375   46.4660   46.5902 C.3       5 GLC5        0.0000 
     94 CA         49.6270   46.2390   48.8520 C.3      15 GLL5        0.0000 
     95 CA         51.1465   47.0900   49.6932 C.3       5 GLC5        0.0000 
     96 CA         50.4890   45.8490   47.8210 C.3      15 GLL5        0.0000 
     97 CA         52.2350   48.1360   51.0500 C.3      10 GLP5        0.0000 
     98 CA         49.3487   47.6595   47.8501 C.3       5 GLC5        0.0000 
     99 CA         49.5160   49.4430   47.0520 C.3      10 GLP5        0.0000 
    100 CA         48.5060   46.3418   50.7095 C.3       5 GLC5        0.0000 
    101 CA         48.0460   46.7100   52.5130 C.3      10 GLP5        0.0000 
@<TRIPOS>BOND
@<TRIPOS>SUBSTRUCTURE
     1 ALC1       34 GROUP        1 X    ALC  0     ROOT ALC X 1
     2 SEC2        4 GROUP        1 X    SEC  0     **** SEC X 2
     3 ASC3       48 GROUP        1 X    ASC  0     **** ASC X 3
     4 LYC4        1 GROUP        1 X    LYC  0     **** LYC X 4
     5 GLC5        9 GROUP        1 X    GLC  0     **** GLC X 6
     6 ALP1       36 GROUP        1 Y    ALP  0     ROOT ALP Y 8
     7 SEP2        6 GROUP        1 Y    SEP  0     **** SEP Y 9
     8 ASP3       50 GROUP        1 Y    ASP  0     **** ASP Y 10
     9 LYP4        3 GROUP        1 Y    LYP  0     **** LYP Y 11
    10 GLP5       11 GROUP        1 Y    GLP  0     **** GLP Y 13
    11 ALL1       35 GROUP        1 Z    ALL  0     ROOT ALL Z 15
    12 SEL2        5 GROUP        1 Z    SEL  0     **** SEL Z 16
    13 ASL3       49 GROUP        1 Z    ASL  0     **** ASL Z 17
    14 LYL4        2 GROUP        1 Z    LYL  0     **** LYL Z 18
    15 GLL5       10 GROUP        1 Z    GLL  0     **** GLL Z 20
@<TRIPOS>SET

