#    Name: 1r6t_TYM_1_ligand
#    Modification time : Tue Mar 25 00:25:46 2014

@<TRIPOS>MOLECULE
1r6t_TYM_1_ligand
   61    65     1     0     0
SMALL
NO_CHARGES


@<TRIPOS>ATOM
      1 P          43.1270   42.0760   47.0430 P.3       1 TYM501      0.0000 
      2 O1P        42.6430   42.2900   45.6490 O.co2     1 TYM501      0.0000 
      3 O2P        42.7410   40.8370   47.7670 O.co2     1 TYM501      0.0000 
      4 O5'        42.6340   43.3130   47.9270 O.3       1 TYM501      0.0000 
      5 C5'        43.0550   44.6480   47.6140 C.3       1 TYM501      0.0000 
      6 C4'        43.2220   45.4780   48.8630 C.3       1 TYM501      0.0000 
      7 O4'        42.0010   45.4450   49.6550 O.3       1 TYM501      0.0000 
      8 C1'        42.2830   45.0290   50.9860 C.3       1 TYM501      0.0000 
      9 N9         41.0870   44.3130   51.4650 N.pl3     1 TYM501      0.0000 
     10 C4         40.2700   44.7160   52.4980 C.ar      1 TYM501      0.0000 
     11 N3         40.4110   45.8280   53.2750 N.ar      1 TYM501      0.0000 
     12 C2         39.4310   45.9240   54.1920 C.ar      1 TYM501      0.0000 
     13 N1         38.3940   45.0790   54.3950 N.ar      1 TYM501      0.0000 
     14 C6         38.2700   43.9650   53.5980 C.ar      1 TYM501      0.0000 
     15 N6         37.2330   43.1490   53.8160 N.pl3     1 TYM501      0.0000 
     16 C5         39.2570   43.7490   52.5850 C.ar      1 TYM501      0.0000 
     17 N7         39.4400   42.7590   51.6320 N.2       1 TYM501      0.0000 
     18 C8         40.5310   43.1330   50.9940 C.2       1 TYM501      0.0000 
     19 C2'        43.5950   44.2300   50.8690 C.3       1 TYM501      0.0000 
     20 O2'        44.2800   44.1300   52.1060 O.3       1 TYM501      0.0000 
     21 C3'        44.3360   45.0280   49.8050 C.3       1 TYM501      0.0000 
     22 O3'        44.9420   46.1760   50.3800 O.3       1 TYM501      0.0000 
     23 NH3        47.8160   40.2440   45.8460 N.4       1 TYM501      0.0000 
     24 CA         47.0890   41.3880   46.3830 C.3       1 TYM501      0.0000 
     25 CB         47.3530   42.6130   45.4970 C.3       1 TYM501      0.0000 
     26 CG         48.5540   43.4330   45.8520 C.2       1 TYM501      0.0000 
     27 CD2        48.6900   44.3460   46.9550 C.ar      1 TYM501      0.0000 
     28 CE2        50.0070   44.8950   46.8770 C.ar      1 TYM501      0.0000 
     29 CE3        47.8300   44.7650   48.0240 C.ar      1 TYM501      0.0000 
     30 CD1        49.7420   43.4660   45.1750 C.2       1 TYM501      0.0000 
     31 NE1        50.6160   44.3370   45.7820 N.pl3     1 TYM501      0.0000 
     32 CZ2        50.4890   45.8490   47.8210 C.ar      1 TYM501      0.0000 
     33 CZ3        48.3050   45.7080   48.9600 C.ar      1 TYM501      0.0000 
     34 CH2        49.6270   46.2390   48.8520 C.ar      1 TYM501      0.0000 
     35 C          45.5830   41.1480   46.3910 C.2       1 TYM501      0.0000 
     36 O          45.1090   40.0970   45.9380 O.2       1 TYM501      0.0000 
     37 OPP        44.7330   42.1520   46.9940 O.3       1 TYM501      0.0000 
     38 H          42.3226   45.1534   46.9608 H         1 TYM501      0.0000 
     39 H          44.0166   44.6453   47.0720 H         1 TYM501      0.0000 
     40 H          43.4233   46.5136   48.5852 H         1 TYM501      0.0000 
     41 H          42.4759   45.9028   51.5910 H         1 TYM501      0.0000 
     42 H          39.4759   46.7944   54.8591 H         1 TYM501      0.0000 
     43 H          37.1637   42.3546   53.2125 H         1 TYM501      0.0000 
     44 H          36.6199   43.4064   54.5629 H         1 TYM501      0.0000 
     45 H          40.9495   42.6340   50.2323 H         1 TYM501      0.0000 
     46 H          43.3333   43.2816   50.4331 H         1 TYM501      0.0000 
     47 H          44.9865   44.3999   49.2868 H         1 TYM501      0.0000 
     48 H          47.4070   41.6263   47.3765 H         1 TYM501      0.0000 
     49 H          46.4438   43.2567   45.5196 H         1 TYM501      0.0000 
     50 H          47.4405   42.2631   44.4428 H         1 TYM501      0.0000 
     51 H          46.8960   44.3828   48.0967 H         1 TYM501      0.0000 
     52 H          49.9436   42.9496   44.3789 H         1 TYM501      0.0000 
     53 H          51.5106   44.5236   45.4847 H         1 TYM501      0.0000 
     54 H          51.4189   46.2215   47.7378 H         1 TYM501      0.0000 
     55 H          47.7028   46.0195   49.7263 H         1 TYM501      0.0000 
     56 H          49.9410   46.9241   49.5557 H         1 TYM501      0.0000 
     57 H          47.6709   39.4209   46.3950 H         1 TYM501      0.0000 
     58 H          47.5307   40.0276   44.9123 H         1 TYM501      0.0000 
     59 H          48.8019   40.4093   45.8204 H         1 TYM501      0.0000 
     60 H          44.6063   43.1856   52.1454 H         1 TYM501      0.0000 
     61 H          45.0887   46.8021   49.6142 H         1 TYM501      0.0000 
@<TRIPOS>BOND
     1    2    1 ar   
     2    3    1 ar   
     3    4    1 1    
     4   37    1 1    
     5    5    4 1    
     6    6    5 1    
     7   38    5 1    
     8   39    5 1    
     9    7    6 1    
    10   21    6 1    
    11   40    6 1    
    12    8    7 1    
    13    9    8 1    
    14   19    8 1    
    15   41    8 1    
    16   10    9 1    
    17   18    9 1    
    18   11   10 ar   
    19   16   10 ar   
    20   12   11 ar   
    21   13   12 ar   
    22   42   12 1    
    23   14   13 ar   
    24   15   14 1    
    25   16   14 ar   
    26   43   15 1    
    27   44   15 1    
    28   17   16 1    
    29   18   17 2    
    30   45   18 1    
    31   20   19 1    
    32   21   19 1    
    33   46   19 1    
    34   60   20 1    
    35   22   21 1    
    36   47   21 1    
    37   61   22 1    
    38   24   23 1    
    39   57   23 1    
    40   58   23 1    
    41   59   23 1    
    42   25   24 1    
    43   35   24 1    
    44   48   24 1    
    45   26   25 1    
    46   49   25 1    
    47   50   25 1    
    48   27   26 1    
    49   30   26 2    
    50   28   27 ar   
    51   29   27 ar   
    52   31   28 1    
    53   32   28 ar   
    54   33   29 ar   
    55   51   29 1    
    56   31   30 1    
    57   52   30 1    
    58   53   31 1    
    59   34   32 ar   
    60   54   32 1    
    61   34   33 ar   
    62   55   33 1    
    63   56   34 1    
    64   36   35 2    
    65   37   35 1    
@<TRIPOS>SUBSTRUCTURE
     1 TYM501      1 GROUP   
@<TRIPOS>SET

