#    Name: 2e5v_FAD_2_INTS_M
#    Modification time : Tue Mar 25 10:38:27 2014

@<TRIPOS>MOLECULE
2e5v_FAD_2_INTS_M
  131     0     9     0     0
SMALL
NO_CHARGES


@<TRIPOS>ATOM
      1 N         -11.8445   -0.7295  -22.8450 N.am      2 SEC2        0.0000 
      2 N         -12.8020   -1.4400  -21.9290 N.am      8 SEL2        0.0000 
      3 N         -10.8870   -0.0190  -23.7610 N.am      5 SEP2        0.0000 
      4 N         -10.5020   -4.0885  -23.3105 N.am      2 SEC2        0.0000 
      5 N         -11.4860   -3.2800  -23.1310 N.am      8 SEL2        0.0000 
      6 N          -9.5180   -4.8970  -23.4900 N.am      5 SEP2        0.0000 
      7 N         -11.1865   -1.6495  -23.4460 N.am      2 SEC2        0.0000 
      8 N         -10.2730   -2.6580  -23.6585 N.am      2 SEC2        0.0000 
      9 N          -9.0600   -2.0360  -24.1860 N.am      5 SEP2        0.0000 
     10 CA        -14.1005   -1.1735  -24.1760 C.3       3 GLC5        0.0000 
     11 CA        -15.2500   -2.4430  -23.3270 C.3       9 GLL5        0.0000 
     12 CA        -12.9510    0.0960  -25.0250 C.3       6 GLP5        0.0000 
     13 CA        -15.3305   -2.1055  -21.2845 C.3       3 GLC5        0.0000 
     14 CA        -15.4110   -1.7680  -19.2420 C.3       6 GLP5        0.0000 
     15 CA        -17.3025   -4.6770  -24.4525 C.3       3 GLC5        0.0000 
     16 CA        -16.1340   -3.1750  -24.3170 C.3       9 GLL5        0.0000 
     17 CA        -18.4710   -6.1790  -24.5880 C.3       6 GLP5        0.0000 
     18 CA        -14.4635   -1.1230  -25.2965 C.3       3 GLC5        0.0000 
     19 CA        -15.9760   -2.3420  -25.5680 C.3       9 GLL5        0.0000 
     20 N         -16.3285   -4.7950  -26.4630 N.am      2 SEC2        0.0000 
     21 N         -15.9510   -3.1890  -26.6940 N.am      8 SEL2        0.0000 
     22 N         -16.7060   -6.4010  -26.2320 N.am      5 SEP2        0.0000 
     23 N         -17.2730   -3.5785  -27.3910 N.am      2 SEC2        0.0000 
     24 N         -18.5950   -3.9680  -28.0880 N.am      5 SEP2        0.0000 
     25 O         -14.6205   -3.4575  -27.0590 O.2       1 ALC1        0.0000 
     26 O         -15.9510   -3.1890  -26.6940 O.2       7 ALL1        0.0000 
     27 O         -13.2900   -3.7260  -27.4240 O.2       4 ALP1        0.0000 
     28 CA        -17.0140    0.6650  -25.6915 C.3       3 GLC5        0.0000 
     29 CA        -17.1960   -1.4550  -25.5650 C.3       9 GLL5        0.0000 
     30 CA        -16.8320    2.7850  -25.8180 C.3       6 GLP5        0.0000 
     31 O         -17.1100   -1.5600  -28.2600 O.2       1 ALC1        0.0000 
     32 O         -17.5130   -1.1090  -26.8930 O.2       7 ALL1        0.0000 
     33 O         -16.7070   -2.0110  -29.6270 O.2       4 ALP1        0.0000 
     34 CA        -18.3390   -4.2695  -24.7300 C.3       3 GLC5        0.0000 
     35 CA        -18.2070   -2.3600  -24.8720 C.3       9 GLL5        0.0000 
     36 CA        -18.3790   -2.8600  -22.7715 C.3       3 GLC5        0.0000 
     37 CA        -18.5510   -3.3600  -20.6710 C.3       6 GLP5        0.0000 
     38 CA        -24.2100   -0.1670  -25.0510 C.3       3 GLC5        0.0000 
     39 CA        -22.7830   -1.2050  -23.8260 C.3       9 GLL5        0.0000 
     40 CA        -25.6370    0.8710  -26.2760 C.3       6 GLP5        0.0000 
     41 CA        -24.5430   -2.3755  -23.4185 C.3       3 GLC5        0.0000 
     42 CA        -26.3030   -3.5460  -23.0110 C.3       6 GLP5        0.0000 
     43 O         -23.8910    0.8840  -22.6495 O.2       1 ALC1        0.0000 
     44 O         -23.5940   -0.4700  -23.0600 O.2       7 ALL1        0.0000 
     45 O         -24.1880    2.2380  -22.2390 O.2       4 ALP1        0.0000 
     46 N         -24.8510   -2.2860  -24.8925 N.am      2 SEC2        0.0000 
     47 N         -23.3200   -2.1990  -24.6230 N.am      8 SEL2        0.0000 
     48 N         -26.3820   -2.3730  -25.1620 N.am      5 SEP2        0.0000 
     49 CA        -22.8255   -4.3675  -24.3165 C.3       3 GLC5        0.0000 
     50 CA        -22.5140   -3.0510  -25.3510 C.3       9 GLL5        0.0000 
     51 CA        -23.1370   -5.6840  -23.2820 C.3       6 GLP5        0.0000 
     52 CA        -21.6800   -3.9355  -26.7935 C.3       3 GLC5        0.0000 
     53 CA        -20.8460   -4.8200  -28.2360 C.3       6 GLP5        0.0000 
     54 CA        -22.3345   -1.5880  -26.6995 C.3       3 GLC5        0.0000 
     55 CA        -22.1550   -0.1250  -28.0480 C.3       6 GLP5        0.0000 
     56 CA        -24.2455   -2.2470  -26.3575 C.3       3 GLC5        0.0000 
     57 CA        -25.9770   -1.4430  -27.3640 C.3       6 GLP5        0.0000 
     58 CA        -24.4085   -3.2985  -24.1810 C.3       3 GLC5        0.0000 
     59 CA        -21.7595   -3.2605  -23.2800 C.3       3 GLC5        0.0000 
     60 CA        -21.0050   -3.4700  -21.2090 C.3       6 GLP5        0.0000 
     61 N         -21.2680   -2.6850  -26.8200 N.am      2 SEC2        0.0000 
     62 N         -21.1560   -2.9280  -25.2600 N.am      8 SEL2        0.0000 
     63 N         -21.3800   -2.4420  -28.3800 N.am      5 SEP2        0.0000 
     64 CA        -20.8070   -0.6985  -25.9205 C.3       3 GLC5        0.0000 
     65 CA        -20.6190   -1.9620  -24.4810 C.3       9 GLL5        0.0000 
     66 CA        -20.9950    0.5650  -27.3600 C.3       6 GLP5        0.0000 
     67 N          -4.4195   -2.7515  -17.2980 N.am      2 SEC2        0.0000 
     68 N          -3.8410   -2.5690  -18.4730 N.am      8 SEL2        0.0000 
     69 N          -4.9980   -2.9340  -16.1230 N.am      5 SEP2        0.0000 
     70 N          -4.0310   -5.2350  -17.6145 N.am      2 SEC2        0.0000 
     71 N          -2.9010   -4.4080  -17.6650 N.am      8 SEL2        0.0000 
     72 N          -5.1610   -6.0620  -17.5640 N.am      5 SEP2        0.0000 
     73 O          -0.8160   -4.4415  -19.2890 O.2       1 ALC1        0.0000 
     74 O          -1.6450   -3.2430  -19.1580 O.2       7 ALL1        0.0000 
     75 O           0.0130   -5.6400  -19.4200 O.2       4 ALP1        0.0000 
     76 CA         -5.0970    5.7205  -21.8485 C.3       3 GLC5        0.0000 
     77 CA         -4.3980    3.9150  -22.8850 C.3       9 GLL5        0.0000 
     78 CA         -5.7960    7.5260  -20.8120 C.3       6 GLP5        0.0000 
     79 CA         -7.0840    3.5135  -23.3065 C.3       3 GLC5        0.0000 
     80 CA         -6.8880    3.4760  -21.2780 C.3       9 GLL5        0.0000 
     81 CA         -7.2800    3.5510  -25.3350 C.3       6 GLP5        0.0000 
     82 CA         -6.3420    5.5010  -21.0450 C.3       3 GLC5        0.0000 
     83 CA         -8.5960    4.2070  -21.7150 C.3       3 GLC5        0.0000 
     84 CA        -10.3040    4.9380  -22.1520 C.3       6 GLP5        0.0000 
     85 CA         -7.2910   -0.6390  -16.8920 C.3       3 GLC5        0.0000 
     86 CA         -6.1300   -0.9160  -18.7090 C.3       9 GLL5        0.0000 
     87 CA         -8.4520   -0.3620  -15.0750 C.3       6 GLP5        0.0000 
     88 CA         -6.1730   -3.7000  -20.3830 C.3       3 GLC5        0.0000 
     89 CA         -6.7910   -2.0420  -19.5070 C.3       9 GLL5        0.0000 
     90 CA         -5.5550   -5.3580  -21.2590 C.3       6 GLP5        0.0000 
     91 O          -9.5275   -1.3280  -17.7045 O.2       1 ALC1        0.0000 
     92 O          -8.5000   -2.2950  -17.8160 O.2       7 ALL1        0.0000 
     93 O         -10.5550   -0.3610  -17.5930 O.2       4 ALP1        0.0000 
     94 CA         -7.1635   -4.4150  -20.5575 C.3       3 GLC5        0.0000 
     95 CA         -8.7720   -3.4720  -19.8560 C.3       9 GLL5        0.0000 
     96 O          -9.0495   -4.1665  -22.3790 O.2       1 ALC1        0.0000 
     97 O          -8.5810   -3.4360  -21.2680 O.2       7 ALL1        0.0000 
     98 O          -9.5180   -4.8970  -23.4900 O.2       4 ALP1        0.0000 
     99 CA        -11.2805   -3.0080  -18.0185 C.3       3 GLC5        0.0000 
    100 CA        -10.2340   -3.7310  -19.4870 C.3       9 GLL5        0.0000 
    101 CA        -12.3270   -2.2850  -16.5500 C.3       6 GLP5        0.0000 
    102 N         -12.0865   -7.6365  -21.7395 N.am      2 SEC2        0.0000 
    103 N         -12.4280   -6.1660  -21.6490 N.am      8 SEL2        0.0000 
    104 N         -11.7450   -9.1070  -21.8300 N.am      5 SEP2        0.0000 
    105 N         -12.8120   -5.0275  -17.8330 N.am      2 SEC2        0.0000 
    106 N         -12.8100   -5.3740  -19.2790 N.am      8 SEL2        0.0000 
    107 N         -12.8140   -4.6810  -16.3870 N.am      5 SEP2        0.0000 
    108 CA        -17.1215   -3.0845  -22.2465 C.3       3 GLC5        0.0000 
    109 CA        -21.8113    0.2195  -25.0715 C.3       3 GLC5        0.0000 
    110 CA        -21.3980   -1.0850  -23.7480 C.3       9 GLL5        0.0000 
    111 CA        -21.5320    1.5840  -26.3560 C.3       6 GLP5        0.0000 
    112 CA        -21.1799   -2.5118  -22.6715 C.3       3 GLC5        0.0000 
    113 CA         -4.0018   -0.6442  -22.0635 C.3       3 GLC5        0.0000 
    114 CA         -4.7550    0.5300  -20.2400 C.3       9 GLL5        0.0000 
    115 CA         -3.8300   -1.9280  -23.5130 C.3       6 GLP5        0.0000 
    116 CA         -2.3545    2.8878  -20.9285 C.3       3 GLC5        0.0000 
    117 CA         -3.5920    0.7490  -20.9880 C.3       9 GLL5        0.0000 
    118 CA         -1.1650    4.4800  -20.4380 C.3       6 GLP5        0.0000 
    119 CA         -3.6990    0.7688  -23.1425 C.3       3 GLC5        0.0000 
    120 CA         -3.4960    1.8420  -21.8500 C.3       9 GLL5        0.0000 
    121 CA         -3.3750   -0.7550  -24.3830 C.3       6 GLP5        0.0000 
    122 CA         -5.8770    3.4400  -23.8773 C.3       3 GLC5        0.0000 
    123 CA         -4.5500    2.7430  -21.9540 C.3       9 GLL5        0.0000 
    124 CA         -2.8195    3.9045  -21.4288 C.3       3 GLC5        0.0000 
    125 CA         -7.6644    1.3411  -21.3906 C.3       3 GLC5        0.0000 
    126 CA         -5.7190    2.5350  -21.2030 C.3       9 GLL5        0.0000 
    127 CA         -9.2690    0.4610  -21.9850 C.3       6 GLP5        0.0000 
    128 CA         -6.7729   -2.7358  -17.4590 C.3       3 GLC5        0.0000 
    129 CA         -8.2790   -2.1880  -19.2040 C.3       9 GLL5        0.0000 
    130 CA         -6.1760   -3.6380  -15.7620 C.3       6 GLP5        0.0000 
    131 CA         -8.7112   -1.1663  -20.7954 C.3       3 GLC5        0.0000 
@<TRIPOS>BOND
@<TRIPOS>SUBSTRUCTURE
     1 ALC1       25 GROUP        1 X    ALC  0     ROOT ALC X 1
     2 SEC2        1 GROUP        1 X    SEC  0     **** SEC X 2
     3 GLC5       10 GROUP        1 X    GLC  0     **** GLC X 6
     4 ALP1       27 GROUP        1 Y    ALP  0     ROOT ALP Y 8
     5 SEP2        3 GROUP        1 Y    SEP  0     **** SEP Y 9
     6 GLP5       12 GROUP        1 Y    GLP  0     **** GLP Y 13
     7 ALL1       26 GROUP        1 Z    ALL  0     ROOT ALL Z 15
     8 SEL2        2 GROUP        1 Z    SEL  0     **** SEL Z 16
     9 GLL5       11 GROUP        1 Z    GLL  0     **** GLL Z 20
@<TRIPOS>SET

