#    Name: 2e5v_FAD_2_ligand
#    Modification time : Tue Mar 25 10:38:27 2014

@<TRIPOS>MOLECULE
2e5v_FAD_2_ligand
   84    89     1     0     0
SMALL
NO_CHARGES


@<TRIPOS>ATOM
      1 PA        -12.8060   -2.8490  -22.5120 P.3       1 FAD1001     0.0000 
      2 O1A       -12.8020   -1.4400  -21.9290 O.co2     1 FAD1001     0.0000 
      3 O2A       -11.4860   -3.2800  -23.1310 O.co2     1 FAD1001     0.0000 
      4 O5B       -14.2630   -3.3880  -22.9850 O.3       1 FAD1001     0.0000 
      5 C5B       -15.2500   -2.4430  -23.3270 C.3       1 FAD1001     0.0000 
      6 C4B       -16.1340   -3.1750  -24.3170 C.3       1 FAD1001     0.0000 
      7 O4B       -17.4880   -3.1030  -23.8970 O.3       1 FAD1001     0.0000 
      8 C3B       -15.9760   -2.3420  -25.5680 C.3       1 FAD1001     0.0000 
      9 O3B       -15.9510   -3.1890  -26.6940 O.3       1 FAD1001     0.0000 
     10 C2B       -17.1960   -1.4550  -25.5650 C.3       1 FAD1001     0.0000 
     11 O2B       -17.5130   -1.1090  -26.8930 O.3       1 FAD1001     0.0000 
     12 C1B       -18.2070   -2.3600  -24.8720 C.3       1 FAD1001     0.0000 
     13 N9A       -19.3230   -1.6310  -24.2520 N.pl3     1 FAD1001     0.0000 
     14 C8A       -19.2980   -0.5760  -23.3790 C.2       1 FAD1001     0.0000 
     15 N7A       -20.5690   -0.2540  -23.0740 N.2       1 FAD1001     0.0000 
     16 C5A       -21.3980   -1.0850  -23.7480 C.ar      1 FAD1001     0.0000 
     17 C6A       -22.7830   -1.2050  -23.8260 C.ar      1 FAD1001     0.0000 
     18 N6A       -23.5940   -0.4700  -23.0600 N.pl3     1 FAD1001     0.0000 
     19 N1A       -23.3200   -2.1990  -24.6230 N.ar      1 FAD1001     0.0000 
     20 C2A       -22.5140   -3.0510  -25.3510 C.ar      1 FAD1001     0.0000 
     21 N3A       -21.1560   -2.9280  -25.2600 N.ar      1 FAD1001     0.0000 
     22 C4A       -20.6190   -1.9620  -24.4810 C.ar      1 FAD1001     0.0000 
     23 N1         -3.8410   -2.5690  -18.4730 N.2       1 FAD1001     0.0000 
     24 C2         -2.7890   -3.4450  -18.4030 C.2       1 FAD1001     0.0000 
     25 O2         -2.9010   -4.4080  -17.6650 O.2       1 FAD1001     0.0000 
     26 N3         -1.6450   -3.2430  -19.1580 N.am      1 FAD1001     0.0000 
     27 C4         -1.5850   -2.1320  -19.9980 C.2       1 FAD1001     0.0000 
     28 O4         -0.6050   -1.8980  -20.6980 O.2       1 FAD1001     0.0000 
     29 C4X        -2.6400   -1.2460  -20.0690 C.2       1 FAD1001     0.0000 
     30 N5         -2.5490   -0.1440  -20.9030 N.2       1 FAD1001     0.0000 
     31 C5X        -3.5920    0.7490  -20.9880 C.ar      1 FAD1001     0.0000 
     32 C6         -3.4960    1.8420  -21.8500 C.ar      1 FAD1001     0.0000 
     33 C7         -4.5500    2.7430  -21.9540 C.ar      1 FAD1001     0.0000 
     34 C7M        -4.3980    3.9150  -22.8850 C.3       1 FAD1001     0.0000 
     35 C8         -5.7190    2.5350  -21.2030 C.ar      1 FAD1001     0.0000 
     36 C8M        -6.8880    3.4760  -21.2780 C.3       1 FAD1001     0.0000 
     37 C9         -5.8160    1.4370  -20.3520 C.ar      1 FAD1001     0.0000 
     38 C9A        -4.7550    0.5300  -20.2400 C.ar      1 FAD1001     0.0000 
     39 N10        -4.8360   -0.5740  -19.3850 N.pl3     1 FAD1001     0.0000 
     40 C10        -3.7760   -1.4650  -19.3030 C.2       1 FAD1001     0.0000 
     41 C1'        -6.1300   -0.9160  -18.7090 C.3       1 FAD1001     0.0000 
     42 C2'        -6.7910   -2.0420  -19.5070 C.3       1 FAD1001     0.0000 
     43 O2'        -6.6340   -1.8060  -20.8950 O.3       1 FAD1001     0.0000 
     44 C3'        -8.2790   -2.1880  -19.2040 C.3       1 FAD1001     0.0000 
     45 O3'        -8.5000   -2.2950  -17.8160 O.3       1 FAD1001     0.0000 
     46 C4'        -8.7720   -3.4720  -19.8560 C.3       1 FAD1001     0.0000 
     47 O4'        -8.5810   -3.4360  -21.2680 O.3       1 FAD1001     0.0000 
     48 C5'       -10.2340   -3.7310  -19.4870 C.3       1 FAD1001     0.0000 
     49 O5'       -10.7420   -4.4700  -20.5790 O.3       1 FAD1001     0.0000 
     50 P         -12.2440   -5.0580  -20.6470 P.3       1 FAD1001     0.0000 
     51 O1P       -12.4280   -6.1660  -21.6490 O.co2     1 FAD1001     0.0000 
     52 O2P       -12.8100   -5.3740  -19.2790 O.co2     1 FAD1001     0.0000 
     53 O3P       -12.9220   -3.6840  -21.1360 O.3       1 FAD1001     0.0000 
     54 H         -14.8411   -1.5753  -23.8177 H         1 FAD1001     0.0000 
     55 H         -15.8559   -2.1527  -22.4847 H         1 FAD1001     0.0000 
     56 H         -15.7694   -4.1276  -24.4811 H         1 FAD1001     0.0000 
     57 H         -15.1119   -1.7399  -25.4600 H         1 FAD1001     0.0000 
     58 H         -16.9882   -0.6334  -24.9263 H         1 FAD1001     0.0000 
     59 H         -18.5945   -3.0452  -25.6339 H         1 FAD1001     0.0000 
     60 H         -18.5031   -0.1489  -23.0493 H         1 FAD1001     0.0000 
     61 H         -23.5278    0.5213  -23.1737 H         1 FAD1001     0.0000 
     62 H         -24.1944   -0.9772  -22.4417 H         1 FAD1001     0.0000 
     63 H         -22.9375   -3.7694  -25.9543 H         1 FAD1001     0.0000 
     64 H          -0.8605   -3.8916  -19.1032 H         1 FAD1001     0.0000 
     65 H          -2.6436    1.9796  -22.4083 H         1 FAD1001     0.0000 
     66 H          -6.6721    1.2880  -19.8000 H         1 FAD1001     0.0000 
     67 H          -6.7855   -0.0589  -18.7008 H         1 FAD1001     0.0000 
     68 H          -5.9468   -1.2588  -17.7024 H         1 FAD1001     0.0000 
     69 H          -6.3040   -2.9790  -19.2272 H         1 FAD1001     0.0000 
     70 H          -8.8027   -1.3686  -19.6428 H         1 FAD1001     0.0000 
     71 H          -8.1836   -4.2975  -19.4159 H         1 FAD1001     0.0000 
     72 H         -10.7194   -2.7781  -19.3680 H         1 FAD1001     0.0000 
     73 H         -10.2497   -4.2866  -18.5656 H         1 FAD1001     0.0000 
     74 H          -3.6200    4.4907  -22.6334 H         1 FAD1001     0.0000 
     75 H          -4.2525    3.6222  -23.8300 H         1 FAD1001     0.0000 
     76 H          -5.2090    4.5001  -22.8810 H         1 FAD1001     0.0000 
     77 H          -6.6376    4.4025  -20.9970 H         1 FAD1001     0.0000 
     78 H          -7.2542    3.5401  -22.2063 H         1 FAD1001     0.0000 
     79 H          -7.6390    3.1832  -20.6862 H         1 FAD1001     0.0000 
     80 H         -14.9810   -3.3567  -26.8701 H         1 FAD1001     0.0000 
     81 H         -16.9355   -1.6977  -27.4586 H         1 FAD1001     0.0000 
     82 H          -7.3319   -2.3718  -21.3342 H         1 FAD1001     0.0000 
     83 H          -9.1967   -1.6075  -17.6112 H         1 FAD1001     0.0000 
     84 H          -9.4321   -3.7924  -21.6533 H         1 FAD1001     0.0000 
@<TRIPOS>BOND
     1    2    1 ar   
     2    3    1 ar   
     3    4    1 1    
     4   53    1 1    
     5    5    4 1    
     6    6    5 1    
     7   54    5 1    
     8   55    5 1    
     9    7    6 1    
    10    8    6 1    
    11   56    6 1    
    12   12    7 1    
    13    9    8 1    
    14   10    8 1    
    15   57    8 1    
    16   80    9 1    
    17   11   10 1    
    18   12   10 1    
    19   58   10 1    
    20   81   11 1    
    21   13   12 1    
    22   59   12 1    
    23   14   13 1    
    24   22   13 1    
    25   15   14 2    
    26   60   14 1    
    27   16   15 1    
    28   17   16 ar   
    29   22   16 ar   
    30   18   17 1    
    31   19   17 ar   
    32   61   18 1    
    33   62   18 1    
    34   20   19 ar   
    35   21   20 ar   
    36   63   20 1    
    37   22   21 ar   
    38   24   23 1    
    39   40   23 2    
    40   25   24 2    
    41   26   24 am   
    42   27   26 am   
    43   64   26 1    
    44   28   27 2    
    45   29   27 1    
    46   30   29 2    
    47   40   29 1    
    48   31   30 1    
    49   32   31 ar   
    50   38   31 ar   
    51   33   32 ar   
    52   65   32 1    
    53   34   33 1    
    54   35   33 ar   
    55   74   34 1    
    56   75   34 1    
    57   76   34 1    
    58   36   35 1    
    59   37   35 ar   
    60   77   36 1    
    61   78   36 1    
    62   79   36 1    
    63   38   37 ar   
    64   66   37 1    
    65   39   38 1    
    66   40   39 1    
    67   41   39 1    
    68   42   41 1    
    69   67   41 1    
    70   68   41 1    
    71   43   42 1    
    72   44   42 1    
    73   69   42 1    
    74   82   43 1    
    75   45   44 1    
    76   46   44 1    
    77   70   44 1    
    78   83   45 1    
    79   47   46 1    
    80   48   46 1    
    81   71   46 1    
    82   84   47 1    
    83   49   48 1    
    84   72   48 1    
    85   73   48 1    
    86   50   49 1    
    87   51   50 ar   
    88   52   50 ar   
    89   53   50 1    
@<TRIPOS>SUBSTRUCTURE
     1 FAD1001     1 GROUP   
@<TRIPOS>SET

