#    Name: 1SRF_2_CAVITY_N1_ALL.mol2
#    Modification time : Tue Mar 11 08:55:13 2014

@<TRIPOS>MOLECULE
1SRF_2_CAVITY_N1_ALL.mol2
   65     0     6     0     0
SMALL
NO_CHARGES


@<TRIPOS>ATOM
      1 CZ         19.9240    5.8419   15.4317 C.ar      4 PHE5        0.0000 
      2 OG         17.8577    5.4192   15.2037 O.2       1 SER1        0.0000 
      3 CZ         19.1217    4.8945   14.5897 C.ar      4 PHE5        0.0000 
      4 CZ         20.3857    4.3698   13.9757 C.ar      4 PHE5        0.0000 
      5 CA         18.3195    3.9471   13.7478 C.3       5 GLY6        0.0000 
      6 CA         19.5835    3.4224   13.1338 C.3       5 GLY6        0.0000 
      7 CA         17.5172    2.9998   12.9058 C.3       5 GLY6        0.0000 
      8 DU         18.7812    2.4751   12.2918 H         6 CUB7        0.0000 
      9 CA         20.0452    1.9504   11.6778 C.3       5 GLY6        0.0000 
     10 CA         16.7149    2.0524   12.0639 C.3       5 GLY6        0.0000 
     11 CZ         17.9789    1.5277   11.4499 C.ar      4 PHE5        0.0000 
     12 CZ         19.2429    1.0030   10.8358 C.ar      4 PHE5        0.0000 
     13 CZ         20.2924    5.4077   12.8968 C.ar      4 PHE5        0.0000 
     14 OG         16.9622    5.5097   13.2829 O.2       1 SER1        0.0000 
     15 CZ         18.2262    4.9850   12.6688 C.ar      4 PHE5        0.0000 
     16 OG         19.4902    4.4603   12.0548 O.2       1 SER1        0.0000 
     17 CA         20.7542    3.9356   11.4408 C.3       5 GLY6        0.0000 
     18 CA         16.1599    4.5624   12.4409 C.3       5 GLY6        0.0000 
     19 CA         17.4239    4.0377   11.8269 C.3       5 GLY6        0.0000 
     20 DU         18.6879    3.5130   11.2129 H         6 CUB7        0.0000 
     21 CZ         19.9519    2.9883   10.5989 C.ar      4 PHE5        0.0000 
     22 CA         16.6217    3.0903   10.9849 C.3       5 GLY6        0.0000 
     23 CZ         17.8856    2.5656   10.3709 C.ar      4 PHE5        0.0000 
     24 CZ         17.0834    1.6182    9.5290 C.ar      4 PHE5        0.0000 
     25 CZ         18.1329    6.0229   11.5899 C.ar      4 PHE5        0.0000 
     26 OG         19.3969    5.4982   10.9759 O.2       1 SER1        0.0000 
     27 OG         16.0666    5.6002   11.3620 O.2       1 SER1        0.0000 
     28 CZ         17.3306    5.0755   10.7480 C.ar      4 PHE5        0.0000 
     29 CZ         18.5946    4.5508   10.1339 C.ar      4 PHE5        0.0000 
     30 CZ         19.8586    4.0261    9.5199 C.ar      4 PHE5        0.0000 
     31 NZ         16.5284    4.1282    9.9060 N.2       3 LYS4        0.0000 
     32 CZ         17.7924    3.6035    9.2920 C.ar      4 PHE5        0.0000 
     33 N          20.9128    4.7135   18.4315 N.2       2 ALA2        0.0000 
     34 CA         22.1768    4.1888   17.8175 C.3       5 GLY6        0.0000 
     35 OG         23.4408    3.6641   17.2035 O.2       1 SER1        0.0000 
     36 O          20.1106    3.7661   17.5895 O.2       2 ALA2        0.0000 
     37 O          21.3746    3.2414   16.9755 O.2       2 ALA2        0.0000 
     38 OG         22.6385    2.7167   16.3615 O.2       1 SER1        0.0000 
     39 OG         23.9025    2.1920   15.7475 O.2       1 SER1        0.0000 
     40 CA         20.5723    2.2940   16.1336 C.3       5 GLY6        0.0000 
     41 CA         21.8363    1.7693   15.5196 C.3       5 GLY6        0.0000 
     42 CA         23.1003    1.2446   14.9055 C.3       5 GLY6        0.0000 
     43 CA         19.7700    1.3467   15.2916 C.3       5 GLY6        0.0000 
     44 O          17.7038    0.9240   15.0637 O.2       2 ALA2        0.0000 
     45 CZ         20.8195    5.7513   17.3526 C.ar      4 PHE5        0.0000 
     46 CA         22.0835    5.2266   16.7385 C.3       5 GLY6        0.0000 
     47 N          18.7533    5.3287   17.1246 N.2       2 ALA2        0.0000 
     48 CZ         20.0173    4.8040   16.5106 C.ar      4 PHE5        0.0000 
     49 CZ         21.2813    4.2793   15.8966 C.ar      4 PHE5        0.0000 
     50 CA         22.5453    3.7546   15.2826 C.3       5 GLY6        0.0000 
     51 CA         19.2150    3.8566   15.6687 C.3       5 GLY6        0.0000 
     52 CA         20.4790    3.3319   15.0546 C.3       5 GLY6        0.0000 
     53 CA         18.4128    2.9093   14.8267 C.3       5 GLY6        0.0000 
     54 CA         19.6767    2.3846   14.2127 C.3       5 GLY6        0.0000 
     55 CA         17.6105    1.9619   13.9848 C.3       5 GLY6        0.0000 
     56 DU         18.8745    1.4372   13.3707 H         6 CUB7        0.0000 
     57 CA         23.6274    1.5883   19.3613 C.3       5 GLY6        0.0000 
     58 CA         22.2701    3.1509   18.8964 C.3       5 GLY6        0.0000 
     59 CA         23.5341    2.6262   18.2824 C.3       5 GLY6        0.0000 
     60 OG         24.7981    2.1015   17.6684 O.2       1 SER1        0.0000 
     61 O          21.4678    2.2035   18.0545 O.2       2 ALA2        0.0000 
     62 O          22.7318    1.6788   17.4404 O.2       2 ALA2        0.0000 
     63 DU         23.9958    1.1541   16.8264 H         6 CUB7        0.0000 
     64 CA         20.6656    1.2562   17.2125 C.3       5 GLY6        0.0000 
     65 DU         21.9296    0.7315   16.5985 H         6 CUB7        0.0000 
@<TRIPOS>BOND
@<TRIPOS>SUBSTRUCTURE
     1 SER1        2 GROUP   
     2 ALA2       33 GROUP   
     3 LYS4       31 GROUP   
     4 PHE5        1 GROUP   
     5 GLY6        5 GROUP   
     6 CUB7        8 GROUP   
@<TRIPOS>SET

