#    Name: 1srf_MTB_2_INTS_M
#    Modification time : Tue Mar 25 02:41:35 2014

@<TRIPOS>MOLECULE
1srf_MTB_2_INTS_M
   46     0     6     0     0
SMALL
NO_CHARGES


@<TRIPOS>ATOM
      1 CA         16.3455    4.0530   13.2330 C.3       2 GLC5        0.0000 
      2 CA         17.2610    5.2840   11.5920 C.3       6 GLL5        0.0000 
      3 CA         15.4300    2.8220   14.8740 C.3       4 GLP5        0.0000 
      4 CA         21.1495    3.2040   11.7160 C.3       2 GLC5        0.0000 
      5 CA         19.3930    4.2480   11.0770 C.3       6 GLL5        0.0000 
      6 CA         22.9060    2.1600   12.3550 C.3       4 GLP5        0.0000 
      7 CA         17.2995    7.1875   17.0240 C.3       2 GLC5        0.0000 
      8 CA         18.8290    6.8320   17.6640 C.3       6 GLL5        0.0000 
      9 CA         15.7700    7.5430   16.3840 C.3       4 GLP5        0.0000 
     10 CA         18.8355    8.6050   18.4615 C.3       2 GLC5        0.0000 
     11 CA         18.8420   10.3780   19.2590 C.3       4 GLP5        0.0000 
     12 CA         19.5810    6.8340   19.7055 C.3       2 GLC5        0.0000 
     13 CA         20.6960    6.2910   19.2670 C.3       6 GLL5        0.0000 
     14 CA         18.4660    7.3770   20.1440 C.3       4 GLP5        0.0000 
     15 CA         20.3385    8.2305   19.6450 C.3       2 GLC5        0.0000 
     16 CA         19.9810   10.1700   20.0230 C.3       4 GLP5        0.0000 
     17 CA         22.6345    5.7535   19.3870 C.3       2 GLC5        0.0000 
     18 CA         24.5730    5.2160   19.5070 C.3       4 GLP5        0.0000 
     19 CA         19.3365    3.8500   20.0780 C.3       2 GLC5        0.0000 
     20 CA         18.5610    4.7960   19.0020 C.3       6 GLL5        0.0000 
     21 CA         20.1120    2.9040   21.1540 C.3       4 GLP5        0.0000 
     22 N          14.2615    6.4185   10.8295 N.am      1 SEC2        0.0000 
     23 N          15.0900    6.4390   12.0810 N.am      5 SEL2        0.0000 
     24 N          13.4330    6.3980    9.5780 N.am      3 SEP2        0.0000 
     25 N          14.0645    6.5740   12.6835 N.am      1 SEC2        0.0000 
     26 N          13.0390    6.7090   13.2860 N.am      3 SEP2        0.0000 
     27 CA         15.5188    3.8598   11.2797 C.3       2 GLC5        0.0000 
     28 CA         13.9390    2.4270   11.6470 C.3       4 GLP5        0.0000 
     29 CA         20.3513    5.6132    9.6103 C.3       2 GLC5        0.0000 
     30 CA         17.8390    4.8140    9.2950 C.3       6 GLL5        0.0000 
     31 CA         21.7790    6.8260    8.9290 C.3       4 GLP5        0.0000 
     32 CA         19.1953    3.2170   16.7638 C.3       2 GLC5        0.0000 
     33 CA         20.5290    4.1880   15.0170 C.3       6 GLL5        0.0000 
     34 CA         18.1770    1.8700   18.0190 C.3       4 GLP5        0.0000 
     35 CA         21.9782    2.9550   13.7705 C.3       2 GLC5        0.0000 
     36 CA         20.4725    3.6472   19.3300 C.3       2 GLC5        0.0000 
     37 CA         20.3250    4.8320   17.3240 C.3       6 GLL5        0.0000 
     38 CA         23.1172    4.3933   18.3480 C.3       2 GLC5        0.0000 
     39 CA         21.3410    3.9490   17.6880 C.3       6 GLL5        0.0000 
     40 CA         19.7922    2.8306   17.5585 C.3       2 GLC5        0.0000 
     41 CA         18.6337    3.5570   18.3540 C.3       2 GLC5        0.0000 
     42 CA         20.1350    4.4478   19.9877 C.3       2 GLC5        0.0000 
     43 CA         19.6200    5.6920   18.3760 C.3       6 GLL5        0.0000 
     44 CA         20.2241    7.4977   17.4352 C.3       2 GLC5        0.0000 
     45 CA         20.4880    8.7190   16.2270 C.3       4 GLP5        0.0000 
     46 CA         18.7234    6.3993   19.2617 C.3       2 GLC5        0.0000 
@<TRIPOS>BOND
@<TRIPOS>SUBSTRUCTURE
     1 SEC2       22 GROUP        1 X    SEC  0     ROOT SEC X 2
     2 GLC5        1 GROUP        1 X    GLC  0     **** GLC X 6
     3 SEP2       24 GROUP        1 Y    SEP  0     ROOT SEP Y 9
     4 GLP5        3 GROUP        1 Y    GLP  0     **** GLP Y 13
     5 SEL2       23 GROUP        1 Z    SEL  0     ROOT SEL Z 16
     6 GLL5        2 GROUP        1 Z    GLL  0     **** GLL Z 20
@<TRIPOS>SET

