#    Name: 1srf_MTB_2_ligand
#    Modification time : Tue Mar 25 02:41:35 2014

@<TRIPOS>MOLECULE
1srf_MTB_2_ligand
   39    40     1     0     0
SMALL
NO_CHARGES


@<TRIPOS>ATOM
      1 C1         18.4670    4.7520   12.0050 C.ar      1 MTB300      0.0000 
      2 C2         17.2610    5.2840   11.5920 C.ar      1 MTB300      0.0000 
      3 C3         16.9360    5.3010   10.2330 C.ar      1 MTB300      0.0000 
      4 C4         17.8390    4.8140    9.2950 C.ar      1 MTB300      0.0000 
      5 C5         19.0690    4.2920    9.7170 C.ar      1 MTB300      0.0000 
      6 C6         19.3930    4.2480   11.0770 C.ar      1 MTB300      0.0000 
      7 C1'        20.5290    4.1880   15.0170 C.ar      1 MTB300      0.0000 
      8 C2'        19.8980    4.9400   16.0000 C.ar      1 MTB300      0.0000 
      9 C3'        20.3250    4.8320   17.3240 C.ar      1 MTB300      0.0000 
     10 C4'        21.3410    3.9490   17.6880 C.ar      1 MTB300      0.0000 
     11 C5'        21.9820    3.1920   16.6900 C.ar      1 MTB300      0.0000 
     12 C6'        21.5720    3.3120   15.3550 C.ar      1 MTB300      0.0000 
     13 C          16.2540    5.8460   12.6190 C.2       1 MTB300      0.0000 
     14 CT3        19.6200    5.6920   18.3760 C.3       1 MTB300      0.0000 
     15 CHV        18.8290    6.8320   17.6640 C.3       1 MTB300      0.0000 
     16 CHW        20.6960    6.2910   19.2670 C.3       1 MTB300      0.0000 
     17 CHX        18.5610    4.7960   19.0020 C.3       1 MTB300      0.0000 
     18 N1         18.8260    4.6960   13.4520 N.2       1 MTB300      0.0000 
     19 N1'        20.0330    4.3370   13.6420 N.2       1 MTB300      0.0000 
     20 O          15.0900    6.4390   12.0810 O.co2     1 MTB300      0.0000 
     21 OXT        16.4330    5.7900   13.8200 O.co2     1 MTB300      0.0000 
     22 O4'        21.7240    3.8560   19.0580 O.3       1 MTB300      0.0000 
     23 H          16.0279    5.6745    9.9300 H         1 MTB300      0.0000 
     24 H          17.6103    4.8345    8.2956 H         1 MTB300      0.0000 
     25 H          19.7383    3.9386    9.0202 H         1 MTB300      0.0000 
     26 H          20.2774    3.8608   11.3891 H         1 MTB300      0.0000 
     27 H          19.1271    5.5680   15.7582 H         1 MTB300      0.0000 
     28 H          22.7433    2.5578   16.9400 H         1 MTB300      0.0000 
     29 H          22.0333    2.7605   14.6254 H         1 MTB300      0.0000 
     30 H          19.4307    7.4199   17.1233 H         1 MTB300      0.0000 
     31 H          18.1357    6.4699   17.0409 H         1 MTB300      0.0000 
     32 H          18.3555    7.4207   18.3191 H         1 MTB300      0.0000 
     33 H          21.2382    5.5840   19.7210 H         1 MTB300      0.0000 
     34 H          21.3331    6.8609   18.7481 H         1 MTB300      0.0000 
     35 H          20.3054    6.8671   19.9850 H         1 MTB300      0.0000 
     36 H          18.9645    3.9875   19.4304 H         1 MTB300      0.0000 
     37 H          18.0412    5.2742   19.7099 H         1 MTB300      0.0000 
     38 H          17.9020    4.4704   18.3240 H         1 MTB300      0.0000 
     39 H          22.6900    3.5983   19.0396 H         1 MTB300      0.0000 
@<TRIPOS>BOND
     1    2    1 ar   
     2    6    1 ar   
     3   18    1 1    
     4    3    2 ar   
     5   13    2 1    
     6    4    3 ar   
     7   23    3 1    
     8    5    4 ar   
     9   24    4 1    
    10    6    5 ar   
    11   25    5 1    
    12   26    6 1    
    13    8    7 ar   
    14   12    7 ar   
    15   19    7 1    
    16    9    8 ar   
    17   27    8 1    
    18   10    9 ar   
    19   14    9 1    
    20   11   10 ar   
    21   22   10 1    
    22   12   11 ar   
    23   28   11 1    
    24   29   12 1    
    25   20   13 ar   
    26   21   13 ar   
    27   15   14 1    
    28   16   14 1    
    29   17   14 1    
    30   30   15 1    
    31   31   15 1    
    32   32   15 1    
    33   33   16 1    
    34   34   16 1    
    35   35   16 1    
    36   36   17 1    
    37   37   17 1    
    38   38   17 1    
    39   19   18 2    
    40   39   22 1    
@<TRIPOS>SUBSTRUCTURE
     1 MTB300      1 GROUP   
@<TRIPOS>SET

