#    Name: 1wc0_APC_2_INTS_M
#    Modification time : Tue Mar 25 08:54:46 2014

@<TRIPOS>MOLECULE
1wc0_APC_2_INTS_M
   50     0    12     0     0
SMALL
NO_CHARGES


@<TRIPOS>ATOM
      1 N          39.6210    6.8800   62.6735 N.am      2 SEC2        0.0000 
      2 N          39.3510    6.3000   61.3020 N.am     10 SEL2        0.0000 
      3 N          39.8910    7.4600   64.0450 N.am      6 SEP2        0.0000 
      4 N          40.5885    5.3915   60.9210 N.am      2 SEC2        0.0000 
      5 N          41.8260    4.4830   60.5400 N.am      6 SEP2        0.0000 
      6 N          37.4040    3.7920   62.1030 N.am      2 SEC2        0.0000 
      7 N          37.3800    5.1010   62.1760 N.am     10 SEL2        0.0000 
      8 N          37.4280    2.4830   62.0300 N.am      6 SEP2        0.0000 
      9 NZ         34.2410   10.0505   60.5845 N.4       3 LYC4        0.0000 
     10 NZ         35.0520    8.9110   61.2170 N.4      11 LYL4        0.0000 
     11 NZ         33.4300   11.1900   59.9520 N.4       7 LYP4        0.0000 
     12 N          34.2410   10.0505   60.5845 N.am      2 SEC2        0.0000 
     13 N          35.0520    8.9110   61.2170 N.am     10 SEL2        0.0000 
     14 N          33.4300   11.1900   59.9520 N.am      6 SEP2        0.0000 
     15 NZ         33.2295    9.9455   59.3405 N.4       3 LYC4        0.0000 
     16 NZ         33.0290    8.7010   58.7290 N.4      11 LYL4        0.0000 
     17 CA         34.9640    5.2855   55.3055 C.3       4 GLC5        0.0000 
     18 CA         33.6410    5.3780   56.8140 C.3      12 GLL5        0.0000 
     19 CA         36.2870    5.1930   53.7970 C.3       8 GLP5        0.0000 
     20 CA         33.8370    4.6795   54.4800 C.3       4 GLC5        0.0000 
     21 CA         32.4190    4.9020   56.0360 C.3      12 GLL5        0.0000 
     22 CA         35.2550    4.4570   52.9240 C.3       8 GLP5        0.0000 
     23 CA         31.2595    3.5030   54.1420 C.3       4 GLC5        0.0000 
     24 CA         31.6930    2.6620   55.7900 C.3      12 GLL5        0.0000 
     25 CA         30.8260    4.3440   52.4940 C.3       8 GLP5        0.0000 
     26 CA         32.4450   -2.8740   54.1950 C.3       4 GLC5        0.0000 
     27 CA         32.7810   -2.1400   55.9780 C.3      12 GLL5        0.0000 
     28 CA         32.1090   -3.6080   52.4120 C.3       8 GLP5        0.0000 
     29 O          33.5985   -4.4100   55.5265 O.2       1 ALC1        0.0000 
     30 O          33.7570   -3.0170   55.9970 O.2       9 ALL1        0.0000 
     31 O          33.4400   -5.8030   55.0560 O.2       5 ALP1        0.0000 
     32 N          31.0445   -3.8545   56.1225 N.am      2 SEC2        0.0000 
     33 N          31.4870   -2.5780   55.9780 N.am     10 SEL2        0.0000 
     34 N          30.6020   -5.1310   56.2670 N.am      6 SEP2        0.0000 
     35 CA         29.3145   -3.2895   56.3435 C.3       4 GLC5        0.0000 
     36 CA         30.4700   -1.6210   55.9490 C.3      12 GLL5        0.0000 
     37 CA         28.1590   -4.9580   56.7380 C.3       8 GLP5        0.0000 
     38 CA         30.4650   -2.5575   54.4945 C.3       4 GLC5        0.0000 
     39 CA         30.4600   -3.4940   53.0400 C.3       8 GLP5        0.0000 
     40 CA         29.7430   -1.0015   57.5190 C.3       4 GLC5        0.0000 
     41 CA         29.0160   -0.3820   59.0890 C.3       8 GLP5        0.0000 
     42 CA         30.4600   -0.1435   57.4990 C.3       4 GLC5        0.0000 
     43 CA         31.9040    0.0950   55.9090 C.3      12 GLL5        0.0000 
     44 CA         31.3270    4.5700   54.4898 C.3       4 GLC5        0.0000 
     45 CA         31.2370    4.6900   56.9350 C.3      12 GLL5        0.0000 
     46 CA         33.4047   -0.4328   54.3216 C.3       4 GLC5        0.0000 
     47 CA         33.0010   -0.7360   55.9530 C.3      12 GLL5        0.0000 
     48 CA         34.4120   -0.1940   52.7060 C.3       8 GLP5        0.0000 
     49 CA         33.2118   -1.0843   57.6396 C.3       4 GLC5        0.0000 
     50 CA         34.0260   -1.4970   59.3420 C.3       8 GLP5        0.0000 
@<TRIPOS>BOND
@<TRIPOS>SUBSTRUCTURE
     1 ALC1       29 GROUP        1 X    ALC  0     ROOT ALC X 1
     2 SEC2        1 GROUP        1 X    SEC  0     **** SEC X 2
     3 LYC4        9 GROUP        1 X    LYC  0     **** LYC X 4
     4 GLC5       17 GROUP        1 X    GLC  0     **** GLC X 6
     5 ALP1       31 GROUP        1 Y    ALP  0     ROOT ALP Y 8
     6 SEP2        3 GROUP        1 Y    SEP  0     **** SEP Y 9
     7 LYP4       11 GROUP        1 Y    LYP  0     **** LYP Y 11
     8 GLP5       19 GROUP        1 Y    GLP  0     **** GLP Y 13
     9 ALL1       30 GROUP        1 Z    ALL  0     ROOT ALL Z 15
    10 SEL2        2 GROUP        1 Z    SEL  0     **** SEL Z 16
    11 LYL4       10 GROUP        1 Z    LYL  0     **** LYL Z 18
    12 GLL5       18 GROUP        1 Z    GLL  0     **** GLL Z 20
@<TRIPOS>SET

