#    Name: 1wc0_APC_2_ligand
#    Modification time : Tue Mar 25 08:54:46 2014

@<TRIPOS>MOLECULE
1wc0_APC_2_ligand
   45    47     1     0     0
SMALL
NO_CHARGES


@<TRIPOS>ATOM
      1 PG         37.8830    5.9990   61.0840 P.3       1 APC1500     0.0000 
      2 O1G        37.7280    5.2600   59.7430 O.co2     1 APC1500     0.0000 
      3 O2G        39.3510    6.3000   61.3020 O.co2     1 APC1500     0.0000 
      4 O3G        37.3800    5.1010   62.1760 O.co2     1 APC1500     0.0000 
      5 PB         35.5420    7.4820   60.8420 P.3       1 APC1500     0.0000 
      6 O1B        34.7790    6.4700   61.7350 O.co2     1 APC1500     0.0000 
      7 O2B        35.0520    8.9110   61.2170 O.co2     1 APC1500     0.0000 
      8 O3B        37.1040    7.4100   61.0850 O.3       1 APC1500     0.0000 
      9 PA         33.5620    7.2220   58.6350 P.3       1 APC1500     0.0000 
     10 O1A        32.6870    6.2820   59.5160 O.co2     1 APC1500     0.0000 
     11 O2A        33.0290    8.7010   58.7290 O.co2     1 APC1500     0.0000 
     12 C3A        35.2850    7.1670   59.1080 C.3       1 APC1500     0.0000 
     13 O5'        33.5010    6.7350   57.1070 O.3       1 APC1500     0.0000 
     14 C5'        33.6410    5.3780   56.8140 C.3       1 APC1500     0.0000 
     15 C4'        32.4190    4.9020   56.0360 C.3       1 APC1500     0.0000 
     16 O4'        32.6470    3.6500   55.3520 O.3       1 APC1500     0.0000 
     17 C3'        31.2370    4.6900   56.9350 C.3       1 APC1500     0.0000 
     18 O3'        30.0820    5.2240   56.2130 O.3       1 APC1500     0.0000 
     19 C2'        31.2160    3.1690   57.1410 C.3       1 APC1500     0.0000 
     20 O2'        29.8860    2.7330   57.4930 O.3       1 APC1500     0.0000 
     21 C1'        31.6930    2.6620   55.7900 C.3       1 APC1500     0.0000 
     22 N9         32.4200    1.3920   55.8640 N.pl3     1 APC1500     0.0000 
     23 C8         33.7850    1.2290   55.8880 C.2       1 APC1500     0.0000 
     24 N7         34.1980    0.0180   55.9430 N.2       1 APC1500     0.0000 
     25 C5         33.0010   -0.7360   55.9530 C.ar      1 APC1500     0.0000 
     26 C6         32.7810   -2.1400   55.9780 C.ar      1 APC1500     0.0000 
     27 N6         33.7570   -3.0170   55.9970 N.pl3     1 APC1500     0.0000 
     28 N1         31.4870   -2.5780   55.9780 N.ar      1 APC1500     0.0000 
     29 C2         30.4700   -1.6210   55.9490 C.ar      1 APC1500     0.0000 
     30 N3         30.5840   -0.3040   55.9140 N.ar      1 APC1500     0.0000 
     31 C4         31.9040    0.0950   55.9090 C.ar      1 APC1500     0.0000 
     32 H          35.6213    6.1957   58.9180 H         1 APC1500     0.0000 
     33 H          35.7691    7.9291   58.5812 H         1 APC1500     0.0000 
     34 H          33.7163    4.7569   57.7174 H         1 APC1500     0.0000 
     35 H          34.5248    5.1690   56.1954 H         1 APC1500     0.0000 
     36 H          32.1496    5.6711   55.3114 H         1 APC1500     0.0000 
     37 H          31.4161    5.1729   57.8472 H         1 APC1500     0.0000 
     38 H          31.9509    2.9389   57.8706 H         1 APC1500     0.0000 
     39 H          30.8797    2.6160   55.1202 H         1 APC1500     0.0000 
     40 H          34.3906    2.0511   55.8619 H         1 APC1500     0.0000 
     41 H          34.6841   -2.6431   56.0226 H         1 APC1500     0.0000 
     42 H          33.4844   -3.9790   55.9840 H         1 APC1500     0.0000 
     43 H          29.4572   -2.0430   55.9570 H         1 APC1500     0.0000 
     44 H          29.8704    6.0894   56.6673 H         1 APC1500     0.0000 
     45 H          29.2907    3.5004   57.2550 H         1 APC1500     0.0000 
@<TRIPOS>BOND
     1    2    1 ar   
     2    3    1 ar   
     3    4    1 ar   
     4    8    1 1    
     5    6    5 ar   
     6    7    5 ar   
     7    8    5 1    
     8   12    5 1    
     9   10    9 ar   
    10   11    9 ar   
    11   12    9 1    
    12   13    9 1    
    13   32   12 1    
    14   33   12 1    
    15   14   13 1    
    16   15   14 1    
    17   34   14 1    
    18   35   14 1    
    19   16   15 1    
    20   17   15 1    
    21   36   15 1    
    22   21   16 1    
    23   18   17 1    
    24   19   17 1    
    25   37   17 1    
    26   44   18 1    
    27   20   19 1    
    28   21   19 1    
    29   38   19 1    
    30   45   20 1    
    31   22   21 1    
    32   39   21 1    
    33   23   22 1    
    34   31   22 1    
    35   24   23 2    
    36   40   23 1    
    37   25   24 1    
    38   26   25 ar   
    39   31   25 ar   
    40   27   26 1    
    41   28   26 ar   
    42   41   27 1    
    43   42   27 1    
    44   29   28 ar   
    45   30   29 ar   
    46   43   29 1    
    47   31   30 ar   
@<TRIPOS>SUBSTRUCTURE
     1 APC1500     1 GROUP   
@<TRIPOS>SET

