#    Name: 2zda_32U_1_INTS_M
#    Modification time : Tue Mar 25 10:34:17 2014

@<TRIPOS>MOLECULE
2zda_32U_1_INTS_M
   72     0    12     0     0
SMALL
NO_CHARGES


@<TRIPOS>ATOM
      1 O          15.4620  -15.2455   23.9355 O.2       1 ALC1        0.0000 
      2 O          16.4070  -15.9690   23.2170 O.2       9 ALL1        0.0000 
      3 O          14.5170  -14.5220   24.6540 O.2       5 ALP1        0.0000 
      4 N          15.7360  -12.4985   24.0140 N.am      2 SEC2        0.0000 
      5 N          16.7470  -13.1380   23.0070 N.am     10 SEL2        0.0000 
      6 N          14.7250  -11.8590   25.0210 N.am      6 SEP2        0.0000 
      7 CA         17.6585  -13.6745   26.1995 C.3       4 GLC5        0.0000 
      8 CA         18.2000  -15.1780   24.7660 C.3      12 GLL5        0.0000 
      9 CA         17.1170  -12.1710   27.6330 C.3       8 GLP5        0.0000 
     10 CA         16.7220  -15.8675   26.2805 C.3       4 GLC5        0.0000 
     11 CA         15.2440  -16.5570   27.7950 C.3       8 GLP5        0.0000 
     12 CA         22.7655  -11.9690   23.7090 C.3       4 GLC5        0.0000 
     13 CA         22.2700  -13.7180   24.9670 C.3      12 GLL5        0.0000 
     14 CA         23.2610  -10.2200   22.4510 C.3       8 GLP5        0.0000 
     15 CA         17.9060  -11.3920   22.8860 C.3       4 GLC5        0.0000 
     16 CA         18.4020  -12.1880   21.1060 C.3      12 GLL5        0.0000 
     17 CA         17.4100  -10.5960   24.6660 C.3       8 GLP5        0.0000 
     18 CA         19.3115  -10.5660   19.0400 C.3       4 GLC5        0.0000 
     19 CA         19.4930  -12.2580   19.9960 C.3      12 GLL5        0.0000 
     20 CA         19.1300   -8.8740   18.0840 C.3       8 GLP5        0.0000 
     21 O          16.7820   -9.7590   21.3255 O.2       1 ALC1        0.0000 
     22 O          16.4400  -10.8940   20.4880 O.2       9 ALL1        0.0000 
     23 O          17.1240   -8.6240   22.1630 O.2       5 ALP1        0.0000 
     24 CA         15.2570   -8.9890   18.4800 C.3       4 GLC5        0.0000 
     25 CA         15.1610  -10.8260   19.7490 C.3      12 GLL5        0.0000 
     26 CA         15.3530   -7.1520   17.2110 C.3       8 GLP5        0.0000 
     27 OD1         9.3275   -9.6020   25.1065 O.co2     3 ASC3        0.0000 
     28 OD1        10.8850  -10.8290   23.9030 O.co2    11 ASL3        0.0000 
     29 OD1         8.0600   -9.5070   25.6850 O.co2     7 ASP3        0.0000 
     30 OD1         9.0245  -11.8010   24.9145 O.co2     3 ASC3        0.0000 
     31 OD1         7.8140  -11.6680   25.6340 O.co2     7 ASP3        0.0000 
     32 O           9.3275   -9.6020   25.1065 O.2       1 ALC1        0.0000 
     33 O          10.5950   -9.6970   24.5280 O.2       9 ALL1        0.0000 
     34 O           8.0600   -9.5070   25.6850 O.2       5 ALP1        0.0000 
     35 O           9.0245  -11.8010   24.9145 O.2       1 ALC1        0.0000 
     36 O          10.2350  -11.9340   24.1950 O.2       9 ALL1        0.0000 
     37 O           7.8140  -11.6680   25.6340 O.2       5 ALP1        0.0000 
     38 O          10.2935  -13.3880   24.1095 O.2       1 ALC1        0.0000 
     39 O          10.3520  -14.8420   24.0240 O.2       5 ALP1        0.0000 
     40 CA         10.7265   -8.3720   22.1760 C.3       4 GLC5        0.0000 
     41 CA         12.4720   -9.6480   22.2100 C.3      12 GLL5        0.0000 
     42 CA          8.9810   -7.0960   22.1420 C.3       8 GLP5        0.0000 
     43 CA         19.6086  -15.1988   26.5302 C.3       4 GLC5        0.0000 
     44 CA         19.4080  -15.1890   28.4410 C.3       8 GLP5        0.0000 
     45 CA         20.6800  -11.4970   24.0403 C.3       4 GLC5        0.0000 
     46 CA         19.8990  -13.3910   25.2910 C.3      12 GLL5        0.0000 
     47 CA         20.8120   -9.8450   22.7540 C.3       8 GLP5        0.0000 
     48 CA         19.9780  -14.1690   26.8837 C.3       4 GLC5        0.0000 
     49 CA         21.1970  -12.9070   25.3620 C.3      12 GLL5        0.0000 
     50 CA         18.9790  -11.8725   24.9962 C.3       4 GLC5        0.0000 
     51 CA         23.0033  -12.4203   26.3298 C.3       4 GLC5        0.0000 
     52 CA         24.2730  -11.5280   27.4950 C.3       8 GLP5        0.0000 
     53 CA         21.9417  -13.9395   20.4190 C.3       4 GLC5        0.0000 
     54 CA         20.5540  -13.1510   20.6840 C.3      12 GLL5        0.0000 
     55 CA         23.7490  -14.1640   19.8260 C.3       8 GLP5        0.0000 
     56 CA         20.2814  -11.2660   21.6857 C.3       4 GLC5        0.0000 
     57 CA         19.3246  -14.4294   19.2550 C.3       4 GLC5        0.0000 
     58 CA         18.7800  -15.3670   17.6700 C.3       8 GLP5        0.0000 
     59 CA         14.9572  -10.7332   22.6375 C.3       4 GLC5        0.0000 
     60 CA         13.6330  -12.0110   21.3850 C.3      12 GLL5        0.0000 
     61 CA         16.0700  -10.0540   24.1720 C.3       8 GLP5        0.0000 
     62 CA         14.2035  -10.7435   23.3710 C.3       4 GLC5        0.0000 
     63 CA         12.0380  -10.8380   22.7830 C.3      12 GLL5        0.0000 
     64 CA         13.1281  -11.9784   24.0400 C.3       4 GLC5        0.0000 
     65 CA         13.6700  -12.5280   25.7530 C.3       8 GLP5        0.0000 
     66 CA         10.7557  -10.7342   21.1695 C.3       4 GLC5        0.0000 
     67 CA         12.6360  -12.0280   22.3570 C.3      12 GLL5        0.0000 
     68 CA          9.1070  -10.9280   19.9490 C.3       8 GLP5        0.0000 
     69 CA         12.7575   -7.8502   21.5233 C.3       4 GLC5        0.0000 
     70 CA         12.5430   -6.0650   21.3240 C.3       8 GLP5        0.0000 
     71 CA         14.5210   -9.8447   22.9473 C.3       4 GLC5        0.0000 
     72 CA         13.4720   -9.6230   21.2350 C.3      12 GLL5        0.0000 
@<TRIPOS>BOND
@<TRIPOS>SUBSTRUCTURE
     1 ALC1        1 GROUP        1 X    ALC  0     ROOT ALC X 1
     2 SEC2        4 GROUP        1 X    SEC  0     **** SEC X 2
     3 ASC3       27 GROUP        1 X    ASC  0     **** ASC X 3
     4 GLC5        7 GROUP        1 X    GLC  0     **** GLC X 6
     5 ALP1        3 GROUP        1 Y    ALP  0     ROOT ALP Y 8
     6 SEP2        6 GROUP        1 Y    SEP  0     **** SEP Y 9
     7 ASP3       29 GROUP        1 Y    ASP  0     **** ASP Y 10
     8 GLP5        9 GROUP        1 Y    GLP  0     **** GLP Y 13
     9 ALL1        2 GROUP        1 Z    ALL  0     ROOT ALL Z 15
    10 SEL2        5 GROUP        1 Z    SEL  0     **** SEL Z 16
    11 ASL3       28 GROUP        1 Z    ASL  0     **** ASL Z 17
    12 GLL5        8 GROUP        1 Z    GLL  0     **** GLL Z 20
@<TRIPOS>SET

