#    Name: 2zda_32U_1_ligand
#    Modification time : Tue Mar 25 10:34:17 2014

@<TRIPOS>MOLECULE
2zda_32U_1_ligand
   58    60     1     0     0
SMALL
NO_CHARGES


@<TRIPOS>ATOM
      1 N13        16.4070  -15.9690   23.2170 N.4       1 32U1000     0.0000 
      2 C5         17.7070  -15.2630   23.2930 C.3       1 32U1000     0.0000 
      3 C14        17.6420  -13.9000   22.6520 C.2       1 32U1000     0.0000 
      4 O32        16.7470  -13.1380   23.0070 O.2       1 32U1000     0.0000 
      5 C33        18.2000  -15.1780   24.7660 C.3       1 32U1000     0.0000 
      6 C6         19.6330  -14.6780   24.8320 C.ar      1 32U1000     0.0000 
      7 C8         20.7020  -15.4890   24.4400 C.ar      1 32U1000     0.0000 
      8 C12        19.8990  -13.3910   25.2910 C.ar      1 32U1000     0.0000 
      9 C9         22.0080  -15.0060   24.5090 C.ar      1 32U1000     0.0000 
     10 C11        21.1970  -12.9070   25.3620 C.ar      1 32U1000     0.0000 
     11 C10        22.2700  -13.7180   24.9670 C.ar      1 32U1000     0.0000 
     12 N1         18.5340  -13.4950   21.7020 N.am      1 32U1000     0.0000 
     13 C1         18.4020  -12.1880   21.1060 C.3       1 32U1000     0.0000 
     14 C7         17.0550  -12.0990   20.4110 C.2       1 32U1000     0.0000 
     15 O22        16.6070  -13.0590   19.7980 O.2       1 32U1000     0.0000 
     16 C2         19.4930  -12.2580   19.9960 C.3       1 32U1000     0.0000 
     17 C3         20.5540  -13.1510   20.6840 C.3       1 32U1000     0.0000 
     18 C4         19.7150  -14.2790   21.3400 C.3       1 32U1000     0.0000 
     19 N23        16.4400  -10.8940   20.4880 N.am      1 32U1000     0.0000 
     20 C24        15.1610  -10.8260   19.7490 C.3       1 32U1000     0.0000 
     21 C25        14.0560  -10.8140   20.8210 C.ar      1 32U1000     0.0000 
     22 C26        13.6330  -12.0110   21.3850 C.ar      1 32U1000     0.0000 
     23 C27        12.6360  -12.0280   22.3570 C.ar      1 32U1000     0.0000 
     24 C28        12.0380  -10.8380   22.7830 C.ar      1 32U1000     0.0000 
     25 C21        10.8850  -10.8290   23.9030 C.cat     1 32U1000     0.0000 
     26 N46        10.5950   -9.6970   24.5280 N.pl3     1 32U1000     0.0000 
     27 N47        10.2350  -11.9340   24.1950 N.pl3     1 32U1000     0.0000 
     28 C29        12.4720   -9.6480   22.2100 C.ar      1 32U1000     0.0000 
     29 C30        13.4720   -9.6230   21.2350 C.ar      1 32U1000     0.0000 
     30 H          18.4611  -15.8587   22.7493 H         1 32U1000     0.0000 
     31 H          18.1330  -16.1688   25.2089 H         1 32U1000     0.0000 
     32 H          17.5460  -14.4999   25.3091 H         1 32U1000     0.0000 
     33 H          20.5233  -16.4419   24.1009 H         1 32U1000     0.0000 
     34 H          19.1107  -12.7845   25.5848 H         1 32U1000     0.0000 
     35 H          22.7914  -15.6132   24.2159 H         1 32U1000     0.0000 
     36 H          21.3788  -11.9555   25.7030 H         1 32U1000     0.0000 
     37 H          23.2248  -13.3660   25.0161 H         1 32U1000     0.0000 
     38 H          18.5911  -11.4200   21.7287 H         1 32U1000     0.0000 
     39 H          19.8843  -11.3043   19.8323 H         1 32U1000     0.0000 
     40 H          19.1066  -12.7471   19.1589 H         1 32U1000     0.0000 
     41 H          21.0502  -12.5991   21.4338 H         1 32U1000     0.0000 
     42 H          21.1947  -13.5661   19.9559 H         1 32U1000     0.0000 
     43 H          19.5011  -14.9992   20.6108 H         1 32U1000     0.0000 
     44 H          20.2299  -14.6272   22.1825 H         1 32U1000     0.0000 
     45 H          16.7599  -10.1051   20.9701 H         1 32U1000     0.0000 
     46 H          15.0270  -11.6910   19.1287 H         1 32U1000     0.0000 
     47 H          15.0931   -9.9209   19.1770 H         1 32U1000     0.0000 
     48 H          14.0626  -12.9006   21.0805 H         1 32U1000     0.0000 
     49 H          12.3345  -12.9240   22.7675 H         1 32U1000     0.0000 
     50 H           9.8805   -9.7501   25.2256 H         1 32U1000     0.0000 
     51 H          11.1169   -8.8922   24.2454 H         1 32U1000     0.0000 
     52 H           9.5713  -11.8702   24.9403 H         1 32U1000     0.0000 
     53 H          10.4636  -12.7374   23.6451 H         1 32U1000     0.0000 
     54 H          12.0425   -8.7510   22.5134 H         1 32U1000     0.0000 
     55 H          13.7706   -8.7308   20.8299 H         1 32U1000     0.0000 
     56 H          16.1122  -16.1035   22.2710 H         1 32U1000     0.0000 
     57 H          16.4500  -16.8732   23.6420 H         1 32U1000     0.0000 
     58 H          15.6810  -15.4613   23.6809 H         1 32U1000     0.0000 
@<TRIPOS>BOND
     1    2    1 1    
     2   56    1 1    
     3   57    1 1    
     4   58    1 1    
     5    3    2 1    
     6    5    2 1    
     7   30    2 1    
     8    4    3 2    
     9   12    3 am   
    10    6    5 1    
    11   31    5 1    
    12   32    5 1    
    13    7    6 ar   
    14    8    6 ar   
    15    9    7 ar   
    16   33    7 1    
    17   10    8 ar   
    18   34    8 1    
    19   11    9 ar   
    20   35    9 1    
    21   11   10 ar   
    22   36   10 1    
    23   37   11 1    
    24   13   12 1    
    25   18   12 1    
    26   14   13 1    
    27   16   13 1    
    28   38   13 1    
    29   15   14 2    
    30   19   14 am   
    31   17   16 1    
    32   39   16 1    
    33   40   16 1    
    34   18   17 1    
    35   41   17 1    
    36   42   17 1    
    37   43   18 1    
    38   44   18 1    
    39   20   19 1    
    40   45   19 1    
    41   21   20 1    
    42   46   20 1    
    43   47   20 1    
    44   22   21 ar   
    45   29   21 ar   
    46   23   22 ar   
    47   48   22 1    
    48   24   23 ar   
    49   49   23 1    
    50   25   24 1    
    51   28   24 ar   
    52   26   25 ar   
    53   27   25 ar   
    54   50   26 1    
    55   51   26 1    
    56   52   27 1    
    57   53   27 1    
    58   29   28 ar   
    59   54   28 1    
    60   55   29 1    
@<TRIPOS>SUBSTRUCTURE
     1 32U1000     1 GROUP   
@<TRIPOS>SET

