#    Name: 1XGI_1_CAVITY_N1_ALL.mol2
#    Modification time : Mon Mar 10 18:09:44 2014

@<TRIPOS>MOLECULE
1XGI_1_CAVITY_N1_ALL.mol2
  108     0     6     0     0
SMALL
NO_CHARGES


@<TRIPOS>ATOM
      1 N          80.4321    4.1498   32.7227 N.2       2 ALA2        0.0000 
      2 CZ         79.4727    5.1858   33.2288 C.ar      4 PHE5        0.0000 
      3 N          80.4085    4.7903   31.3666 N.2       2 ALA2        0.0000 
      4 O          79.4490    5.8264   31.8727 O.2       2 ALA2        0.0000 
      5 N          80.3848    5.4309   30.0104 N.2       2 ALA2        0.0000 
      6 O          79.4254    6.4669   30.5165 O.2       2 ALA2        0.0000 
      7 CA         81.3206    5.0354   28.1482 C.3       5 GLY6        0.0000 
      8 DU         80.3611    6.0714   28.6543 H         6 CUB7        0.0000 
      9 O          79.4017    7.1074   29.1603 O.2       2 ALA2        0.0000 
     10 O          78.4423    8.1435   29.6664 O.2       2 ALA2        0.0000 
     11 CA         82.2564    4.6399   26.2860 C.3       5 GLY6        0.0000 
     12 CA         81.2969    5.6759   26.7920 C.3       5 GLY6        0.0000 
     13 DU         80.3375    6.7119   27.2981 H         6 CUB7        0.0000 
     14 DU         79.3780    7.7479   27.8042 H         6 CUB7        0.0000 
     15 CA         78.4186    8.7840   28.3103 C.3       5 GLY6        0.0000 
     16 N          83.1921    4.2444   24.4237 N.2       2 ALA2        0.0000 
     17 N          82.2327    5.2804   24.9298 N.2       2 ALA2        0.0000 
     18 N          81.2733    6.3164   25.4359 N.2       2 ALA2        0.0000 
     19 N          80.3138    7.3524   25.9420 N.2       2 ALA2        0.0000 
     20 CA         79.3544    8.3885   26.4480 C.3       5 GLY6        0.0000 
     21 CA         78.3949    9.4245   26.9541 C.3       5 GLY6        0.0000 
     22 O          83.1685    4.8849   23.0676 O.2       2 ALA2        0.0000 
     23 N          79.2557    3.9149   30.9732 N.2       2 ALA2        0.0000 
     24 CA         78.2962    4.9509   31.4793 C.3       5 GLY6        0.0000 
     25 OG         78.2726    5.5915   30.1231 O.2       1 SER1        0.0000 
     26 O          77.3131    6.6275   30.6292 O.2       2 ALA2        0.0000 
     27 N          80.1678    4.1599   27.7548 N.2       2 ALA2        0.0000 
     28 OG         79.2084    5.1960   28.2609 O.2       1 SER1        0.0000 
     29 OG         78.2489    6.2320   28.7670 O.2       1 SER1        0.0000 
     30 N          77.2895    7.2680   29.2731 N.2       2 ALA2        0.0000 
     31 CA         80.1441    4.8005   26.3987 C.3       5 GLY6        0.0000 
     32 DU         79.1847    5.8365   26.9048 H         6 CUB7        0.0000 
     33 CZ         78.2253    6.8725   27.4108 C.ar      4 PHE5        0.0000 
     34 CZ         77.2658    7.9086   27.9169 C.ar      4 PHE5        0.0000 
     35 O          81.0799    4.4050   24.5365 O.2       2 ALA2        0.0000 
     36 O          80.1205    5.4410   25.0425 O.2       2 ALA2        0.0000 
     37 DU         79.1610    6.4770   25.5486 H         6 CUB7        0.0000 
     38 CA         78.2016    7.5131   26.0547 C.3       5 GLY6        0.0000 
     39 O          80.0968    6.0815   23.6864 O.2       2 ALA2        0.0000 
     40 O          79.1374    7.1176   24.1924 O.2       2 ALA2        0.0000 
     41 N          84.6093    5.1096   29.7850 N.2       2 ALA2        0.0000 
     42 DU         82.6904    7.1817   30.7971 H         6 CUB7        0.0000 
     43 CA         80.7242   10.5348   29.0970 C.3       5 GLY6        0.0000 
     44 CA         81.6086    4.3847   34.4723 C.3       5 GLY6        0.0000 
     45 CZ         80.6491    5.4207   34.9783 C.ar      4 PHE5        0.0000 
     46 CA         82.5444    3.9892   32.6100 C.3       5 GLY6        0.0000 
     47 DU         81.5849    5.0252   33.1161 H         6 CUB7        0.0000 
     48 CZ         80.6255    6.0612   33.6222 C.ar      4 PHE5        0.0000 
     49 N          79.6660    7.0973   34.1282 N.2       2 ALA2        0.0000 
     50 CA         82.5207    4.6297   31.2539 C.3       5 GLY6        0.0000 
     51 DU         81.5613    5.6657   31.7599 H         6 CUB7        0.0000 
     52 O          80.6018    6.7018   32.2660 O.2       2 ALA2        0.0000 
     53 DU         81.5376    6.3063   30.4038 H         6 CUB7        0.0000 
     54 O          80.5782    7.3423   30.9099 O.2       2 ALA2        0.0000 
     55 CA         83.4328    4.8747   28.0355 C.3       5 GLY6        0.0000 
     56 DU         82.4734    5.9108   28.5416 H         6 CUB7        0.0000 
     57 DU         81.5139    6.9468   29.0476 H         6 CUB7        0.0000 
     58 O          80.5545    7.9828   29.5537 O.2       2 ALA2        0.0000 
     59 O          83.4091    5.5153   26.6793 O.2       2 ALA2        0.0000 
     60 DU         82.4497    6.5513   27.1854 H         6 CUB7        0.0000 
     61 DU         81.4903    7.5873   27.6915 H         6 CUB7        0.0000 
     62 O          80.5308    8.6234   28.1975 O.2       2 ALA2        0.0000 
     63 O          79.5714    9.6594   28.7036 O.2       2 ALA2        0.0000 
     64 O          84.3449    5.1198   24.8171 O.2       2 ALA2        0.0000 
     65 N          83.3855    6.1558   25.3232 N.2       2 ALA2        0.0000 
     66 N          82.4260    7.1918   25.8292 N.2       2 ALA2        0.0000 
     67 N          81.4666    8.2279   26.3353 N.2       2 ALA2        0.0000 
     68 CA         80.5072    9.2639   26.8414 C.3       5 GLY6        0.0000 
     69 N          84.3213    5.7603   23.4609 N.2       2 ALA2        0.0000 
     70 DU         82.7614    5.2601   34.8656 H         6 CUB7        0.0000 
     71 OG         81.8019    6.2961   35.3717 O.2       1 SER1        0.0000 
     72 O          83.6971    4.8646   33.0034 O.2       2 ALA2        0.0000 
     73 DU         82.7377    5.9006   33.5095 H         6 CUB7        0.0000 
     74 DU         81.7783    6.9367   34.0155 H         6 CUB7        0.0000 
     75 N          80.8188    7.9727   34.5216 N.2       2 ALA2        0.0000 
     76 O          83.6735    5.5051   31.6472 O.2       2 ALA2        0.0000 
     77 DU         82.7140    6.5412   32.1533 H         6 CUB7        0.0000 
     78 O          81.7546    7.5772   32.6594 O.2       2 ALA2        0.0000 
     79 O          78.9914    3.9250   26.0053 O.2       2 ALA2        0.0000 
     80 OG         78.0319    4.9611   26.5114 O.2       1 SER1        0.0000 
     81 OG         77.0725    5.9971   27.0175 O.2       1 SER1        0.0000 
     82 OG         78.9677    4.5656   24.6492 O.2       1 SER1        0.0000 
     83 OG         78.0082    5.6016   25.1552 O.2       1 SER1        0.0000 
     84 CZ         77.0488    6.6376   25.6613 C.ar      4 PHE5        0.0000 
     85 O          78.9440    5.2061   23.2930 O.2       2 ALA2        0.0000 
     86 O          77.9846    6.2421   23.7991 O.2       2 ALA2        0.0000 
     87 CA         77.0251    7.2782   24.3052 C.3       5 GLY6        0.0000 
     88 O          77.9609    6.8827   22.4429 O.2       2 ALA2        0.0000 
     89 CA         77.0015    7.9187   22.9490 C.3       5 GLY6        0.0000 
     90 OG         76.8555    4.7262   24.7619 O.2       1 SER1        0.0000 
     91 OG         76.8318    5.3667   23.4057 O.2       1 SER1        0.0000 
     92 CZ         75.8724    6.4028   23.9118 C.ar      4 PHE5        0.0000 
     93 OG         76.8081    6.0072   22.0496 O.2       1 SER1        0.0000 
     94 CA         75.8487    7.0433   22.5556 C.3       5 GLY6        0.0000 
     95 CZ         74.8893    8.0793   23.0617 C.ar      4 PHE5        0.0000 
     96 CZ         74.7196    5.5273   23.5185 C.ar      4 PHE5        0.0000 
     97 OG         75.6553    5.1318   21.6562 O.2       1 SER1        0.0000 
     98 NZ         74.6959    6.1679   22.1623 N.2       3 LYS4        0.0000 
     99 OG         76.5911    4.7363   19.7940 O.2       1 SER1        0.0000 
    100 CA         75.6317    5.7724   20.3001 C.3       5 GLY6        0.0000 
    101 CA         74.6722    6.8084   20.8061 C.3       5 GLY6        0.0000 
    102 OG         74.5026    4.2564   21.2629 O.2       1 SER1        0.0000 
    103 OG         75.4383    3.8609   19.4006 O.2       1 SER1        0.0000 
    104 NZ         74.4789    4.8969   19.9067 N.2       3 LYS4        0.0000 
    105 CA         75.4147    4.5014   18.0445 C.3       5 GLY6        0.0000 
    106 NZ         74.4552    5.5375   18.5506 N.2       3 LYS4        0.0000 
    107 O          74.3092    2.3450   20.3634 O.2       2 ALA2        0.0000 
    108 N          74.2856    2.9855   19.0073 N.2       2 ALA2        0.0000 
@<TRIPOS>BOND
@<TRIPOS>SUBSTRUCTURE
     1 SER1       25 GROUP   
     2 ALA2        1 GROUP   
     3 LYS4       98 GROUP   
     4 PHE5        2 GROUP   
     5 GLY6        7 GROUP   
     6 CUB7        8 GROUP   
@<TRIPOS>SET

