#    Name: 1xgi_NST_1_INTS_M
#    Modification time : Tue Mar 25 09:50:12 2014

@<TRIPOS>MOLECULE
1xgi_NST_1_INTS_M
   31     0     6     0     0
SMALL
NO_CHARGES


@<TRIPOS>ATOM
      1 CA         81.9375    3.2905   35.1625 C.3       2 GLC5        0.0000 
      2 CA         82.1570    4.8730   33.6220 C.3       6 GLL5        0.0000 
      3 CA         81.7180    1.7080   36.7030 C.3       4 GLP5        0.0000 
      4 CA         84.9770    4.0050   32.3360 C.3       2 GLC5        0.0000 
      5 CA         83.2260    5.2380   32.7230 C.3       6 GLL5        0.0000 
      6 CA         86.7280    2.7720   31.9490 C.3       4 GLP5        0.0000 
      7 N          76.3955    4.4475   29.5185 N.am      1 SEC2        0.0000 
      8 N          76.9680    4.8510   30.5130 N.am      5 SEL2        0.0000 
      9 N          75.8230    4.0440   28.5240 N.am      3 SEP2        0.0000 
     10 N          75.8905    6.0760   30.8765 N.am      1 SEC2        0.0000 
     11 N          74.8130    7.3010   31.2400 N.am      3 SEP2        0.0000 
     12 CA         77.2095    4.2975   27.8275 C.3       2 GLC5        0.0000 
     13 CA         78.8410    5.7610   27.8110 C.3       6 GLL5        0.0000 
     14 CA         75.5780    2.8340   27.8440 C.3       4 GLP5        0.0000 
     15 N          77.6305    2.3250   28.8710 N.am      1 SEC2        0.0000 
     16 N          78.4750    3.3870   28.4250 N.am      5 SEL2        0.0000 
     17 N          76.7860    1.2630   29.3170 N.am      3 SEP2        0.0000 
     18 N          79.2815    2.2825   27.9390 N.am      1 SEC2        0.0000 
     19 N          80.0880    1.1780   27.4530 N.am      3 SEP2        0.0000 
     20 CA         81.9470    3.1603   31.7905 C.3       2 GLC5        0.0000 
     21 CA         80.6400    4.5900   31.6620 C.3       6 GLL5        0.0000 
     22 CA         83.1460    1.7540   31.2040 C.3       4 GLP5        0.0000 
     23 CA         82.7482    3.4365   31.1180 C.3       2 GLC5        0.0000 
     24 CA         81.7000    4.9560   30.7720 C.3       6 GLL5        0.0000 
     25 CA         82.9188    3.4048   32.1882 C.3       2 GLC5        0.0000 
     26 CA         77.8957    9.5030   28.3397 C.3       2 GLC5        0.0000 
     27 CA         78.8350    7.7460   28.9260 C.3       6 GLL5        0.0000 
     28 CA         76.8090   11.1160   28.4240 C.3       4 GLP5        0.0000 
     29 CA         78.3132    8.8163   25.8223 C.3       2 GLC5        0.0000 
     30 CA         79.1300    8.0340   27.5850 C.3       6 GLL5        0.0000 
     31 CA         77.4930   10.2040   24.4180 C.3       4 GLP5        0.0000 
@<TRIPOS>BOND
@<TRIPOS>SUBSTRUCTURE
     1 SEC2        7 GROUP        1 X    SEC  0     ROOT SEC X 2
     2 GLC5        1 GROUP        1 X    GLC  0     **** GLC X 6
     3 SEP2        9 GROUP        1 Y    SEP  0     ROOT SEP Y 9
     4 GLP5        3 GROUP        1 Y    GLP  0     **** GLP Y 13
     5 SEL2        8 GROUP        1 Z    SEL  0     ROOT SEL Z 16
     6 GLL5        2 GROUP        1 Z    GLL  0     **** GLL Z 20
@<TRIPOS>SET

