#    Name: 1xgi_NST_1_ligand
#    Modification time : Tue Mar 25 09:50:12 2014

@<TRIPOS>MOLECULE
1xgi_NST_1_ligand
   28    29     1     0     0
SMALL
NO_CHARGES


@<TRIPOS>ATOM
      1 N1         79.3860    4.2620   31.1130 N.pl3     1 NST416      0.0000 
      2 C2         80.6400    4.5900   31.6620 C.ar      1 NST416      0.0000 
      3 C3         80.8560    4.5430   33.0920 C.ar      1 NST416      0.0000 
      4 C4         81.7000    4.9560   30.7720 C.ar      1 NST416      0.0000 
      5 C5         82.1570    4.8730   33.6220 C.ar      1 NST416      0.0000 
      6 C6         83.0010    5.2820   31.2920 C.ar      1 NST416      0.0000 
      7 C7         83.2260    5.2380   32.7230 C.ar      1 NST416      0.0000 
      8 N2         84.0180    5.6230   30.4340 N.pl3     1 NST416      0.0000 
      9 S13        78.2550    5.4970   30.6710 S.o2      1 NST416      0.0000 
     10 C15        78.6570    6.3530   29.0760 C.2       1 NST416      0.0000 
     11 O16        76.9680    4.8510   30.5130 O.2       1 NST416      0.0000 
     12 O17        78.1730    6.4570   31.7230 O.2       1 NST416      0.0000 
     13 C18        78.8410    5.7610   27.8110 C.2       1 NST416      0.0000 
     14 C19        78.8350    7.7460   28.9260 C.2       1 NST416      0.0000 
     15 S20        79.1370    6.8230   26.8680 S.3       1 NST416      0.0000 
     16 C21        78.7460    4.2950   27.4830 C.2       1 NST416      0.0000 
     17 C22        79.1300    8.0340   27.5850 C.2       1 NST416      0.0000 
     18 O23        78.4750    3.3870   28.4250 O.co2     1 NST416      0.0000 
     19 O24        78.9280    3.9280   26.3350 O.co2     1 NST416      0.0000 
     20 O1         83.8260    5.6600   29.2240 O.2       1 NST416      0.0000 
     21 O2         85.1260    5.8890   30.8690 O.2       1 NST416      0.0000 
     22 H          79.0209    3.3650   30.9253 H         1 NST416      0.0000 
     23 H          80.1059    4.2828   33.7088 H         1 NST416      0.0000 
     24 H          81.5361    4.9864   29.7710 H         1 NST416      0.0000 
     25 H          82.3193    4.8488   34.6177 H         1 NST416      0.0000 
     26 H          84.1415    5.4656   33.0930 H         1 NST416      0.0000 
     27 H          78.7649    8.3829   29.6258 H         1 NST416      0.0000 
     28 H          79.2951    8.8886   27.2246 H         1 NST416      0.0000 
@<TRIPOS>BOND
     1    2    1 1    
     2    9    1 1    
     3   22    1 1    
     4    3    2 ar   
     5    4    2 ar   
     6    5    3 ar   
     7   23    3 1    
     8    6    4 ar   
     9   24    4 1    
    10    7    5 ar   
    11   25    5 1    
    12    7    6 ar   
    13    8    6 1    
    14   26    7 1    
    15   20    8 2    
    16   21    8 2    
    17   10    9 1    
    18   11    9 2    
    19   12    9 2    
    20   13   10 2    
    21   14   10 1    
    22   15   13 1    
    23   16   13 1    
    24   17   14 2    
    25   27   14 1    
    26   17   15 1    
    27   18   16 ar   
    28   19   16 ar   
    29   28   17 1    
@<TRIPOS>SUBSTRUCTURE
     1 NST416      1 GROUP   
@<TRIPOS>SET

