#    Name: 3rk5_07Z_1_INTS_M
#    Modification time : Tue Mar 25 11:35:35 2014

@<TRIPOS>MOLECULE
3rk5_07Z_1_INTS_M
   49     0     9     0     0
SMALL
NO_CHARGES


@<TRIPOS>ATOM
      1 O          89.3750  119.0340  -49.8710 O.2       1 ALC1        0.0000 
      2 O          90.2480  118.5180  -49.0850 O.2       7 ALL1        0.0000 
      3 O          88.5020  119.5500  -50.6570 O.2       4 ALP1        0.0000 
      4 N          90.7705  118.7675  -51.8430 N.am      2 SEC2        0.0000 
      5 N          91.7760  118.0740  -50.7720 N.am      8 SEL2        0.0000 
      6 N          89.7650  119.4610  -52.9140 N.am      5 SEP2        0.0000 
      7 CA         92.6470  118.6030  -47.7820 C.3       3 GLC5        0.0000 
      8 CA         92.3430  116.7290  -48.6230 C.3       9 GLL5        0.0000 
      9 CA         92.9510  120.4770  -46.9410 C.3       6 GLP5        0.0000 
     10 CA         91.1860  115.3160  -49.1405 C.3       3 GLC5        0.0000 
     11 CA         90.0290  113.9030  -49.6580 C.3       6 GLP5        0.0000 
     12 O          93.3090  118.1700  -53.3780 O.2       1 ALC1        0.0000 
     13 O          93.3860  117.4180  -52.2380 O.2       7 ALL1        0.0000 
     14 O          93.2320  118.9220  -54.5180 O.2       4 ALP1        0.0000 
     15 CA         95.6260  116.5495  -48.0900 C.3       3 GLC5        0.0000 
     16 CA         94.8990  114.7500  -48.9710 C.3       9 GLL5        0.0000 
     17 CA         96.3530  118.3490  -47.2090 C.3       6 GLP5        0.0000 
     18 CA         91.9815  113.9420  -48.9380 C.3       3 GLC5        0.0000 
     19 CA         93.9340  113.9810  -48.2180 C.3       9 GLL5        0.0000 
     20 CA         96.5080  114.7825  -46.2985 C.3       3 GLC5        0.0000 
     21 CA         95.7150  113.0480  -46.8380 C.3       9 GLL5        0.0000 
     22 CA         97.3010  116.5170  -45.7590 C.3       6 GLP5        0.0000 
     23 CA         96.2145  111.3705  -48.1040 C.3       3 GLC5        0.0000 
     24 CA         96.7140  109.6930  -49.3700 C.3       6 GLP5        0.0000 
     25 CA         96.7845  115.5700  -47.1875 C.3       3 GLC5        0.0000 
     26 CA         96.2680  114.6230  -48.6160 C.3       9 GLL5        0.0000 
     27 CA         98.3705  114.6680  -48.3740 C.3       3 GLC5        0.0000 
     28 CA        100.4730  114.7130  -48.1320 C.3       6 GLP5        0.0000 
     29 CA         87.3310  119.9095  -48.9655 C.3       3 GLC5        0.0000 
     30 CA         88.7260  119.5170  -47.5240 C.3       9 GLL5        0.0000 
     31 CA         85.9360  120.3020  -50.4070 C.3       6 GLP5        0.0000 
     32 CA         89.8950  115.6250  -48.3000 C.3       3 GLC5        0.0000 
     33 CA         89.7610  117.3470  -46.9420 C.3       9 GLL5        0.0000 
     34 CA         87.2278  118.1475  -47.9513 C.3       3 GLC5        0.0000 
     35 CA         89.6130  118.4450  -47.8730 C.3       9 GLL5        0.0000 
     36 CA         85.2860  117.3140  -48.2040 C.3       6 GLP5        0.0000 
     37 CA         94.0722  118.4170  -50.7602 C.3       3 GLC5        0.0000 
     38 CA         92.8530  117.3570  -51.0730 C.3       9 GLL5        0.0000 
     39 CA         95.0660  119.8790  -50.9680 C.3       6 GLP5        0.0000 
     40 CA         92.1138  115.8030  -51.1642 C.3       3 GLC5        0.0000 
     41 CA         91.1490  114.6510  -51.7760 C.3       6 GLP5        0.0000 
     42 CA         93.8603  113.1178  -50.1912 C.3       3 GLC5        0.0000 
     43 CA         93.3040  111.8700  -51.7880 C.3       6 GLP5        0.0000 
     44 CA         86.6875  118.1357  -47.0245 C.3       3 GLC5        0.0000 
     45 CA         88.1620  118.4130  -45.3840 C.3       9 GLL5        0.0000 
     46 CA         88.5932  115.4030  -46.4888 C.3       3 GLC5        0.0000 
     47 CA         89.0480  117.3350  -45.7170 C.3       9 GLL5        0.0000 
     48 CA         87.7820  113.4650  -46.6480 C.3       6 GLP5        0.0000 
     49 CA         91.2081  119.3205  -47.1306 C.3       3 GLC5        0.0000 
@<TRIPOS>BOND
@<TRIPOS>SUBSTRUCTURE
     1 ALC1        1 GROUP        1 X    ALC  0     ROOT ALC X 1
     2 SEC2        4 GROUP        1 X    SEC  0     **** SEC X 2
     3 GLC5        7 GROUP        1 X    GLC  0     **** GLC X 6
     4 ALP1        3 GROUP        1 Y    ALP  0     ROOT ALP Y 8
     5 SEP2        6 GROUP        1 Y    SEP  0     **** SEP Y 9
     6 GLP5        9 GROUP        1 Y    GLP  0     **** GLP Y 13
     7 ALL1        2 GROUP        1 Z    ALL  0     ROOT ALL Z 15
     8 SEL2        5 GROUP        1 Z    SEL  0     **** SEL Z 16
     9 GLL5        8 GROUP        1 Z    GLL  0     **** GLL Z 20
@<TRIPOS>SET

