#    Name: 3rk5_07Z_1_ligand
#    Modification time : Tue Mar 25 11:35:36 2014

@<TRIPOS>MOLECULE
3rk5_07Z_1_ligand
   35    37     1     0     0
SMALL
NO_CHARGES


@<TRIPOS>ATOM
      1 C1         89.6130  118.4450  -47.8730 C.ar      1 07Z436      0.0000 
      2 N2         90.2480  118.5180  -49.0850 N.pl3     1 07Z436      0.0000 
      3 C3         91.3690  117.8580  -49.5200 C.2       1 07Z436      0.0000 
      4 N4         91.7760  118.0740  -50.7720 N.2       1 07Z436      0.0000 
      5 C5         92.8530  117.3570  -51.0730 C.2       1 07Z436      0.0000 
      6 C6         93.3040  116.5530  -50.0320 C.2       1 07Z436      0.0000 
      7 S7         92.3430  116.7290  -48.6230 S.3       1 07Z436      0.0000 
      8 N8         93.3860  117.4180  -52.2380 N.pl3     1 07Z436      0.0000 
      9 C9         94.4760  115.6300  -50.1010 C.2       1 07Z436      0.0000 
     10 C10        94.8990  114.7500  -48.9710 C.ar      1 07Z436      0.0000 
     11 C11        93.9340  113.9810  -48.2180 C.ar      1 07Z436      0.0000 
     12 C12        94.3430  113.1320  -47.1500 C.ar      1 07Z436      0.0000 
     13 C13        95.7150  113.0480  -46.8380 C.ar      1 07Z436      0.0000 
     14 N14        96.6290  113.7830  -47.5690 N.ar      1 07Z436      0.0000 
     15 C15        96.2680  114.6230  -48.6160 C.ar      1 07Z436      0.0000 
     16 O16        95.1740  115.5730  -51.2560 O.2       1 07Z436      0.0000 
     17 C17        88.7260  119.5170  -47.5240 C.ar      1 07Z436      0.0000 
     18 C18        88.0160  119.5020  -46.3060 C.ar      1 07Z436      0.0000 
     19 C19        88.1620  118.4130  -45.3840 C.ar      1 07Z436      0.0000 
     20 C20        89.0480  117.3350  -45.7170 C.ar      1 07Z436      0.0000 
     21 C21        89.7610  117.3470  -46.9420 C.ar      1 07Z436      0.0000 
     22 C22        87.3920  118.4270  -44.1090 C.2       1 07Z436      0.0000 
     23 O23        86.5640  119.4730  -43.8570 O.co2     1 07Z436      0.0000 
     24 O24        87.4930  117.3880  -43.1600 O.co2     1 07Z436      0.0000 
     25 H          89.7935  119.2051  -49.8150 H         1 07Z436      0.0000 
     26 H          92.9333  118.0175  -52.8982 H         1 07Z436      0.0000 
     27 H          94.2044  116.8604  -52.3772 H         1 07Z436      0.0000 
     28 H          92.9452  114.0539  -48.4628 H         1 07Z436      0.0000 
     29 H          93.6572  112.6025  -46.6297 H         1 07Z436      0.0000 
     30 H          96.0206  112.4417  -46.0711 H         1 07Z436      0.0000 
     31 H          96.9713  115.1501  -49.1339 H         1 07Z436      0.0000 
     32 H          88.6142  120.2992  -48.1757 H         1 07Z436      0.0000 
     33 H          87.3861  120.2726  -46.0670 H         1 07Z436      0.0000 
     34 H          89.1602  116.5604  -45.0648 H         1 07Z436      0.0000 
     35 H          90.3882  116.5796  -47.1818 H         1 07Z436      0.0000 
@<TRIPOS>BOND
     1    2    1 1    
     2   17    1 ar   
     3   21    1 ar   
     4    3    2 1    
     5   25    2 1    
     6    4    3 2    
     7    7    3 1    
     8    5    4 1    
     9    6    5 2    
    10    8    5 1    
    11    7    6 1    
    12    9    6 1    
    13   26    8 1    
    14   27    8 1    
    15   10    9 1    
    16   16    9 2    
    17   11   10 ar   
    18   15   10 ar   
    19   12   11 ar   
    20   28   11 1    
    21   13   12 ar   
    22   29   12 1    
    23   14   13 ar   
    24   30   13 1    
    25   15   14 ar   
    26   31   15 1    
    27   18   17 ar   
    28   32   17 1    
    29   19   18 ar   
    30   33   18 1    
    31   20   19 ar   
    32   22   19 1    
    33   21   20 ar   
    34   34   20 1    
    35   35   21 1    
    36   23   22 ar   
    37   24   22 ar   
@<TRIPOS>SUBSTRUCTURE
     1 07Z436      1 GROUP   
@<TRIPOS>SET

