#    Name: 1DAP_2_CAVITY_N1_ALL.mol2
#    Modification time : Mon Mar 10 17:58:25 2014

@<TRIPOS>MOLECULE
1DAP_2_CAVITY_N1_ALL.mol2
   97     0     6     0     0
SMALL
NO_CHARGES


@<TRIPOS>ATOM
      1 O          15.2251   20.5128   40.7437 O.2       2 ALA2        0.0000 
      2 O          16.2973   20.3467   39.7080 O.2       2 ALA2        0.0000 
      3 NZ         17.7809   23.1520   40.7939 N.2       3 LYS4        0.0000 
      4 O          18.8531   22.9859   39.7581 O.2       2 ALA2        0.0000 
      5 O          19.9253   22.8198   38.7224 O.2       2 ALA2        0.0000 
      6 O          15.7519   22.5561   40.9613 O.2       2 ALA2        0.0000 
      7 DU         16.8241   22.3900   39.9256 H         6 CUB7        0.0000 
      8 N          17.8963   22.2239   38.8899 N.2       2 ALA2        0.0000 
      9 O          14.7951   21.7941   40.0931 O.2       2 ALA2        0.0000 
     10 O          15.8673   21.6280   39.0573 O.2       2 ALA2        0.0000 
     11 O          16.9395   21.4619   38.0216 O.2       2 ALA2        0.0000 
     12 CA         17.3509   24.4333   40.1432 C.3       5 GLY6        0.0000 
     13 CA         18.4231   24.2672   39.1075 C.3       5 GLY6        0.0000 
     14 N          15.3219   23.8374   40.3107 N.2       2 ALA2        0.0000 
     15 DU         16.3941   23.6713   39.2749 H         6 CUB7        0.0000 
     16 N          17.4663   23.5052   38.2392 N.2       2 ALA2        0.0000 
     17 O          14.3651   23.0754   39.4424 O.2       2 ALA2        0.0000 
     18 O          15.4373   22.9093   38.4067 O.2       2 ALA2        0.0000 
     19 O          16.5095   22.7432   37.3709 O.2       2 ALA2        0.0000 
     20 O          22.1721   19.7379   41.5426 O.2       2 ALA2        0.0000 
     21 O          19.0709   19.3081   42.7458 O.2       2 ALA2        0.0000 
     22 O          20.1431   19.1420   41.7101 O.2       2 ALA2        0.0000 
     23 O          21.2154   18.9759   40.6744 O.2       2 ALA2        0.0000 
     24 DU         18.1141   18.5461   41.8775 H         6 CUB7        0.0000 
     25 DU         19.1864   18.3800   40.8418 H         6 CUB7        0.0000 
     26 O          21.7421   21.0192   40.8920 O.2       2 ALA2        0.0000 
     27 O          17.5687   20.7555   43.1309 O.2       2 ALA2        0.0000 
     28 O          18.6409   20.5894   42.0952 O.2       2 ALA2        0.0000 
     29 O          19.7131   20.4233   41.0594 O.2       2 ALA2        0.0000 
     30 O          20.7853   20.2572   40.0237 O.2       2 ALA2        0.0000 
     31 O          16.6119   19.9935   42.2626 O.2       2 ALA2        0.0000 
     32 DU         17.6841   19.8274   41.2269 H         6 CUB7        0.0000 
     33 CA         18.7563   19.6613   40.1912 C.3       5 GLY6        0.0000 
     34 CA         19.8286   19.4952   39.1554 C.3       5 GLY6        0.0000 
     35 O          15.6551   19.2315   41.3944 O.2       2 ALA2        0.0000 
     36 CA         16.7273   19.0654   40.3586 C.3       5 GLY6        0.0000 
     37 O          14.6983   18.4695   40.5261 O.2       2 ALA2        0.0000 
     38 O          20.2399   22.4666   41.2771 O.2       2 ALA2        0.0000 
     39 O          17.1387   22.0368   42.4803 O.2       2 ALA2        0.0000 
     40 NZ         18.2109   21.8707   41.4445 N.2       3 LYS4        0.0000 
     41 NZ         19.2831   21.7046   40.4088 N.2       3 LYS4        0.0000 
     42 O          20.3553   21.5385   39.3730 O.2       2 ALA2        0.0000 
     43 O          16.1819   21.2748   41.6120 O.2       2 ALA2        0.0000 
     44 DU         17.2541   21.1087   40.5762 H         6 CUB7        0.0000 
     45 CA         18.3263   20.9426   39.5405 C.3       5 GLY6        0.0000 
     46 N          19.3985   20.7765   38.5048 N.2       2 ALA2        0.0000 
     47 O          14.5586   29.7247   38.5763 O.2       2 ALA2        0.0000 
     48 NZ         15.6308   29.5586   37.5406 N.2       3 LYS4        0.0000 
     49 CA         12.5296   29.1288   38.7438 C.3       5 GLY6        0.0000 
     50 CA         13.6018   28.9627   37.7081 C.3       5 GLY6        0.0000 
     51 OG         14.6740   28.7965   36.6723 O.2       1 SER1        0.0000 
     52 N          12.6450   28.2006   36.8398 N.2       2 ALA2        0.0000 
     53 CA         13.7172   28.0345   35.8041 C.3       5 GLY6        0.0000 
     54 OG         14.7895   27.8684   34.7683 O.2       1 SER1        0.0000 
     55 NZ         14.0131   31.9341   39.8297 N.2       3 LYS4        0.0000 
     56 OG         11.9841   31.3382   39.9972 O.2       1 SER1        0.0000 
     57 O          13.0564   31.1721   38.9614 O.2       2 ALA2        0.0000 
     58 NZ         14.1286   31.0060   37.9257 N.2       3 LYS4        0.0000 
     59 CA         15.2008   30.8399   36.8899 C.3       5 GLY6        0.0000 
     60 O          12.0996   30.4101   38.0931 O.2       2 ALA2        0.0000 
     61 DU         13.1718   30.2440   37.0574 H         6 CUB7        0.0000 
     62 OG         14.2440   30.0778   36.0217 O.2       1 SER1        0.0000 
     63 O          11.1428   29.6480   37.2249 O.2       2 ALA2        0.0000 
     64 N          12.2150   29.4819   36.1891 N.2       2 ALA2        0.0000 
     65 CA         13.2872   29.3158   35.1534 C.3       5 GLY6        0.0000 
     66 OG         11.5541   32.6195   39.3465 O.2       1 SER1        0.0000 
     67 N          12.6263   32.4534   38.3108 N.2       2 ALA2        0.0000 
     68 N          13.6986   32.2873   37.2750 N.2       2 ALA2        0.0000 
     69 CZ         10.5973   31.8575   38.4782 C.ar      4 PHE5        0.0000 
     70 O          11.6696   31.6914   37.4425 O.2       2 ALA2        0.0000 
     71 N          12.7418   31.5253   36.4068 N.2       2 ALA2        0.0000 
     72 N          13.8140   31.3592   35.3710 N.2       2 ALA2        0.0000 
     73 O          11.7850   30.7632   35.5385 O.2       2 ALA2        0.0000 
     74 O          17.8776   26.4767   40.3608 O.2       2 ALA2        0.0000 
     75 N          16.9208   25.7146   39.4926 N.2       2 ALA2        0.0000 
     76 N          17.9931   25.5485   38.4568 N.2       2 ALA2        0.0000 
     77 CA         14.8918   25.1187   39.6600 C.3       5 GLY6        0.0000 
     78 O          15.9641   24.9526   38.6243 O.2       2 ALA2        0.0000 
     79 CA         17.0363   24.7865   37.5885 C.3       5 GLY6        0.0000 
     80 N          18.1085   24.6204   36.5528 N.2       2 ALA2        0.0000 
     81 CA         16.0795   24.0245   36.7203 C.3       5 GLY6        0.0000 
     82 CA         17.4476   27.7580   39.7102 C.3       5 GLY6        0.0000 
     83 O          18.5198   27.5919   38.6744 O.2       2 ALA2        0.0000 
     84 O          16.4908   26.9960   38.8419 O.2       2 ALA2        0.0000 
     85 N          17.5631   26.8298   37.8062 N.2       2 ALA2        0.0000 
     86 N          18.6353   26.6637   36.7704 N.2       2 ALA2        0.0000 
     87 CA         15.5341   26.2339   37.9736 C.3       5 GLY6        0.0000 
     88 CA         16.6063   26.0678   36.9379 C.3       5 GLY6        0.0000 
     89 CA         17.6785   25.9017   35.9022 C.3       5 GLY6        0.0000 
     90 CA         15.6495   25.3058   36.0696 C.3       5 GLY6        0.0000 
     91 NZ         17.0176   29.0393   39.0595 N.2       3 LYS4        0.0000 
     92 O          16.0608   28.2773   38.1913 O.2       2 ALA2        0.0000 
     93 OG         18.2053   27.9450   36.1198 O.2       1 SER1        0.0000 
     94 CA         15.1040   27.5152   37.3230 C.3       5 GLY6        0.0000 
     95 OG         16.1763   27.3491   36.2872 O.2       1 SER1        0.0000 
     96 O          14.1473   26.7532   36.4547 O.2       2 ALA2        0.0000 
     97 CA         15.2195   26.5871   35.4190 C.3       5 GLY6        0.0000 
@<TRIPOS>BOND
@<TRIPOS>SUBSTRUCTURE
     1 SER1       51 GROUP   
     2 ALA2        1 GROUP   
     3 LYS4        3 GROUP   
     4 PHE5       69 GROUP   
     5 GLY6       12 GROUP   
     6 CUB7        7 GROUP   
@<TRIPOS>SET

