#    Name: 1dap_NDP_2_INTS_M
#    Modification time : Mon Mar 24 21:35:45 2014

@<TRIPOS>MOLECULE
1dap_NDP_2_INTS_M
  106     0    12     0     0
SMALL
NO_CHARGES


@<TRIPOS>ATOM
      1 N          15.2845   19.5815   38.6425 N.am      2 SEC2        0.0000 
      2 N          15.8760   19.9860   39.8750 N.am     10 SEL2        0.0000 
      3 N          14.6930   19.1770   37.4100 N.am      6 SEP2        0.0000 
      4 CA         20.2595   23.4040   39.9775 C.3       4 GLC5        0.0000 
      5 CA         19.3800   21.3780   39.8080 C.3      12 GLL5        0.0000 
      6 CA         21.1390   25.4300   40.1470 C.3       8 GLP5        0.0000 
      7 CA         21.3915   21.9180   38.3570 C.3       4 GLC5        0.0000 
      8 CA         20.5290   20.3760   39.6900 C.3      12 GLL5        0.0000 
      9 CA         22.2540   23.4600   37.0240 C.3       8 GLP5        0.0000 
     10 O          20.4650   21.3050   36.5780 O.2       1 ALC1        0.0000 
     11 O          21.0070   20.1130   37.3550 O.2       9 ALL1        0.0000 
     12 O          19.9230   22.4970   35.8010 O.2       5 ALP1        0.0000 
     13 CA         20.2390   17.4890   36.9155 C.3       4 GLC5        0.0000 
     14 CA         21.1030   18.1740   38.8490 C.3      12 GLL5        0.0000 
     15 CA         19.3750   16.8040   34.9820 C.3       8 GLP5        0.0000 
     16 N          23.3450   19.0765   39.1280 N.am      2 SEC2        0.0000 
     17 N          22.4550   18.1280   38.5370 N.am     10 SEL2        0.0000 
     18 N          24.2350   20.0250   39.7190 N.am      6 SEP2        0.0000 
     19 CA         21.6160   13.9620   42.1740 C.3       4 GLC5        0.0000 
     20 CA         21.0410   15.1650   43.5250 C.3      12 GLL5        0.0000 
     21 CA         22.1910   12.7590   40.8230 C.3       8 GLP5        0.0000 
     22 N          13.2780   21.6955   39.7140 N.am      2 SEC2        0.0000 
     23 N          14.1330   23.0750   39.3320 N.am     10 SEL2        0.0000 
     24 N          12.4230   20.3160   40.0960 N.am      6 SEP2        0.0000 
     25 N          13.4175   23.6855   38.2285 N.am      2 SEC2        0.0000 
     26 N          12.7020   24.2960   37.1250 N.am      6 SEP2        0.0000 
     27 N          15.0605   21.7370   36.4395 N.am      2 SEC2        0.0000 
     28 N          15.7350   22.1750   37.5410 N.am     10 SEL2        0.0000 
     29 N          14.3860   21.2990   35.3380 N.am      6 SEP2        0.0000 
     30 N          14.2660   24.3590   37.8760 N.am      2 SEC2        0.0000 
     31 N          15.8300   24.4220   38.6270 N.am     10 SEL2        0.0000 
     32 CA         16.2505   24.0060   36.0975 C.3       4 GLC5        0.0000 
     33 CA         16.9840   24.8210   37.9380 C.3      12 GLL5        0.0000 
     34 CA         15.5170   23.1910   34.2570 C.3       8 GLP5        0.0000 
     35 N          19.5630   27.7975   39.8780 N.am      2 SEC2        0.0000 
     36 N          18.1220   27.7530   39.5820 N.am     10 SEL2        0.0000 
     37 N          21.0040   27.8420   40.1740 N.am      6 SEP2        0.0000 
     38 N          18.2940   27.9630   41.0150 N.am      2 SEC2        0.0000 
     39 N          18.4660   28.1730   42.4480 N.am      6 SEP2        0.0000 
     40 O          19.0155   28.9435   38.9475 O.2       1 ALC1        0.0000 
     41 O          18.1220   27.7530   39.5820 O.2       9 ALL1        0.0000 
     42 O          19.9090   30.1340   38.3130 O.2       5 ALP1        0.0000 
     43 N          18.3630   29.9115   38.4210 N.am      2 SEC2        0.0000 
     44 N          16.8170   29.6890   38.5290 N.am     10 SEL2        0.0000 
     45 N          19.9090   30.1340   38.3130 N.am      6 SEP2        0.0000 
     46 O          16.7215   30.7415   39.3250 O.2       1 ALC1        0.0000 
     47 O          16.8170   29.6890   38.5290 O.2       9 ALL1        0.0000 
     48 O          16.6260   31.7940   40.1210 O.2       5 ALP1        0.0000 
     49 CA         16.7335   29.0455   34.9150 C.3       4 GLC5        0.0000 
     50 CA         16.2770   28.2900   36.9650 C.3      12 GLL5        0.0000 
     51 CA         17.1900   29.8010   32.8650 C.3       8 GLP5        0.0000 
     52 N          12.2080   32.6855   32.9370 N.am      2 SEC2        0.0000 
     53 N          12.7860   32.3230   34.1550 N.am     10 SEL2        0.0000 
     54 N          11.6300   33.0480   31.7190 N.am      6 SEP2        0.0000 
     55 N          12.1325   33.7240   33.9465 N.am      2 SEC2        0.0000 
     56 N          11.4790   35.1250   33.7380 N.am      6 SEP2        0.0000 
     57 O          16.5215   31.9510   34.5870 O.2       1 ALC1        0.0000 
     58 O          15.1440   32.4230   34.2210 O.2       9 ALL1        0.0000 
     59 O          17.8990   31.4790   34.9530 O.2       5 ALP1        0.0000 
     60 O          14.6950   33.6210   33.3005 O.2       1 ALC1        0.0000 
     61 O          14.2460   34.8190   32.3800 O.2       5 ALP1        0.0000 
     62 NZ         22.3830   14.7820   39.6365 N.4       3 LYC4        0.0000 
     63 NZ         23.1300   15.8830   39.4510 N.4      11 LYL4        0.0000 
     64 NZ         20.4300   13.5520   39.2820 N.4       7 LYP4        0.0000 
     65 N          22.3830   14.7820   39.6365 N.am      2 SEC2        0.0000 
     66 N          23.1300   15.8830   39.4510 N.am     10 SEL2        0.0000 
     67 N          21.6360   13.6810   39.8220 N.am      6 SEP2        0.0000 
     68 NZ         21.2505   15.2000   37.7395 N.4       3 LYC4        0.0000 
     69 NZ         22.4270   16.0080   37.1390 N.4      11 LYL4        0.0000 
     70 N          21.5005   16.7445   36.2720 N.am      2 SEC2        0.0000 
     71 N          22.4270   16.0080   37.1390 N.am     10 SEL2        0.0000 
     72 N          20.5740   17.4810   35.4050 N.am      6 SEP2        0.0000 
     73 N          23.0630   14.9830   36.6655 N.am      2 SEC2        0.0000 
     74 N          23.6990   13.9580   36.1920 N.am      6 SEP2        0.0000 
     75 N          21.2505   15.2000   37.7395 N.am      2 SEC2        0.0000 
     76 N          20.0740   14.3920   38.3400 N.am      6 SEP2        0.0000 
     77 NZ         25.2125   17.7725   38.6065 N.4       3 LYC4        0.0000 
     78 NZ         24.4190   17.0560   37.5840 N.4      11 LYL4        0.0000 
     79 NZ         25.4900   19.6460   40.0820 N.4       7 LYP4        0.0000 
     80 N          24.0590   15.5070   36.8880 N.am      2 SEC2        0.0000 
     81 N          24.4190   17.0560   37.5840 N.am     10 SEL2        0.0000 
     82 N          25.4040   16.0395   37.2940 N.am      2 SEC2        0.0000 
     83 N          26.3890   15.0230   37.0040 N.am      6 SEP2        0.0000 
     84 N          25.2125   17.7725   38.6065 N.am      2 SEC2        0.0000 
     85 N          26.0060   18.4890   39.6290 N.am      6 SEP2        0.0000 
     86 CA         21.5005   19.0330   36.8137 C.3       4 GLC5        0.0000 
     87 CA         22.2270   19.2300   34.9810 C.3       8 GLP5        0.0000 
     88 CA         18.8660   18.5290   38.0532 C.3       4 GLC5        0.0000 
     89 CA         20.4450   19.4980   38.4440 C.3      12 GLL5        0.0000 
     90 CA         16.9580   18.2220   37.4600 C.3       8 GLP5        0.0000 
     91 CA         20.8650   14.2063   41.3933 C.3       4 GLC5        0.0000 
     92 CA         18.9740   15.5470   41.7400 C.3      12 GLL5        0.0000 
     93 CA         14.5623   27.2527   39.1305 C.3       4 GLC5        0.0000 
     94 CA         16.9410   27.3040   39.0230 C.3      12 GLL5        0.0000 
     95 CA         12.5850   26.6300   39.5330 C.3       8 GLP5        0.0000 
     96 CA         15.9578   28.4973   40.3440 C.3       4 GLC5        0.0000 
     97 CA         16.1380   28.4470   38.4330 C.3      12 GLL5        0.0000 
     98 CA         15.3760   29.1190   41.9600 C.3       8 GLP5        0.0000 
     99 CA         15.8463   30.0290   34.1308 C.3       4 GLC5        0.0000 
    100 CA         15.0590   29.9750   35.6380 C.3      12 GLL5        0.0000 
    101 CA         13.8232   29.2535   33.9573 C.3       4 GLC5        0.0000 
    102 CA         13.1440   28.2500   32.5180 C.3       8 GLP5        0.0000 
    103 CA         12.9083   27.5170   37.9780 C.3       4 GLC5        0.0000 
    104 CA         12.6460   28.7060   36.1700 C.3      12 GLL5        0.0000 
    105 CA         13.1931   28.4763   34.3830 C.3       4 GLC5        0.0000 
    106 CA         13.8170   28.1020   36.6760 C.3      12 GLL5        0.0000 
@<TRIPOS>BOND
@<TRIPOS>SUBSTRUCTURE
     1 ALC1       10 GROUP        1 X    ALC  0     ROOT ALC X 1
     2 SEC2        1 GROUP        1 X    SEC  0     **** SEC X 2
     3 LYC4       62 GROUP        1 X    LYC  0     **** LYC X 4
     4 GLC5        4 GROUP        1 X    GLC  0     **** GLC X 6
     5 ALP1       12 GROUP        1 Y    ALP  0     ROOT ALP Y 8
     6 SEP2        3 GROUP        1 Y    SEP  0     **** SEP Y 9
     7 LYP4       64 GROUP        1 Y    LYP  0     **** LYP Y 11
     8 GLP5        6 GROUP        1 Y    GLP  0     **** GLP Y 13
     9 ALL1       11 GROUP        1 Z    ALL  0     ROOT ALL Z 15
    10 SEL2        2 GROUP        1 Z    SEL  0     **** SEL Z 16
    11 LYL4       63 GROUP        1 Z    LYL  0     **** LYL Z 18
    12 GLL5        5 GROUP        1 Z    GLL  0     **** GLL Z 20
@<TRIPOS>SET

