#    Name: 1dap_NDP_2_ligand
#    Modification time : Mon Mar 24 21:35:45 2014

@<TRIPOS>MOLECULE
1dap_NDP_2_ligand
   74    78     1     0     0
SMALL
NO_CHARGES


@<TRIPOS>ATOM
      1 PA         16.7430   20.9720   40.4910 P.3       1 NDP400      0.0000 
      2 O1A        15.8760   19.9860   39.8750 O.co2     1 NDP400      0.0000 
      3 O2A        16.8170   20.9300   41.9640 O.co2     1 NDP400      0.0000 
      4 O5B        18.1120   20.6930   39.7570 O.3       1 NDP400      0.0000 
      5 C5B        19.3800   21.3780   39.8080 C.3       1 NDP400      0.0000 
      6 C4B        20.5290   20.3760   39.6900 C.3       1 NDP400      0.0000 
      7 O4B        20.4510   19.3920   40.7990 O.3       1 NDP400      0.0000 
      8 C3B        20.4450   19.4980   38.4440 C.3       1 NDP400      0.0000 
      9 O3B        21.0070   20.1130   37.3550 O.3       1 NDP400      0.0000 
     10 C2B        21.1030   18.1740   38.8490 C.3       1 NDP400      0.0000 
     11 O2B        22.4550   18.1280   38.5370 O.3       1 NDP400      0.0000 
     12 C1B        20.9820   18.1520   40.3650 C.3       1 NDP400      0.0000 
     13 N9A        19.9500   17.2190   40.7600 N.pl3     1 NDP400      0.0000 
     14 C8A        18.7050   17.0450   40.2950 C.2       1 NDP400      0.0000 
     15 N7A        18.0550   16.0720   40.8770 N.2       1 NDP400      0.0000 
     16 C5A        18.9740   15.5470   41.7400 C.ar      1 NDP400      0.0000 
     17 C6A        18.8580   14.5930   42.7580 C.ar      1 NDP400      0.0000 
     18 N6A        17.7330   13.9200   42.9110 N.pl3     1 NDP400      0.0000 
     19 N1A        19.9130   14.4490   43.5900 N.ar      1 NDP400      0.0000 
     20 C2A        21.0410   15.1650   43.5250 C.ar      1 NDP400      0.0000 
     21 N3A        21.2570   16.1030   42.4760 N.ar      1 NDP400      0.0000 
     22 C4A        20.1620   16.2370   41.6780 C.ar      1 NDP400      0.0000 
     23 O3         16.3000   22.3590   39.9820 O.3       1 NDP400      0.0000 
     24 PN         15.4930   22.8740   38.8150 P.3       1 NDP400      0.0000 
     25 O1N        14.1330   23.0750   39.3320 O.co2     1 NDP400      0.0000 
     26 O2N        15.7350   22.1750   37.5410 O.co2     1 NDP400      0.0000 
     27 O5D        15.8300   24.4220   38.6270 O.3       1 NDP400      0.0000 
     28 C5D        16.9840   24.8210   37.9380 C.3       1 NDP400      0.0000 
     29 C4D        17.1210   26.3350   37.8420 C.3       1 NDP400      0.0000 
     30 O4D        16.3930   26.9070   36.7530 O.3       1 NDP400      0.0000 
     31 C3D        16.9410   27.3040   39.0230 C.3       1 NDP400      0.0000 
     32 O3D        18.1220   27.7530   39.5820 O.3       1 NDP400      0.0000 
     33 C2D        16.1380   28.4470   38.4330 C.3       1 NDP400      0.0000 
     34 O2D        16.8170   29.6890   38.5290 O.3       1 NDP400      0.0000 
     35 C1D        16.2770   28.2900   36.9650 C.3       1 NDP400      0.0000 
     36 N1N        14.9930   28.7560   36.4430 N.pl3     1 NDP400      0.0000 
     37 C2N        15.0590   29.9750   35.6380 C.2       1 NDP400      0.0000 
     38 C3N        13.9460   30.5390   35.1550 C.2       1 NDP400      0.0000 
     39 C7N        13.9840   31.7940   34.4800 C.2       1 NDP400      0.0000 
     40 O7N        12.7860   32.3230   34.1550 O.2       1 NDP400      0.0000 
     41 N7N        15.1440   32.4230   34.2210 N.am      1 NDP400      0.0000 
     42 C4N        12.6890   29.9000   35.4700 C.3       1 NDP400      0.0000 
     43 C5N        12.6460   28.7060   36.1700 C.2       1 NDP400      0.0000 
     44 C6N        13.8170   28.1020   36.6760 C.2       1 NDP400      0.0000 
     45 P2B        23.1510   16.6900   38.2250 P.3       1 NDP400      0.0000 
     46 O1X        23.1300   15.8830   39.4510 O.co2     1 NDP400      0.0000 
     47 O2X        22.4270   16.0080   37.1390 O.co2     1 NDP400      0.0000 
     48 O3X        24.4190   17.0560   37.5840 O.co2     1 NDP400      0.0000 
     49 H          19.5030   21.9222   40.7519 H         1 NDP400      0.0000 
     50 H          19.4776   22.1006   38.9891 H         1 NDP400      0.0000 
     51 H          21.4653   20.8635   39.7126 H         1 NDP400      0.0000 
     52 H          19.3750   19.2780   38.3119 H         1 NDP400      0.0000 
     53 H          20.5280   17.3760   38.4659 H         1 NDP400      0.0000 
     54 H          21.8947   17.9305   40.8087 H         1 NDP400      0.0000 
     55 H          18.3202   17.6227   39.5609 H         1 NDP400      0.0000 
     56 H          17.7233   13.2399   43.6441 H         1 NDP400      0.0000 
     57 H          16.9926   14.1513   42.2799 H         1 NDP400      0.0000 
     58 H          21.7949   15.0623   44.2339 H         1 NDP400      0.0000 
     59 H          17.0056   24.4239   36.8986 H         1 NDP400      0.0000 
     60 H          17.9102   24.4387   38.4222 H         1 NDP400      0.0000 
     61 H          18.2488   26.5183   37.5265 H         1 NDP400      0.0000 
     62 H          16.2832   26.8037   39.7329 H         1 NDP400      0.0000 
     63 H          15.1742   28.4574   38.7036 H         1 NDP400      0.0000 
     64 H          17.0667   28.8505   36.6172 H         1 NDP400      0.0000 
     65 H          16.0010   30.3631   35.4708 H         1 NDP400      0.0000 
     66 H          15.9767   31.9385   34.4892 H         1 NDP400      0.0000 
     67 H          15.0705   33.3191   33.7833 H         1 NDP400      0.0000 
     68 H          12.0993   29.7904   34.4772 H         1 NDP400      0.0000 
     69 H          12.0256   30.6878   36.0034 H         1 NDP400      0.0000 
     70 H          11.7362   28.2348   36.3325 H         1 NDP400      0.0000 
     71 H          13.7647   27.2332   37.1801 H         1 NDP400      0.0000 
     72 H          20.3797   20.8574   37.1259 H         1 NDP400      0.0000 
     73 H          18.2613   28.6645   39.1949 H         1 NDP400      0.0000 
     74 H          16.4054   30.1487   39.3159 H         1 NDP400      0.0000 
@<TRIPOS>BOND
     1    2    1 ar   
     2    3    1 ar   
     3    4    1 1    
     4   23    1 1    
     5    5    4 1    
     6    6    5 1    
     7   49    5 1    
     8   50    5 1    
     9    7    6 1    
    10    8    6 1    
    11   51    6 1    
    12   12    7 1    
    13    9    8 1    
    14   10    8 1    
    15   52    8 1    
    16   72    9 1    
    17   11   10 1    
    18   12   10 1    
    19   53   10 1    
    20   45   11 1    
    21   13   12 1    
    22   54   12 1    
    23   14   13 1    
    24   22   13 1    
    25   15   14 2    
    26   55   14 1    
    27   16   15 1    
    28   17   16 ar   
    29   22   16 ar   
    30   18   17 1    
    31   19   17 ar   
    32   56   18 1    
    33   57   18 1    
    34   20   19 ar   
    35   21   20 ar   
    36   58   20 1    
    37   22   21 ar   
    38   24   23 1    
    39   25   24 ar   
    40   26   24 ar   
    41   27   24 1    
    42   28   27 1    
    43   29   28 1    
    44   59   28 1    
    45   60   28 1    
    46   30   29 1    
    47   31   29 1    
    48   61   29 1    
    49   35   30 1    
    50   32   31 1    
    51   33   31 1    
    52   62   31 1    
    53   73   32 1    
    54   34   33 1    
    55   35   33 1    
    56   63   33 1    
    57   74   34 1    
    58   36   35 1    
    59   64   35 1    
    60   37   36 1    
    61   44   36 1    
    62   38   37 2    
    63   65   37 1    
    64   39   38 1    
    65   42   38 1    
    66   40   39 2    
    67   41   39 am   
    68   66   41 1    
    69   67   41 1    
    70   43   42 1    
    71   68   42 1    
    72   69   42 1    
    73   44   43 2    
    74   70   43 1    
    75   71   44 1    
    76   46   45 ar   
    77   47   45 ar   
    78   48   45 ar   
@<TRIPOS>SUBSTRUCTURE
     1 NDP400      1 GROUP   
@<TRIPOS>SET

