#    Name: 3tti_KBI_1_INTS_M
#    Modification time : Mon Mar 24 20:55:46 2014

@<TRIPOS>MOLECULE
3tti_KBI_1_INTS_M
   93     0     9     0     0
SMALL
NO_CHARGES


@<TRIPOS>ATOM
      1 CA        -22.9260    6.6770  -33.2995 C.3       3 GLC5        0.0000 
      2 CA        -21.7190    6.4800  -31.8720 C.3       9 GLL5        0.0000 
      3 CA        -24.1330    6.8740  -34.7270 C.3       6 GLP5        0.0000 
      4 CA        -21.6035    5.3075  -33.6280 C.3       3 GLC5        0.0000 
      5 CA        -21.4880    4.1350  -35.3840 C.3       6 GLP5        0.0000 
      6 CA        -20.1835    5.2560  -31.1510 C.3       3 GLC5        0.0000 
      7 CA        -18.6480    4.0320  -30.4300 C.3       6 GLP5        0.0000 
      8 CA        -20.8295    6.9710  -30.1265 C.3       3 GLC5        0.0000 
      9 CA        -19.9400    7.4620  -28.3810 C.3       6 GLP5        0.0000 
     10 CA        -20.2495   15.1130  -33.0055 C.3       3 GLC5        0.0000 
     11 CA        -18.8410   13.9840  -31.8750 C.3       9 GLL5        0.0000 
     12 CA        -21.6580   16.2420  -34.1360 C.3       6 GLP5        0.0000 
     13 CA        -18.0260   13.5330  -30.4785 C.3       3 GLC5        0.0000 
     14 CA        -17.2110   13.0820  -29.0820 C.3       6 GLP5        0.0000 
     15 N         -19.7785    4.9205  -32.6220 N.am      2 SEC2        0.0000 
     16 N         -20.5040    6.2270  -32.4040 N.am      8 SEL2        0.0000 
     17 N         -19.0530    3.6140  -32.8400 N.am      5 SEP2        0.0000 
     18 N         -27.7050    4.7250  -27.5595 N.am      2 SEC2        0.0000 
     19 N         -27.5190    4.7390  -28.9410 N.am      8 SEL2        0.0000 
     20 N         -27.8910    4.7110  -26.1780 N.am      5 SEP2        0.0000 
     21 CA        -22.7790    7.8250  -33.4620 C.3       3 GLC5        0.0000 
     22 CA        -21.4250    8.7760  -32.1970 C.3       9 GLL5        0.0000 
     23 CA        -22.3515    9.6465  -33.9770 C.3       3 GLC5        0.0000 
     24 CA        -23.2780   10.5170  -35.7570 C.3       6 GLP5        0.0000 
     25 CA        -20.6825    8.1190  -30.2890 C.3       3 GLC5        0.0000 
     26 CA        -14.7460   15.1215  -35.4375 C.3       3 GLC5        0.0000 
     27 CA        -16.2950   14.2720  -35.8540 C.3       9 GLL5        0.0000 
     28 CA        -13.1970   15.9710  -35.0210 C.3       6 GLP5        0.0000 
     29 CA        -14.9080   14.0480  -36.9360 C.3       3 GLC5        0.0000 
     30 CA        -13.5210   13.8240  -38.0180 C.3       6 GLP5        0.0000 
     31 CA        -18.3645    9.1995  -33.2455 C.3       3 GLC5        0.0000 
     32 CA        -20.1720    8.5360  -32.7450 C.3       9 GLL5        0.0000 
     33 CA        -16.5570    9.8630  -33.7460 C.3       6 GLP5        0.0000 
     34 CA        -21.5695   10.8365  -35.6575 C.3       3 GLC5        0.0000 
     35 CA        -19.8610   11.1560  -35.5580 C.3       9 GLL5        0.0000 
     36 CA        -20.4245   10.7560  -37.6965 C.3       3 GLC5        0.0000 
     37 CA        -20.9880   10.3560  -39.8350 C.3       6 GLP5        0.0000 
     38 CA        -18.1715   10.2360  -35.5215 C.3       3 GLC5        0.0000 
     39 CA        -16.4820    9.3160  -35.4850 C.3       6 GLP5        0.0000 
     40 CA        -17.7865    7.8315  -32.8635 C.3       3 GLC5        0.0000 
     41 CA        -19.7320    7.2140  -32.8350 C.3       9 GLL5        0.0000 
     42 CA        -15.8410    8.4490  -32.8920 C.3       6 GLP5        0.0000 
     43 CA        -20.6100    5.6745  -34.1095 C.3       3 GLC5        0.0000 
     44 CA        -18.5905    6.0190  -31.8345 C.3       3 GLC5        0.0000 
     45 CA        -17.4490    4.8240  -30.8340 C.3       6 GLP5        0.0000 
     46 CA        -19.8360    7.3380  -30.6080 C.3       3 GLC5        0.0000 
     47 CA        -21.5170   12.6500  -34.2410 C.3       3 GLC5        0.0000 
     48 CA        -19.3840   12.5400  -33.6810 C.3       9 GLL5        0.0000 
     49 CA        -23.6500   12.7600  -34.8010 C.3       6 GLP5        0.0000 
     50 O         -21.9825    4.1180  -31.6295 O.2       1 ALC1        0.0000 
     51 O         -22.4750    5.4630  -31.4470 O.2       7 ALL1        0.0000 
     52 O         -21.4900    2.7730  -31.8120 O.2       4 ALP1        0.0000 
     53 CA        -21.9395    6.6330  -28.9370 C.3       3 GLC5        0.0000 
     54 CA        -23.9390    5.8040  -29.4930 C.3       9 GLL5        0.0000 
     55 CA        -26.4200    5.6070  -32.6530 C.3       3 GLC5        0.0000 
     56 CA        -26.1590    4.5260  -30.9430 C.3       9 GLL5        0.0000 
     57 CA        -26.6810    6.6880  -34.3630 C.3       6 GLP5        0.0000 
     58 CA        -23.2170   11.7900  -33.2720 C.3       3 GLC5        0.0000 
     59 CA        -22.7840   10.8200  -31.7430 C.3       9 GLL5        0.0000 
     60 CA        -24.0855    8.4110  -33.2430 C.3       3 GLC5        0.0000 
     61 CA        -24.0380    9.9480  -31.7590 C.3       9 GLL5        0.0000 
     62 CA        -24.1845   10.7500  -33.5905 C.3       3 GLC5        0.0000 
     63 CA        -24.3310   11.5520  -35.4220 C.3       6 GLP5        0.0000 
     64 CA        -17.2810   11.0105  -35.5985 C.3       3 GLC5        0.0000 
     65 CA        -18.0800   12.7050  -35.7120 C.3       9 GLL5        0.0000 
     66 CA        -19.7057    9.7385  -35.6750 C.3       3 GLC5        0.0000 
     67 CA        -19.1200   12.1240  -34.9860 C.3       9 GLL5        0.0000 
     68 CA        -19.9210    7.8370  -36.0780 C.3       6 GLP5        0.0000 
     69 CA        -20.0931    7.8860  -34.3655 C.3       3 GLC5        0.0000 
     70 CA        -19.9363   14.4730  -34.3995 C.3       3 GLC5        0.0000 
     71 CA        -20.8810   15.8990  -35.3950 C.3       6 GLP5        0.0000 
     72 CA        -19.0962   12.3645  -31.4290 C.3       3 GLC5        0.0000 
     73 CA        -19.2010   11.6820  -29.4540 C.3       6 GLP5        0.0000 
     74 CA        -24.2147    5.9582  -32.9862 C.3       3 GLC5        0.0000 
     75 CA        -23.8780    5.6490  -31.0260 C.3       9 GLL5        0.0000 
     76 CA        -24.1855    4.3266  -28.1051 C.3       3 GLC5        0.0000 
     77 CA        -22.9520    3.4180  -26.8870 C.3       6 GLP5        0.0000 
     78 CA        -20.9375   11.3313  -30.2270 C.3       3 GLC5        0.0000 
     79 CA        -22.5640   11.1410  -30.2570 C.3       9 GLL5        0.0000 
     80 CA        -25.8627   10.5760  -31.9657 C.3       3 GLC5        0.0000 
     81 CA        -27.4110   11.1340  -32.8840 C.3       6 GLP5        0.0000 
     82 CA        -19.9831   13.1698  -36.3355 C.3       3 GLC5        0.0000 
     83 CA        -21.1810   14.1670  -37.1790 C.3       6 GLP5        0.0000 
     84 CA        -16.0030   13.1199  -34.4528 C.3       3 GLC5        0.0000 
     85 CA        -14.5670   12.8910  -33.2980 C.3       6 GLP5        0.0000 
     86 CA        -17.3935   14.2434  -37.2733 C.3       3 GLC5        0.0000 
     87 CA        -17.3480   15.1380  -38.9390 C.3       6 GLP5        0.0000 
     88 CA        -19.1568   14.9123  -34.9490 C.3       3 GLC5        0.0000 
     89 CA        -17.3010   13.7130  -35.1520 C.3       9 GLL5        0.0000 
     90 CA        -16.3242   13.3685  -33.3942 C.3       3 GLC5        0.0000 
     91 CA        -17.5640   14.1380  -33.8540 C.3       9 GLL5        0.0000 
     92 CA        -17.3680   11.6486  -33.9313 C.3       3 GLC5        0.0000 
     93 CA        -18.5990   13.5540  -33.1270 C.3       9 GLL5        0.0000 
@<TRIPOS>BOND
@<TRIPOS>SUBSTRUCTURE
     1 ALC1       50 GROUP        1 X    ALC  0     ROOT ALC X 1
     2 SEC2       15 GROUP        1 X    SEC  0     **** SEC X 2
     3 GLC5        1 GROUP        1 X    GLC  0     **** GLC X 6
     4 ALP1       52 GROUP        1 Y    ALP  0     ROOT ALP Y 8
     5 SEP2       17 GROUP        1 Y    SEP  0     **** SEP Y 9
     6 GLP5        3 GROUP        1 Y    GLP  0     **** GLP Y 13
     7 ALL1       51 GROUP        1 Z    ALL  0     ROOT ALL Z 15
     8 SEL2       16 GROUP        1 Z    SEL  0     **** SEL Z 16
     9 GLL5        2 GROUP        1 Z    GLL  0     **** GLL Z 20
@<TRIPOS>SET

