#    Name: 3tti_KBI_1_ligand
#    Modification time : Mon Mar 24 20:55:47 2014

@<TRIPOS>MOLECULE
3tti_KBI_1_ligand
   55    59     1     0     0
SMALL
NO_CHARGES


@<TRIPOS>ATOM
      1 C1        -21.7190    6.4800  -31.8720 C.ar      1 KBI465      0.0000 
      2 F1        -18.8410   13.9840  -31.8750 F         1 KBI465      0.0000 
      3 N1        -20.5040    6.2270  -32.4040 N.ar      1 KBI465      0.0000 
      4 O1        -27.5190    4.7390  -28.9410 O.3       1 KBI465      0.0000 
      5 C2        -21.4250    8.7760  -32.1970 C.ar      1 KBI465      0.0000 
      6 F2        -16.2950   14.2720  -35.8540 F         1 KBI465      0.0000 
      7 N2        -22.1730    7.7440  -31.7710 N.ar      1 KBI465      0.0000 
      8 O2        -23.4120   10.2370  -29.5240 O.3       1 KBI465      0.0000 
      9 C3        -20.1720    8.5360  -32.7450 C.ar      1 KBI465      0.0000 
     10 F3        -19.8610   11.1560  -35.5580 F         1 KBI465      0.0000 
     11 N3        -21.6020   10.0950  -32.2340 N.pl3     1 KBI465      0.0000 
     12 C4        -19.7320    7.2140  -32.8350 C.ar      1 KBI465      0.0000 
     13 N4        -19.6350    9.7170  -33.0850 N.2       1 KBI465      0.0000 
     14 C5        -20.5190   10.6700  -32.7620 C.2       1 KBI465      0.0000 
     15 N5        -20.3740   11.9940  -32.9520 N.pl3     1 KBI465      0.0000 
     16 C6        -19.3840   12.5400  -33.6810 C.ar      1 KBI465      0.0000 
     17 N6        -22.4750    5.4630  -31.4470 N.pl3     1 KBI465      0.0000 
     18 C7        -23.8780    5.6490  -31.0260 C.3       1 KBI465      0.0000 
     19 C8        -23.9390    5.8040  -29.4930 C.3       1 KBI465      0.0000 
     20 C9        -25.3850    5.8730  -28.9800 C.3       1 KBI465      0.0000 
     21 C10       -26.1760    4.6320  -29.4100 C.3       1 KBI465      0.0000 
     22 C11       -26.1590    4.5260  -30.9430 C.3       1 KBI465      0.0000 
     23 C12       -24.7150    4.4360  -31.4650 C.3       1 KBI465      0.0000 
     24 C13       -22.7840   10.8200  -31.7430 C.3       1 KBI465      0.0000 
     25 C14       -22.5640   11.1410  -30.2570 C.3       1 KBI465      0.0000 
     26 C15       -24.5910   10.0880  -30.3360 C.3       1 KBI465      0.0000 
     27 C16       -24.0380    9.9480  -31.7590 C.3       1 KBI465      0.0000 
     28 C17       -19.1200   12.1240  -34.9860 C.ar      1 KBI465      0.0000 
     29 C18       -18.0800   12.7050  -35.7120 C.ar      1 KBI465      0.0000 
     30 C19       -17.3010   13.7130  -35.1520 C.ar      1 KBI465      0.0000 
     31 C20       -17.5640   14.1380  -33.8540 C.ar      1 KBI465      0.0000 
     32 C21       -18.5990   13.5540  -33.1270 C.ar      1 KBI465      0.0000 
     33 H         -18.7938    7.0373  -33.2451 H         1 KBI465      0.0000 
     34 H         -21.0859   12.6493  -32.4979 H         1 KBI465      0.0000 
     35 H         -22.1185    4.4875  -31.3894 H         1 KBI465      0.0000 
     36 H         -24.2905    6.5307  -31.4736 H         1 KBI465      0.0000 
     37 H         -23.4136    6.7169  -29.2082 H         1 KBI465      0.0000 
     38 H         -23.4348    4.9539  -29.0307 H         1 KBI465      0.0000 
     39 H         -25.8646    6.7616  -29.3833 H         1 KBI465      0.0000 
     40 H         -25.3759    5.9342  -27.8945 H         1 KBI465      0.0000 
     41 H         -25.6814    3.7659  -29.0092 H         1 KBI465      0.0000 
     42 H         -26.6377    5.4035  -31.3675 H         1 KBI465      0.0000 
     43 H         -26.7039    3.6369  -31.2461 H         1 KBI465      0.0000 
     44 H         -24.2533    3.5263  -31.0817 H         1 KBI465      0.0000 
     45 H         -24.7317    4.3891  -32.5537 H         1 KBI465      0.0000 
     46 H         -22.9620   11.7138  -32.2564 H         1 KBI465      0.0000 
     47 H         -21.5199   10.9873  -30.0324 H         1 KBI465      0.0000 
     48 H         -22.8360   12.1723  -30.0936 H         1 KBI465      0.0000 
     49 H         -25.2166   10.9559  -30.3024 H         1 KBI465      0.0000 
     50 H         -25.1353    9.1976  -30.0979 H         1 KBI465      0.0000 
     51 H         -23.7735    8.9391  -31.9412 H         1 KBI465      0.0000 
     52 H         -24.7376   10.3350  -32.4532 H         1 KBI465      0.0000 
     53 H         -17.8878   12.3832  -36.6733 H         1 KBI465      0.0000 
     54 H         -16.9959   14.8822  -33.4307 H         1 KBI465      0.0000 
     55 H         -27.7072    5.7209  -28.9170 H         1 KBI465      0.0000 
@<TRIPOS>BOND
     1    3    1 ar   
     2    7    1 ar   
     3   17    1 1    
     4   32    2 1    
     5   12    3 ar   
     6   21    4 1    
     7   55    4 1    
     8    7    5 ar   
     9    9    5 ar   
    10   11    5 1    
    11   30    6 1    
    12   25    8 1    
    13   26    8 1    
    14   12    9 ar   
    15   13    9 1    
    16   28   10 1    
    17   14   11 1    
    18   24   11 1    
    19   33   12 1    
    20   14   13 2    
    21   15   14 1    
    22   16   15 1    
    23   34   15 1    
    24   28   16 ar   
    25   32   16 ar   
    26   18   17 1    
    27   35   17 1    
    28   19   18 1    
    29   23   18 1    
    30   36   18 1    
    31   20   19 1    
    32   37   19 1    
    33   38   19 1    
    34   21   20 1    
    35   39   20 1    
    36   40   20 1    
    37   22   21 1    
    38   41   21 1    
    39   23   22 1    
    40   42   22 1    
    41   43   22 1    
    42   44   23 1    
    43   45   23 1    
    44   25   24 1    
    45   27   24 1    
    46   46   24 1    
    47   47   25 1    
    48   48   25 1    
    49   27   26 1    
    50   49   26 1    
    51   50   26 1    
    52   51   27 1    
    53   52   27 1    
    54   29   28 ar   
    55   30   29 ar   
    56   53   29 1    
    57   31   30 ar   
    58   32   31 ar   
    59   54   31 1    
@<TRIPOS>SUBSTRUCTURE
     1 KBI465      1 GROUP   
@<TRIPOS>SET

