#    Name: 2w5a_ADP_1_INTS_M
#    Modification time : Tue Mar 25 03:41:15 2014

@<TRIPOS>MOLECULE
2w5a_ADP_1_INTS_M
   66     0    15     0     0
SMALL
NO_CHARGES


@<TRIPOS>ATOM
      1 NZ        -23.4895   13.4730   10.7795 N.4       3 LYC4        0.0000 
      2 NZ        -24.0290   13.6270   11.9310 N.4      13 LYL4        0.0000 
      3 NZ        -22.6440   14.3440    8.8480 N.4       8 LYP4        0.0000 
      4 Zn        -23.4670   12.7815   12.3705 Zn        4 ZIC7        0.0000 
      5 Zn        -24.0290   13.6270   11.9310 Zn       14 ZIL7        0.0000 
      6 Zn        -22.9050   11.9360   12.8100 Zn        9 ZIP7        0.0000 
      7 N         -23.4895   13.4730   10.7795 N.am      2 SEC2        0.0000 
      8 N         -24.0290   13.6270   11.9310 N.am     12 SEL2        0.0000 
      9 N         -22.9500   13.3190    9.6280 N.am      7 SEP2        0.0000 
     10 NZ        -24.7030   15.0095    9.8650 N.4       3 LYC4        0.0000 
     11 NZ        -26.0490   14.5570   10.8110 N.4      13 LYL4        0.0000 
     12 N         -27.2180   15.0020   10.3090 N.am      2 SEC2        0.0000 
     13 N         -26.0490   14.5570   10.8110 N.am     12 SEL2        0.0000 
     14 N         -28.3870   15.4470    9.8070 N.am      7 SEP2        0.0000 
     15 N         -24.7030   15.0095    9.8650 N.am      2 SEC2        0.0000 
     16 N         -23.3570   15.4620    8.9190 N.am      7 SEP2        0.0000 
     17 NZ        -24.4280   10.0525   13.9060 N.4       3 LYC4        0.0000 
     18 NZ        -24.7390   11.4910   13.9940 N.4      13 LYL4        0.0000 
     19 NZ        -24.1170    8.6140   13.8180 N.4       8 LYP4        0.0000 
     20 Zn        -23.8220   11.7135   13.4020 Zn        4 ZIC7        0.0000 
     21 Zn        -24.7390   11.4910   13.9940 Zn       14 ZIL7        0.0000 
     22 N         -24.4280   10.0525   13.9060 N.am      2 SEC2        0.0000 
     23 N         -24.7390   11.4910   13.9940 N.am     12 SEL2        0.0000 
     24 N         -24.1170    8.6140   13.8180 N.am      7 SEP2        0.0000 
     25 NZ        -25.6165    9.6225   13.5970 N.4       3 LYC4        0.0000 
     26 NZ        -27.1160   10.6310   13.3760 N.4      13 LYL4        0.0000 
     27 CA        -28.7115   13.4420   13.5615 C.3       5 GLC5        0.0000 
     28 CA        -28.1990   12.5150   15.3280 C.3      15 GLL5        0.0000 
     29 CA        -29.2240   14.3690   11.7950 C.3      10 GLP5        0.0000 
     30 CA        -29.2930   11.2885   18.5205 C.3       5 GLC5        0.0000 
     31 CA        -28.3940   12.4230   16.8410 C.3      15 GLL5        0.0000 
     32 CA        -30.1920   10.1540   20.2000 C.3      10 GLP5        0.0000 
     33 CA        -28.5890   10.6620   19.2260 C.3       5 GLC5        0.0000 
     34 CA        -26.9860   11.1700   18.2520 C.3      15 GLL5        0.0000 
     35 CA        -27.7880    9.4345   17.2265 C.3       5 GLC5        0.0000 
     36 CA        -28.5900    7.6990   16.2010 C.3      10 GLP5        0.0000 
     37 N         -24.4335    8.6000   15.3785 N.am      2 SEC2        0.0000 
     38 N         -24.7500    8.5860   16.9390 N.am     12 SEL2        0.0000 
     39 CA        -25.1910    7.9515   15.9625 C.3       5 GLC5        0.0000 
     40 CA        -25.0030    8.0700   18.1600 C.3      15 GLL5        0.0000 
     41 CA        -25.3790    7.8330   13.7650 C.3      10 GLP5        0.0000 
     42 CA        -25.6860    5.4655   17.7770 C.3       5 GLC5        0.0000 
     43 CA        -24.6040    6.8580   18.9070 C.3      15 GLL5        0.0000 
     44 CA        -26.7680    4.0730   16.6470 C.3      10 GLP5        0.0000 
     45 CA        -23.4535    6.6415   20.7400 C.3       5 GLC5        0.0000 
     46 CA        -22.3030    6.4250   22.5730 C.3      10 GLP5        0.0000 
     47 O         -23.7050    4.5615   18.6110 O.2       1 ALC1        0.0000 
     48 O         -23.7790    5.9350   18.3550 O.2      11 ALL1        0.0000 
     49 O         -23.6310    3.1880   18.8670 O.2       6 ALP1        0.0000 
     50 N         -24.6065    5.7675   21.2265 N.am      2 SEC2        0.0000 
     51 N         -25.0750    6.7080   20.1640 N.am     12 SEL2        0.0000 
     52 N         -24.1380    4.8270   22.2890 N.am      7 SEP2        0.0000 
     53 CA        -27.9740    7.3230   20.3765 C.3       5 GLC5        0.0000 
     54 CA        -25.8940    7.6180   20.7210 C.3      15 GLL5        0.0000 
     55 CA        -30.0540    7.0280   20.0320 C.3      10 GLP5        0.0000 
     56 CA        -26.9440    5.9745   19.7755 C.3       5 GLC5        0.0000 
     57 CA        -27.9940    4.3310   18.8300 C.3      10 GLP5        0.0000 
     58 CA        -24.0985    7.0215   21.6470 C.3       5 GLC5        0.0000 
     59 CA        -30.2828   12.6415   16.5932 C.3       5 GLC5        0.0000 
     60 CA        -32.2690   12.8140   17.1020 C.3      10 GLP5        0.0000 
     61 CA        -28.9072   10.6700   15.6313 C.3       5 GLC5        0.0000 
     62 CA        -29.5180    8.8710   15.1780 C.3      10 GLP5        0.0000 
     63 CA        -24.7692   11.3580   18.7220 C.3       5 GLC5        0.0000 
     64 CA        -22.8840   10.8730   19.3000 C.3      10 GLP5        0.0000 
     65 CA        -27.0183    8.1215   17.3518 C.3       5 GLC5        0.0000 
     66 CA        -25.8900    9.0180   18.8450 C.3      15 GLL5        0.0000 
@<TRIPOS>BOND
@<TRIPOS>SUBSTRUCTURE
     1 ALC1       47 GROUP        1 X    ALC  0     ROOT ALC X 1
     2 SEC2        7 GROUP        1 X    SEC  0     **** SEC X 2
     3 LYC4        1 GROUP        1 X    LYC  0     **** LYC X 4
     4 ZIC7        4 GROUP        1 X    ZIC  0     **** ZIC X 5
     5 GLC5       27 GROUP        1 X    GLC  0     **** GLC X 6
     6 ALP1       49 GROUP        1 Y    ALP  0     ROOT ALP Y 8
     7 SEP2        9 GROUP        1 Y    SEP  0     **** SEP Y 9
     8 LYP4        3 GROUP        1 Y    LYP  0     **** LYP Y 11
     9 ZIP7        6 GROUP        1 Y    ZIP  0     **** ZIP Y 12
    10 GLP5       29 GROUP        1 Y    GLP  0     **** GLP Y 13
    11 ALL1       48 GROUP        1 Z    ALL  0     ROOT ALL Z 15
    12 SEL2        8 GROUP        1 Z    SEL  0     **** SEL Z 16
    13 LYL4        2 GROUP        1 Z    LYL  0     **** LYL Z 18
    14 ZIL7        5 GROUP        1 Z    ZIL  0     **** ZIL Z 19
    15 GLL5       28 GROUP        1 Z    GLL  0     **** GLL Z 20
@<TRIPOS>SET

