#    Name: 2w5a_ADP_1_ligand
#    Modification time : Tue Mar 25 03:41:15 2014

@<TRIPOS>MOLECULE
2w5a_ADP_1_ligand
   39    41     1     0     0
SMALL
NO_CHARGES


@<TRIPOS>ATOM
      1 PB        -25.4370   14.1100   12.1140 P.3       1 ADP1280     0.0000 
      2 O1B       -25.5870   15.0730   13.2610 O.co2     1 ADP1280     0.0000 
      3 O2B       -24.0290   13.6270   11.9310 O.co2     1 ADP1280     0.0000 
      4 O3B       -26.0490   14.5570   10.8110 O.co2     1 ADP1280     0.0000 
      5 PA        -26.1890   11.7770   13.7240 P.3       1 ADP1280     0.0000 
      6 O1A       -24.7390   11.4910   13.9940 O.co2     1 ADP1280     0.0000 
      7 O2A       -27.1160   10.6310   13.3760 O.co2     1 ADP1280     0.0000 
      8 O3A       -26.3130   12.7980   12.4720 O.3       1 ADP1280     0.0000 
      9 O5'       -26.7940   12.4770   15.0420 O.3       1 ADP1280     0.0000 
     10 C5'       -28.1990   12.5150   15.3280 C.3       1 ADP1280     0.0000 
     11 C4'       -28.3940   12.4230   16.8410 C.3       1 ADP1280     0.0000 
     12 O4'       -28.0580   11.1080   17.3010 O.3       1 ADP1280     0.0000 
     13 C3'       -27.4870   13.3810   17.5910 C.3       1 ADP1280     0.0000 
     14 O3'       -28.1900   13.8230   18.7540 O.3       1 ADP1280     0.0000 
     15 C2'       -26.3230   12.5160   18.0360 C.3       1 ADP1280     0.0000 
     16 O2'       -25.7400   12.9900   19.2510 O.3       1 ADP1280     0.0000 
     17 C1'       -26.9860   11.1700   18.2520 C.3       1 ADP1280     0.0000 
     18 N9        -26.1060   10.0130   17.9870 N.pl3     1 ADP1280     0.0000 
     19 C8        -25.4360    9.7540   16.8450 C.2       1 ADP1280     0.0000 
     20 N7        -24.7500    8.5860   16.9390 N.2       1 ADP1280     0.0000 
     21 C5        -25.0030    8.0700   18.1600 C.ar      1 ADP1280     0.0000 
     22 C6        -24.6040    6.8580   18.9070 C.ar      1 ADP1280     0.0000 
     23 N6        -23.7790    5.9350   18.3550 N.pl3     1 ADP1280     0.0000 
     24 N1        -25.0750    6.7080   20.1640 N.ar      1 ADP1280     0.0000 
     25 C2        -25.8940    7.6180   20.7210 C.ar      1 ADP1280     0.0000 
     26 N3        -26.2980    8.7460   20.1070 N.ar      1 ADP1280     0.0000 
     27 C4        -25.8900    9.0180   18.8450 C.ar      1 ADP1280     0.0000 
     28 H         -28.7277   11.6780   14.8694 H         1 ADP1280     0.0000 
     29 H         -28.6562   13.4447   14.9860 H         1 ADP1280     0.0000 
     30 H         -29.4132   12.6598   17.0806 H         1 ADP1280     0.0000 
     31 H         -27.1635   14.1316   16.9676 H         1 ADP1280     0.0000 
     32 H         -25.6417   12.4267   17.2338 H         1 ADP1280     0.0000 
     33 H         -27.3790   11.1281   19.2452 H         1 ADP1280     0.0000 
     34 H         -25.4407   10.3290   16.0510 H         1 ADP1280     0.0000 
     35 H         -23.9321    4.9864   18.6319 H         1 ADP1280     0.0000 
     36 H         -23.0903    6.2843   17.7197 H         1 ADP1280     0.0000 
     37 H         -26.2473    7.4342   21.7156 H         1 ADP1280     0.0000 
     38 H         -27.6318   13.5174   19.5254 H         1 ADP1280     0.0000 
     39 H         -25.1067   13.7110   18.9700 H         1 ADP1280     0.0000 
@<TRIPOS>BOND
     1    2    1 ar   
     2    3    1 ar   
     3    4    1 ar   
     4    8    1 1    
     5    6    5 ar   
     6    7    5 ar   
     7    8    5 1    
     8    9    5 1    
     9   10    9 1    
    10   11   10 1    
    11   28   10 1    
    12   29   10 1    
    13   12   11 1    
    14   13   11 1    
    15   30   11 1    
    16   17   12 1    
    17   14   13 1    
    18   15   13 1    
    19   31   13 1    
    20   38   14 1    
    21   16   15 1    
    22   17   15 1    
    23   32   15 1    
    24   39   16 1    
    25   18   17 1    
    26   33   17 1    
    27   19   18 1    
    28   27   18 1    
    29   20   19 2    
    30   34   19 1    
    31   21   20 1    
    32   22   21 ar   
    33   27   21 ar   
    34   23   22 1    
    35   24   22 ar   
    36   35   23 1    
    37   36   23 1    
    38   25   24 ar   
    39   26   25 ar   
    40   37   25 1    
    41   27   26 ar   
@<TRIPOS>SUBSTRUCTURE
     1 ADP1280     1 GROUP   
@<TRIPOS>SET

